MODEL 1
REMARK VINA RESULT:      -7.2      0.000      0.000
REMARK  Name = 11941516
REMARK  10 active torsions:
REMARK  status: ('A' for Active; 'I' for Inactive)
REMARK    1  A    between atoms: O_4  and  C_22
REMARK    2  A    between atoms: O_4  and  C_27
REMARK    3  A    between atoms: O_5  and  C_29
REMARK    4  A    between atoms: O_7  and  C_34
REMARK    5  A    between atoms: O_7  and  C_35
REMARK    6  A    between atoms: N_9  and  C_11
REMARK    7  A    between atoms: C_19  and  C_22
REMARK    8  A    between atoms: C_23  and  C_25
REMARK    9  A    between atoms: C_26  and  C_28
REMARK   10  A    between atoms: C_27  and  C_29
REMARK                            x       y       z     vdW  Elec       q    Type
REMARK                         _______ _______ _______ _____ _____    ______ ____
ROOT
ATOM      1  O   UNL     1      15.174  11.374  21.656  0.00  0.00    -0.273 OA
ATOM      2  O   UNL     1      15.907   6.165  21.361  0.00  0.00    -0.270 OA
ATOM      8  N   UNL     1      15.236   8.241  20.636  0.00  0.00    -0.284 N 
ATOM     10  N   UNL     1      17.074  10.145  21.921  0.00  0.00    -0.283 N 
ATOM     11  C   UNL     1      14.224   9.982  19.396  0.00  0.00    +0.104 C 
ATOM     12  C   UNL     1      15.520   9.561  20.103  0.00  0.00    +0.183 C 
ATOM     13  C   UNL     1      13.140   9.201  20.141  0.00  0.00    +0.043 C 
ATOM     14  C   UNL     1      13.830   7.892  20.492  0.00  0.00    +0.111 C 
ATOM     15  C   UNL     1      15.870  10.418  21.305  0.00  0.00    +0.240 C 
ATOM     16  C   UNL     1      16.175   7.330  21.072  0.00  0.00    +0.249 C 
ATOM     17  C   UNL     1      17.580   7.791  21.222  0.00  0.00    +0.059 A 
ATOM     18  C   UNL     1      17.950   9.061  21.698  0.00  0.00    +0.046 A 
ATOM     20  C   UNL     1      18.569   6.812  21.024  0.00  0.00    +0.022 A 
ATOM     21  C   UNL     1      19.297   9.294  22.027  0.00  0.00    +0.024 A 
ATOM     23  C   UNL     1      19.907   7.078  21.312  0.00  0.00    -0.024 A 
ATOM     24  C   UNL     1      20.269   8.316  21.826  0.00  0.00    +0.010 A 
ATOM     37  H   UNL     1      17.409  10.862  22.561  0.00  0.00    +0.155 HD
ENDROOT
BRANCH  11   9
ATOM      3  O   UNL     1      13.859  11.741  17.123  0.00  0.00    -0.273 OA
ATOM      9  N   UNL     1      14.259   9.623  17.997  0.00  0.00    -0.308 N 
ATOM     19  C   UNL     1      14.072  10.541  16.975  0.00  0.00    +0.239 C 
ATOM     36  H   UNL     1      14.481   8.661  17.755  0.00  0.00    +0.149 HD
BRANCH  19  22
ATOM     22  C   UNL     1      14.163   9.887  15.613  0.00  0.00    +0.256 C 
BRANCH  22   4
ATOM      4  O   UNL     1      13.274   8.794  15.524  0.00  0.00    -0.359 OA
BRANCH   4  27
ATOM     27  C   UNL     1      11.920   9.194  15.713  0.00  0.00    +0.280 C 
BRANCH  27  29
ATOM      6  O   UNL     1      11.796   7.540  17.490  0.00  0.00    -0.248 OA
ATOM     29  C   UNL     1      11.239   8.250  16.665  0.00  0.00    +0.331 C 
BRANCH  29   5
ATOM      5  O   UNL     1       9.894   8.293  16.487  0.00  0.00    -0.479 OA
ATOM     38  H   UNL     1       9.426   8.589  17.297  0.00  0.00    +0.295 HD
ENDBRANCH  29   5
ENDBRANCH  27  29
ENDBRANCH   4  27
ENDBRANCH  22   4
ENDBRANCH  19  22
ENDBRANCH  11   9
BRANCH  23  25
ATOM     25  C   UNL     1      20.918   6.054  21.099  0.00  0.00    +0.008 C 
ATOM     26  C   UNL     1      21.694   5.510  22.066  0.00  0.00    +0.008 C 
BRANCH  26  28
ATOM     28  C   UNL     1      22.705   4.459  21.854  0.00  0.00    -0.025 A 
ATOM     30  C   UNL     1      22.336   3.242  21.284  0.00  0.00    +0.011 A 
ATOM     31  C   UNL     1      24.032   4.684  22.222  0.00  0.00    +0.011 A 
ATOM     32  C   UNL     1      23.293   2.247  21.083  0.00  0.00    +0.046 A 
ATOM     33  C   UNL     1      24.989   3.690  22.021  0.00  0.00    +0.046 A 
ATOM     34  C   UNL     1      24.620   2.471  21.451  0.00  0.00    +0.120 A 
BRANCH  34   7
ATOM      7  O   UNL     1      25.554   1.502  21.255  0.00  0.00    -0.495 OA
ATOM     35  C   UNL     1      25.395   0.290  21.990  0.00  0.00    +0.277 C 
ENDBRANCH  34   7
ENDBRANCH  26  28
ENDBRANCH  23  25
TORSDOF 9
ENDMDL
MODEL 2
REMARK VINA RESULT:      -7.1      3.140      6.023
REMARK  Name = 11941516
REMARK  10 active torsions:
REMARK  status: ('A' for Active; 'I' for Inactive)
REMARK    1  A    between atoms: O_4  and  C_22
REMARK    2  A    between atoms: O_4  and  C_27
REMARK    3  A    between atoms: O_5  and  C_29
REMARK    4  A    between atoms: O_7  and  C_34
REMARK    5  A    between atoms: O_7  and  C_35
REMARK    6  A    between atoms: N_9  and  C_11
REMARK    7  A    between atoms: C_19  and  C_22
REMARK    8  A    between atoms: C_23  and  C_25
REMARK    9  A    between atoms: C_26  and  C_28
REMARK   10  A    between atoms: C_27  and  C_29
REMARK                            x       y       z     vdW  Elec       q    Type
REMARK                         _______ _______ _______ _____ _____    ______ ____
ROOT
ATOM      1  O   UNL     1      10.667   9.098  20.689  0.00  0.00    -0.273 OA
ATOM      2  O   UNL     1      15.381  11.210  19.656  0.00  0.00    -0.270 OA
ATOM      8  N   UNL     1      13.411  10.919  20.804  0.00  0.00    -0.284 N 
ATOM     10  N   UNL     1      12.692   8.094  20.408  0.00  0.00    -0.283 N 
ATOM     11  C   UNL     1      11.599  11.219  22.293  0.00  0.00    +0.104 C 
ATOM     12  C   UNL     1      12.563  10.174  21.718  0.00  0.00    +0.183 C 
ATOM     13  C   UNL     1      11.529  12.284  21.196  0.00  0.00    +0.043 C 
ATOM     14  C   UNL     1      12.935  12.281  20.616  0.00  0.00    +0.111 C 
ATOM     15  C   UNL     1      11.886   9.112  20.872  0.00  0.00    +0.240 C 
ATOM     16  C   UNL     1      14.617  10.487  20.294  0.00  0.00    +0.249 C 
ATOM     17  C   UNL     1      15.000   9.067  20.507  0.00  0.00    +0.059 A 
ATOM     18  C   UNL     1      14.098   7.989  20.464  0.00  0.00    +0.046 A 
ATOM     20  C   UNL     1      16.380   8.811  20.586  0.00  0.00    +0.022 A 
ATOM     21  C   UNL     1      14.610   6.680  20.435  0.00  0.00    +0.024 A 
ATOM     23  C   UNL     1      16.866   7.505  20.603  0.00  0.00    -0.024 A 
ATOM     24  C   UNL     1      15.980   6.438  20.515  0.00  0.00    +0.010 A 
ATOM     37  H   UNL     1      12.200   7.275  20.053  0.00  0.00    +0.155 HD
ENDROOT
BRANCH  11   9
ATOM      3  O   UNL     1      10.070  12.363  24.473  0.00  0.00    -0.273 OA
ATOM      9  N   UNL     1      12.111  11.772  23.526  0.00  0.00    -0.308 N 
ATOM     19  C   UNL     1      11.296  12.299  24.516  0.00  0.00    +0.239 C 
ATOM     36  H   UNL     1      13.112  11.724  23.693  0.00  0.00    +0.149 HD
BRANCH  19  22
ATOM     22  C   UNL     1      12.101  12.803  25.694  0.00  0.00    +0.256 C 
BRANCH  22   4
ATOM      4  O   UNL     1      13.127  11.892  26.024  0.00  0.00    -0.359 OA
BRANCH   4  27
ATOM     27  C   UNL     1      14.385  12.541  26.180  0.00  0.00    +0.280 C 
BRANCH  27  29
ATOM      6  O   UNL     1      15.087  11.897  23.944  0.00  0.00    -0.248 OA
ATOM     29  C   UNL     1      15.344  12.053  25.129  0.00  0.00    +0.331 C 
BRANCH  29   5
ATOM      5  O   UNL     1      16.559  11.806  25.681  0.00  0.00    -0.479 OA
ATOM     38  H   UNL     1      16.484  11.499  26.609  0.00  0.00    +0.295 HD
ENDBRANCH  29   5
ENDBRANCH  27  29
ENDBRANCH   4  27
ENDBRANCH  22   4
ENDBRANCH  19  22
ENDBRANCH  11   9
BRANCH  23  25
ATOM     25  C   UNL     1      18.297   7.257  20.688  0.00  0.00    +0.008 C 
ATOM     26  C   UNL     1      18.892   6.053  20.521  0.00  0.00    +0.008 C 
BRANCH  26  28
ATOM     28  C   UNL     1      20.343   5.806  20.588  0.00  0.00    -0.025 A 
ATOM     30  C   UNL     1      21.236   6.876  20.549  0.00  0.00    +0.011 A 
ATOM     31  C   UNL     1      20.824   4.500  20.692  0.00  0.00    +0.011 A 
ATOM     32  C   UNL     1      22.609   6.642  20.612  0.00  0.00    +0.046 A 
ATOM     33  C   UNL     1      22.197   4.265  20.756  0.00  0.00    +0.046 A 
ATOM     34  C   UNL     1      23.090   5.337  20.716  0.00  0.00    +0.120 A 
BRANCH  34   7
ATOM      7  O   UNL     1      24.430   5.108  20.778  0.00  0.00    -0.495 OA
ATOM     35  C   UNL     1      25.002   4.318  19.737  0.00  0.00    +0.277 C 
ENDBRANCH  34   7
ENDBRANCH  26  28
ENDBRANCH  23  25
TORSDOF 9
ENDMDL
MODEL 3
REMARK VINA RESULT:      -6.9     14.584     16.365
REMARK  Name = 11941516
REMARK  10 active torsions:
REMARK  status: ('A' for Active; 'I' for Inactive)
REMARK    1  A    between atoms: O_4  and  C_22
REMARK    2  A    between atoms: O_4  and  C_27
REMARK    3  A    between atoms: O_5  and  C_29
REMARK    4  A    between atoms: O_7  and  C_34
REMARK    5  A    between atoms: O_7  and  C_35
REMARK    6  A    between atoms: N_9  and  C_11
REMARK    7  A    between atoms: C_19  and  C_22
REMARK    8  A    between atoms: C_23  and  C_25
REMARK    9  A    between atoms: C_26  and  C_28
REMARK   10  A    between atoms: C_27  and  C_29
REMARK                            x       y       z     vdW  Elec       q    Type
REMARK                         _______ _______ _______ _____ _____    ______ ____
ROOT
ATOM      1  O   UNL     1       9.567   8.929   5.242  0.00  0.00    -0.273 OA
ATOM      2  O   UNL     1      13.392   6.255   7.688  0.00  0.00    -0.270 OA
ATOM      8  N   UNL     1      11.677   6.582   6.192  0.00  0.00    -0.284 N 
ATOM     10  N   UNL     1      11.769   9.445   5.519  0.00  0.00    -0.283 N 
ATOM     11  C   UNL     1       9.969   6.215   4.598  0.00  0.00    +0.104 C 
ATOM     12  C   UNL     1      11.148   7.130   4.956  0.00  0.00    +0.183 C 
ATOM     13  C   UNL     1       9.518   5.667   5.953  0.00  0.00    +0.043 C 
ATOM     14  C   UNL     1      10.819   5.537   6.730  0.00  0.00    +0.111 C 
ATOM     15  C   UNL     1      10.742   8.555   5.283  0.00  0.00    +0.240 C 
ATOM     16  C   UNL     1      12.915   6.862   6.730  0.00  0.00    +0.249 C 
ATOM     17  C   UNL     1      13.703   7.973   6.134  0.00  0.00    +0.059 A 
ATOM     18  C   UNL     1      13.147   9.178   5.670  0.00  0.00    +0.046 A 
ATOM     20  C   UNL     1      15.101   7.841   6.211  0.00  0.00    +0.022 A 
ATOM     21  C   UNL     1      14.008  10.245   5.358  0.00  0.00    +0.024 A 
ATOM     23  C   UNL     1      15.939   8.895   5.851  0.00  0.00    -0.024 A 
ATOM     24  C   UNL     1      15.392  10.102   5.436  0.00  0.00    +0.010 A 
ATOM     37  H   UNL     1      11.508  10.429   5.499  0.00  0.00    +0.155 HD
ENDROOT
BRANCH  11   9
ATOM      3  O   UNL     1      10.203   6.313   1.712  0.00  0.00    -0.273 OA
ATOM      9  N   UNL     1      10.391   5.150   3.718  0.00  0.00    -0.308 N 
ATOM     19  C   UNL     1      10.472   5.293   2.341  0.00  0.00    +0.239 C 
ATOM     36  H   UNL     1      10.689   4.273   4.136  0.00  0.00    +0.149 HD
BRANCH  19  22
ATOM     22  C   UNL     1      10.943   4.019   1.673  0.00  0.00    +0.256 C 
BRANCH  22   4
ATOM      4  O   UNL     1      12.079   3.501   2.331  0.00  0.00    -0.359 OA
BRANCH   4  27
ATOM     27  C   UNL     1      13.136   3.215   1.420  0.00  0.00    +0.280 C 
BRANCH  27  29
ATOM      6  O   UNL     1      14.477   5.208   1.787  0.00  0.00    -0.248 OA
ATOM     29  C   UNL     1      14.365   3.991   1.806  0.00  0.00    +0.331 C 
BRANCH  29   5
ATOM      5  O   UNL     1      15.353   3.144   2.190  0.00  0.00    -0.479 OA
ATOM     38  H   UNL     1      16.088   3.617   2.637  0.00  0.00    +0.295 HD
ENDBRANCH  29   5
ENDBRANCH  27  29
ENDBRANCH   4  27
ENDBRANCH  22   4
ENDBRANCH  19  22
ENDBRANCH  11   9
BRANCH  23  25
ATOM     25  C   UNL     1      17.383   8.740   5.934  0.00  0.00    +0.008 C 
ATOM     26  C   UNL     1      18.197   8.438   4.894  0.00  0.00    +0.008 C 
BRANCH  26  28
ATOM     28  C   UNL     1      19.662   8.300   4.974  0.00  0.00    -0.025 A 
ATOM     30  C   UNL     1      20.408   9.207   5.726  0.00  0.00    +0.011 A 
ATOM     31  C   UNL     1      20.302   7.261   4.298  0.00  0.00    +0.011 A 
ATOM     32  C   UNL     1      21.794   9.077   5.801  0.00  0.00    +0.046 A 
ATOM     33  C   UNL     1      21.689   7.130   4.374  0.00  0.00    +0.046 A 
ATOM     34  C   UNL     1      22.435   8.038   5.125  0.00  0.00    +0.120 A 
BRANCH  34   7
ATOM      7  O   UNL     1      23.788   7.910   5.199  0.00  0.00    -0.495 OA
ATOM     35  C   UNL     1      24.539   9.097   5.451  0.00  0.00    +0.277 C 
ENDBRANCH  34   7
ENDBRANCH  26  28
ENDBRANCH  23  25
TORSDOF 9
ENDMDL
MODEL 4
REMARK VINA RESULT:      -6.9     28.118     31.757
REMARK  Name = 11941516
REMARK  10 active torsions:
REMARK  status: ('A' for Active; 'I' for Inactive)
REMARK    1  A    between atoms: O_4  and  C_22
REMARK    2  A    between atoms: O_4  and  C_27
REMARK    3  A    between atoms: O_5  and  C_29
REMARK    4  A    between atoms: O_7  and  C_34
REMARK    5  A    between atoms: O_7  and  C_35
REMARK    6  A    between atoms: N_9  and  C_11
REMARK    7  A    between atoms: C_19  and  C_22
REMARK    8  A    between atoms: C_23  and  C_25
REMARK    9  A    between atoms: C_26  and  C_28
REMARK   10  A    between atoms: C_27  and  C_29
REMARK                            x       y       z     vdW  Elec       q    Type
REMARK                         _______ _______ _______ _____ _____    ______ ____
ROOT
ATOM      1  O   UNL     1      -1.764 -11.256  15.491  0.00  0.00    -0.273 OA
ATOM      2  O   UNL     1      -5.341 -12.970  12.023  0.00  0.00    -0.270 OA
ATOM      8  N   UNL     1      -4.588 -12.079  14.004  0.00  0.00    -0.284 N 
ATOM     10  N   UNL     1      -2.107 -10.653  13.321  0.00  0.00    -0.283 N 
ATOM     11  C   UNL     1      -4.484 -11.290  16.231  0.00  0.00    +0.104 C 
ATOM     12  C   UNL     1      -4.055 -10.980  14.790  0.00  0.00    +0.183 C 
ATOM     13  C   UNL     1      -4.620 -12.813  16.244  0.00  0.00    +0.043 C 
ATOM     14  C   UNL     1      -5.134 -13.132  14.849  0.00  0.00    +0.111 C 
ATOM     15  C   UNL     1      -2.554 -11.016  14.574  0.00  0.00    +0.240 C 
ATOM     16  C   UNL     1      -4.736 -12.090  12.633  0.00  0.00    +0.249 C 
ATOM     17  C   UNL     1      -4.111 -10.990  11.853  0.00  0.00    +0.059 A 
ATOM     18  C   UNL     1      -2.862 -10.418  12.152  0.00  0.00    +0.046 A 
ATOM     20  C   UNL     1      -4.761 -10.644  10.655  0.00  0.00    +0.022 A 
ATOM     21  C   UNL     1      -2.266  -9.564  11.208  0.00  0.00    +0.024 A 
ATOM     23  C   UNL     1      -4.175  -9.757   9.753  0.00  0.00    -0.024 A 
ATOM     24  C   UNL     1      -2.920  -9.226  10.024  0.00  0.00    +0.010 A 
ATOM     37  H   UNL     1      -1.112 -10.449  13.254  0.00  0.00    +0.155 HD
ENDROOT
BRANCH  11   9
ATOM      3  O   UNL     1      -5.525 -10.660  18.860  0.00  0.00    -0.273 OA
ATOM      9  N   UNL     1      -5.740 -10.649  16.544  0.00  0.00    -0.308 N 
ATOM     19  C   UNL     1      -6.154 -10.388  17.841  0.00  0.00    +0.239 C 
ATOM     36  H   UNL     1      -6.322 -10.332  15.773  0.00  0.00    +0.149 HD
BRANCH  19  22
ATOM     22  C   UNL     1      -7.507  -9.710  17.871  0.00  0.00    +0.256 C 
BRANCH  22   4
ATOM      4  O   UNL     1      -8.537 -10.639  17.609  0.00  0.00    -0.359 OA
BRANCH   4  27
ATOM     27  C   UNL     1      -9.688 -10.395  18.413  0.00  0.00    +0.280 C 
BRANCH  27  29
ATOM      6  O   UNL     1      -8.912 -12.011  20.054  0.00  0.00    -0.248 OA
ATOM     29  C   UNL     1      -9.476 -10.959  19.790  0.00  0.00    +0.331 C 
BRANCH  29   5
ATOM      5  O   UNL     1     -10.001 -10.125  20.724  0.00  0.00    -0.479 OA
ATOM     38  H   UNL     1     -10.900 -10.406  21.001  0.00  0.00    +0.295 HD
ENDBRANCH  29   5
ENDBRANCH  27  29
ENDBRANCH   4  27
ENDBRANCH  22   4
ENDBRANCH  19  22
ENDBRANCH  11   9
BRANCH  23  25
ATOM     25  C   UNL     1      -4.863  -9.408   8.520  0.00  0.00    +0.008 C 
ATOM     26  C   UNL     1      -6.203  -9.267   8.387  0.00  0.00    +0.008 C 
BRANCH  26  28
ATOM     28  C   UNL     1      -6.898  -8.895   7.141  0.00  0.00    -0.025 A 
ATOM     30  C   UNL     1      -7.903  -7.928   7.166  0.00  0.00    +0.011 A 
ATOM     31  C   UNL     1      -6.549  -9.509   5.938  0.00  0.00    +0.011 A 
ATOM     32  C   UNL     1      -8.560  -7.576   5.988  0.00  0.00    +0.046 A 
ATOM     33  C   UNL     1      -7.206  -9.157   4.759  0.00  0.00    +0.046 A 
ATOM     34  C   UNL     1      -8.212  -8.190   4.784  0.00  0.00    +0.120 A 
BRANCH  34   7
ATOM      7  O   UNL     1      -8.853  -7.847   3.634  0.00  0.00    -0.495 OA
ATOM     35  C   UNL     1      -8.131  -8.010   2.414  0.00  0.00    +0.277 C 
ENDBRANCH  34   7
ENDBRANCH  26  28
ENDBRANCH  23  25
TORSDOF 9
ENDMDL
MODEL 5
REMARK VINA RESULT:      -6.8     27.963     31.534
REMARK  Name = 11941516
REMARK  10 active torsions:
REMARK  status: ('A' for Active; 'I' for Inactive)
REMARK    1  A    between atoms: O_4  and  C_22
REMARK    2  A    between atoms: O_4  and  C_27
REMARK    3  A    between atoms: O_5  and  C_29
REMARK    4  A    between atoms: O_7  and  C_34
REMARK    5  A    between atoms: O_7  and  C_35
REMARK    6  A    between atoms: N_9  and  C_11
REMARK    7  A    between atoms: C_19  and  C_22
REMARK    8  A    between atoms: C_23  and  C_25
REMARK    9  A    between atoms: C_26  and  C_28
REMARK   10  A    between atoms: C_27  and  C_29
REMARK                            x       y       z     vdW  Elec       q    Type
REMARK                         _______ _______ _______ _____ _____    ______ ____
ROOT
ATOM      1  O   UNL     1      -1.618 -11.003  15.476  0.00  0.00    -0.273 OA
ATOM      2  O   UNL     1      -5.100 -13.014  12.072  0.00  0.00    -0.270 OA
ATOM      8  N   UNL     1      -4.393 -12.031  14.026  0.00  0.00    -0.284 N 
ATOM     10  N   UNL     1      -2.006 -10.475  13.294  0.00  0.00    -0.283 N 
ATOM     11  C   UNL     1      -4.328 -11.182  16.232  0.00  0.00    +0.104 C 
ATOM     12  C   UNL     1      -3.925 -10.883  14.782  0.00  0.00    +0.183 C 
ATOM     13  C   UNL     1      -4.372 -12.710  16.284  0.00  0.00    +0.043 C 
ATOM     14  C   UNL     1      -4.872 -13.093  14.899  0.00  0.00    +0.111 C 
ATOM     15  C   UNL     1      -2.425 -10.833  14.559  0.00  0.00    +0.240 C 
ATOM     16  C   UNL     1      -4.547 -12.084  12.657  0.00  0.00    +0.249 C 
ATOM     17  C   UNL     1      -3.992 -10.968  11.847  0.00  0.00    +0.059 A 
ATOM     18  C   UNL     1      -2.779 -10.315  12.124  0.00  0.00    +0.046 A 
ATOM     20  C   UNL     1      -4.667 -10.691  10.644  0.00  0.00    +0.022 A 
ATOM     21  C   UNL     1      -2.239  -9.450  11.156  0.00  0.00    +0.024 A 
ATOM     23  C   UNL     1      -4.139  -9.794   9.718  0.00  0.00    -0.024 A 
ATOM     24  C   UNL     1      -2.917  -9.182   9.969  0.00  0.00    +0.010 A 
ATOM     37  H   UNL     1      -1.025 -10.213  13.217  0.00  0.00    +0.155 HD
ENDROOT
BRANCH  11   9
ATOM      3  O   UNL     1      -5.488 -10.765  18.855  0.00  0.00    -0.273 OA
ATOM      9  N   UNL     1      -5.619 -10.610  16.537  0.00  0.00    -0.308 N 
ATOM     19  C   UNL     1      -6.090 -10.450  17.831  0.00  0.00    +0.239 C 
ATOM     36  H   UNL     1      -6.184 -10.265  15.766  0.00  0.00    +0.149 HD
BRANCH  19  22
ATOM     22  C   UNL     1      -7.469  -9.826  17.852  0.00  0.00    +0.256 C 
BRANCH  22   4
ATOM      4  O   UNL     1      -7.655  -8.991  16.729  0.00  0.00    -0.359 OA
BRANCH   4  27
ATOM     27  C   UNL     1      -8.898  -9.243  16.080  0.00  0.00    +0.280 C 
BRANCH  27  29
ATOM      6  O   UNL     1      -9.501 -10.054  13.870  0.00  0.00    -0.248 OA
ATOM     29  C   UNL     1      -8.654  -9.649  14.653  0.00  0.00    +0.331 C 
BRANCH  29   5
ATOM      5  O   UNL     1      -7.341  -9.502  14.341  0.00  0.00    -0.479 OA
ATOM     38  H   UNL     1      -7.031 -10.198  13.724  0.00  0.00    +0.295 HD
ENDBRANCH  29   5
ENDBRANCH  27  29
ENDBRANCH   4  27
ENDBRANCH  22   4
ENDBRANCH  19  22
ENDBRANCH  11   9
BRANCH  23  25
ATOM     25  C   UNL     1      -4.852  -9.517   8.481  0.00  0.00    +0.008 C 
ATOM     26  C   UNL     1      -5.367 -10.454   7.650  0.00  0.00    +0.008 C 
BRANCH  26  28
ATOM     28  C   UNL     1      -6.105 -10.173   6.406  0.00  0.00    -0.025 A 
ATOM     30  C   UNL     1      -6.040 -11.068   5.339  0.00  0.00    +0.011 A 
ATOM     31  C   UNL     1      -6.870  -9.011   6.297  0.00  0.00    +0.011 A 
ATOM     32  C   UNL     1      -6.738 -10.801   4.161  0.00  0.00    +0.046 A 
ATOM     33  C   UNL     1      -7.570  -8.745   5.120  0.00  0.00    +0.046 A 
ATOM     34  C   UNL     1      -7.504  -9.640   4.052  0.00  0.00    +0.120 A 
BRANCH  34   7
ATOM      7  O   UNL     1      -8.186  -9.380   2.903  0.00  0.00    -0.495 OA
ATOM     35  C   UNL     1      -7.984  -8.101   2.305  0.00  0.00    +0.277 C 
ENDBRANCH  34   7
ENDBRANCH  26  28
ENDBRANCH  23  25
TORSDOF 9
ENDMDL
MODEL 6
REMARK VINA RESULT:      -6.7     27.696     32.047
REMARK  Name = 11941516
REMARK  10 active torsions:
REMARK  status: ('A' for Active; 'I' for Inactive)
REMARK    1  A    between atoms: O_4  and  C_22
REMARK    2  A    between atoms: O_4  and  C_27
REMARK    3  A    between atoms: O_5  and  C_29
REMARK    4  A    between atoms: O_7  and  C_34
REMARK    5  A    between atoms: O_7  and  C_35
REMARK    6  A    between atoms: N_9  and  C_11
REMARK    7  A    between atoms: C_19  and  C_22
REMARK    8  A    between atoms: C_23  and  C_25
REMARK    9  A    between atoms: C_26  and  C_28
REMARK   10  A    between atoms: C_27  and  C_29
REMARK                            x       y       z     vdW  Elec       q    Type
REMARK                         _______ _______ _______ _____ _____    ______ ____
ROOT
ATOM      1  O   UNL     1      -0.710 -10.924  15.364  0.00  0.00    -0.273 OA
ATOM      2  O   UNL     1      -5.817  -9.813  14.700  0.00  0.00    -0.270 OA
ATOM      8  N   UNL     1      -3.808 -10.835  14.245  0.00  0.00    -0.284 N 
ATOM     10  N   UNL     1      -2.441 -11.050  16.841  0.00  0.00    -0.283 N 
ATOM     11  C   UNL     1      -2.087 -12.061  13.184  0.00  0.00    +0.104 C 
ATOM     12  C   UNL     1      -2.786 -11.825  14.530  0.00  0.00    +0.183 C 
ATOM     13  C   UNL     1      -2.301 -10.745  12.434  0.00  0.00    +0.043 C 
ATOM     14  C   UNL     1      -3.678 -10.297  12.898  0.00  0.00    +0.111 C 
ATOM     15  C   UNL     1      -1.893 -11.197  15.584  0.00  0.00    +0.240 C 
ATOM     16  C   UNL     1      -4.887 -10.538  15.051  0.00  0.00    +0.249 C 
ATOM     17  C   UNL     1      -4.912 -11.105  16.424  0.00  0.00    +0.059 A 
ATOM     18  C   UNL     1      -3.779 -11.242  17.245  0.00  0.00    +0.046 A 
ATOM     20  C   UNL     1      -6.188 -11.353  16.960  0.00  0.00    +0.022 A 
ATOM     21  C   UNL     1      -3.961 -11.559  18.603  0.00  0.00    +0.024 A 
ATOM     23  C   UNL     1      -6.345 -11.713  18.298  0.00  0.00    -0.024 A 
ATOM     24  C   UNL     1      -5.231 -11.804  19.123  0.00  0.00    +0.010 A 
ATOM     37  H   UNL     1      -1.775 -10.857  17.587  0.00  0.00    +0.155 HD
ENDROOT
BRANCH  11   9
ATOM      3  O   UNL     1      -1.270 -14.841  13.257  0.00  0.00    -0.273 OA
ATOM      9  N   UNL     1      -2.689 -13.170  12.478  0.00  0.00    -0.308 N 
ATOM     19  C   UNL     1      -2.224 -14.472  12.576  0.00  0.00    +0.239 C 
ATOM     36  H   UNL     1      -3.521 -12.989  11.923  0.00  0.00    +0.149 HD
BRANCH  19  22
ATOM     22  C   UNL     1      -3.043 -15.423  11.732  0.00  0.00    +0.256 C 
BRANCH  22   4
ATOM      4  O   UNL     1      -2.443 -16.701  11.694  0.00  0.00    -0.359 OA
BRANCH   4  27
ATOM     27  C   UNL     1      -2.064 -17.071  10.372  0.00  0.00    +0.280 C 
BRANCH  27  29
ATOM      6  O   UNL     1       0.055 -17.019   9.184  0.00  0.00    -0.248 OA
ATOM     29  C   UNL     1      -0.568 -17.005  10.235  0.00  0.00    +0.331 C 
BRANCH  29   5
ATOM      5  O   UNL     1       0.012 -16.923  11.459  0.00  0.00    -0.479 OA
ATOM     38  H   UNL     1       0.823 -17.472  11.517  0.00  0.00    +0.295 HD
ENDBRANCH  29   5
ENDBRANCH  27  29
ENDBRANCH   4  27
ENDBRANCH  22   4
ENDBRANCH  19  22
ENDBRANCH  11   9
BRANCH  23  25
ATOM     25  C   UNL     1      -7.672 -11.968  18.836  0.00  0.00    +0.008 C 
ATOM     26  C   UNL     1      -8.546 -11.017  19.240  0.00  0.00    +0.008 C 
BRANCH  26  28
ATOM     28  C   UNL     1      -9.898 -11.274  19.768  0.00  0.00    -0.025 A 
ATOM     30  C   UNL     1     -10.254 -12.559  20.177  0.00  0.00    +0.011 A 
ATOM     31  C   UNL     1     -10.821 -10.232  19.858  0.00  0.00    +0.011 A 
ATOM     32  C   UNL     1     -11.534 -12.802  20.675  0.00  0.00    +0.046 A 
ATOM     33  C   UNL     1     -12.101 -10.475  20.357  0.00  0.00    +0.046 A 
ATOM     34  C   UNL     1     -12.457 -11.760  20.766  0.00  0.00    +0.120 A 
BRANCH  34   7
ATOM      7  O   UNL     1     -13.706 -11.997  21.252  0.00  0.00    -0.495 OA
ATOM     35  C   UNL     1     -13.833 -12.149  22.665  0.00  0.00    +0.277 C 
ENDBRANCH  34   7
ENDBRANCH  26  28
ENDBRANCH  23  25
TORSDOF 9
ENDMDL
MODEL 7
REMARK VINA RESULT:      -6.6     27.992     31.695
REMARK  Name = 11941516
REMARK  10 active torsions:
REMARK  status: ('A' for Active; 'I' for Inactive)
REMARK    1  A    between atoms: O_4  and  C_22
REMARK    2  A    between atoms: O_4  and  C_27
REMARK    3  A    between atoms: O_5  and  C_29
REMARK    4  A    between atoms: O_7  and  C_34
REMARK    5  A    between atoms: O_7  and  C_35
REMARK    6  A    between atoms: N_9  and  C_11
REMARK    7  A    between atoms: C_19  and  C_22
REMARK    8  A    between atoms: C_23  and  C_25
REMARK    9  A    between atoms: C_26  and  C_28
REMARK   10  A    between atoms: C_27  and  C_29
REMARK                            x       y       z     vdW  Elec       q    Type
REMARK                         _______ _______ _______ _____ _____    ______ ____
ROOT
ATOM      1  O   UNL     1      -6.050  -9.474  15.970  0.00  0.00    -0.273 OA
ATOM      2  O   UNL     1      -2.001 -10.279  12.697  0.00  0.00    -0.270 OA
ATOM      8  N   UNL     1      -3.420 -10.746  14.444  0.00  0.00    -0.284 N 
ATOM     10  N   UNL     1      -5.998  -9.542  13.694  0.00  0.00    -0.283 N 
ATOM     11  C   UNL     1      -4.381 -11.708  16.379  0.00  0.00    +0.104 C 
ATOM     12  C   UNL     1      -4.697 -11.200  14.966  0.00  0.00    +0.183 C 
ATOM     13  C   UNL     1      -3.143 -10.903  16.780  0.00  0.00    +0.043 C 
ATOM     14  C   UNL     1      -2.387 -10.746  15.469  0.00  0.00    +0.111 C 
ATOM     15  C   UNL     1      -5.604  -9.983  14.939  0.00  0.00    +0.240 C 
ATOM     16  C   UNL     1      -3.135 -10.502  13.117  0.00  0.00    +0.249 C 
ATOM     17  C   UNL     1      -4.263 -10.486  12.150  0.00  0.00    +0.059 A 
ATOM     18  C   UNL     1      -5.536  -9.957  12.426  0.00  0.00    +0.046 A 
ATOM     20  C   UNL     1      -3.949 -10.881  10.837  0.00  0.00    +0.022 A 
ATOM     21  C   UNL     1      -6.438  -9.775  11.364  0.00  0.00    +0.024 A 
ATOM     23  C   UNL     1      -4.875 -10.737   9.806  0.00  0.00    -0.024 A 
ATOM     24  C   UNL     1      -6.117 -10.171  10.067  0.00  0.00    +0.010 A 
ATOM     37  H   UNL     1      -6.781  -8.891  13.689  0.00  0.00    +0.155 HD
ENDROOT
BRANCH  11   9
ATOM      3  O   UNL     1      -6.298 -13.876  16.521  0.00  0.00    -0.273 OA
ATOM      9  N   UNL     1      -4.102 -13.126  16.367  0.00  0.00    -0.308 N 
ATOM     19  C   UNL     1      -5.092 -14.093  16.440  0.00  0.00    +0.239 C 
ATOM     36  H   UNL     1      -3.137 -13.423  16.251  0.00  0.00    +0.149 HD
BRANCH  19  22
ATOM     22  C   UNL     1      -4.513 -15.490  16.406  0.00  0.00    +0.256 C 
BRANCH  22   4
ATOM      4  O   UNL     1      -4.173 -15.858  15.086  0.00  0.00    -0.359 OA
BRANCH   4  27
ATOM     27  C   UNL     1      -2.802 -16.229  14.974  0.00  0.00    +0.280 C 
BRANCH  27  29
ATOM      6  O   UNL     1      -1.622 -15.614  12.941  0.00  0.00    -0.248 OA
ATOM     29  C   UNL     1      -2.100 -15.302  14.021  0.00  0.00    +0.331 C 
BRANCH  29   5
ATOM      5  O   UNL     1      -2.070 -14.043  14.528  0.00  0.00    -0.479 OA
ATOM     38  H   UNL     1      -2.674 -13.439  14.046  0.00  0.00    +0.295 HD
ENDBRANCH  29   5
ENDBRANCH  27  29
ENDBRANCH   4  27
ENDBRANCH  22   4
ENDBRANCH  19  22
ENDBRANCH  11   9
BRANCH  23  25
ATOM     25  C   UNL     1      -4.535 -11.153   8.454  0.00  0.00    +0.008 C 
ATOM     26  C   UNL     1      -5.411 -11.265   7.428  0.00  0.00    +0.008 C 
BRANCH  26  28
ATOM     28  C   UNL     1      -5.063 -11.669   6.054  0.00  0.00    -0.025 A 
ATOM     30  C   UNL     1      -3.783 -12.143   5.769  0.00  0.00    +0.011 A 
ATOM     31  C   UNL     1      -6.015 -11.577   5.038  0.00  0.00    +0.011 A 
ATOM     32  C   UNL     1      -3.453 -12.524   4.469  0.00  0.00    +0.046 A 
ATOM     33  C   UNL     1      -5.686 -11.959   3.738  0.00  0.00    +0.046 A 
ATOM     34  C   UNL     1      -4.405 -12.433   3.453  0.00  0.00    +0.120 A 
BRANCH  34   7
ATOM      7  O   UNL     1      -4.084 -12.805   2.184  0.00  0.00    -0.495 OA
ATOM     35  C   UNL     1      -2.753 -13.267   1.960  0.00  0.00    +0.277 C 
ENDBRANCH  34   7
ENDBRANCH  26  28
ENDBRANCH  23  25
TORSDOF 9
ENDMDL
MODEL 8
REMARK VINA RESULT:      -6.5     27.841     31.365
REMARK  Name = 11941516
REMARK  10 active torsions:
REMARK  status: ('A' for Active; 'I' for Inactive)
REMARK    1  A    between atoms: O_4  and  C_22
REMARK    2  A    between atoms: O_4  and  C_27
REMARK    3  A    between atoms: O_5  and  C_29
REMARK    4  A    between atoms: O_7  and  C_34
REMARK    5  A    between atoms: O_7  and  C_35
REMARK    6  A    between atoms: N_9  and  C_11
REMARK    7  A    between atoms: C_19  and  C_22
REMARK    8  A    between atoms: C_23  and  C_25
REMARK    9  A    between atoms: C_26  and  C_28
REMARK   10  A    between atoms: C_27  and  C_29
REMARK                            x       y       z     vdW  Elec       q    Type
REMARK                         _______ _______ _______ _____ _____    ______ ____
ROOT
ATOM      1  O   UNL     1      -1.951 -10.831  16.699  0.00  0.00    -0.273 OA
ATOM      2  O   UNL     1      -4.619 -13.629  13.120  0.00  0.00    -0.270 OA
ATOM      8  N   UNL     1      -4.339 -12.345  15.007  0.00  0.00    -0.284 N 
ATOM     10  N   UNL     1      -2.031 -10.613  14.432  0.00  0.00    -0.283 N 
ATOM     11  C   UNL     1      -4.715 -11.240  17.063  0.00  0.00    +0.104 C 
ATOM     12  C   UNL     1      -4.115 -11.069  15.661  0.00  0.00    +0.183 C 
ATOM     13  C   UNL     1      -4.616 -12.746  17.313  0.00  0.00    +0.043 C 
ATOM     14  C   UNL     1      -4.844 -13.346  15.935  0.00  0.00    +0.111 C 
ATOM     15  C   UNL     1      -2.611 -10.868  15.658  0.00  0.00    +0.240 C 
ATOM     16  C   UNL     1      -4.263 -12.577  13.650  0.00  0.00    +0.249 C 
ATOM     17  C   UNL     1      -3.698 -11.507  12.787  0.00  0.00    +0.059 A 
ATOM     18  C   UNL     1      -2.616 -10.686  13.150  0.00  0.00    +0.046 A 
ATOM     20  C   UNL     1      -4.193 -11.456  11.472  0.00  0.00    +0.022 A 
ATOM     21  C   UNL     1      -2.016  -9.882  12.165  0.00  0.00    +0.024 A 
ATOM     23  C   UNL     1      -3.615 -10.617  10.521  0.00  0.00    -0.024 A 
ATOM     24  C   UNL     1      -2.516  -9.838  10.865  0.00  0.00    +0.010 A 
ATOM     37  H   UNL     1      -1.081 -10.248  14.466  0.00  0.00    +0.155 HD
ENDROOT
BRANCH  11   9
ATOM      3  O   UNL     1      -6.227 -10.372  19.377  0.00  0.00    -0.273 OA
ATOM      9  N   UNL     1      -6.090 -10.795  17.094  0.00  0.00    -0.308 N 
ATOM     19  C   UNL     1      -6.730 -10.397  18.257  0.00  0.00    +0.239 C 
ATOM     36  H   UNL     1      -6.590 -10.725  16.213  0.00  0.00    +0.149 HD
BRANCH  19  22
ATOM     22  C   UNL     1      -8.161  -9.980  17.993  0.00  0.00    +0.256 C 
BRANCH  22   4
ATOM      4  O   UNL     1      -8.206  -8.711  17.377  0.00  0.00    -0.359 OA
BRANCH   4  27
ATOM     27  C   UNL     1      -9.283  -8.607  16.451  0.00  0.00    +0.280 C 
BRANCH  27  29
ATOM      6  O   UNL     1     -11.306  -8.511  17.794  0.00  0.00    -0.248 OA
ATOM     29  C   UNL     1     -10.462  -7.948  17.114  0.00  0.00    +0.331 C 
BRANCH  29   5
ATOM      5  O   UNL     1     -10.462  -6.616  16.853  0.00  0.00    -0.479 OA
ATOM     38  H   UNL     1      -9.559  -6.278  16.673  0.00  0.00    +0.295 HD
ENDBRANCH  29   5
ENDBRANCH  27  29
ENDBRANCH   4  27
ENDBRANCH  22   4
ENDBRANCH  19  22
ENDBRANCH  11   9
BRANCH  23  25
ATOM     25  C   UNL     1      -4.142 -10.574   9.166  0.00  0.00    +0.008 C 
ATOM     26  C   UNL     1      -4.425 -11.657   8.405  0.00  0.00    +0.008 C 
BRANCH  26  28
ATOM     28  C   UNL     1      -4.977 -11.615   7.039  0.00  0.00    -0.025 A 
ATOM     30  C   UNL     1      -4.794 -12.696   6.178  0.00  0.00    +0.011 A 
ATOM     31  C   UNL     1      -5.684 -10.491   6.608  0.00  0.00    +0.011 A 
ATOM     32  C   UNL     1      -5.316 -12.656   4.886  0.00  0.00    +0.046 A 
ATOM     33  C   UNL     1      -6.207 -10.450   5.316  0.00  0.00    +0.046 A 
ATOM     34  C   UNL     1      -6.023 -11.533   4.454  0.00  0.00    +0.120 A 
BRANCH  34   7
ATOM      7  O   UNL     1      -6.533 -11.493   3.193  0.00  0.00    -0.495 OA
ATOM     35  C   UNL     1      -6.233 -12.594   2.337  0.00  0.00    +0.277 C 
ENDBRANCH  34   7
ENDBRANCH  26  28
ENDBRANCH  23  25
TORSDOF 9
ENDMDL
MODEL 9
REMARK VINA RESULT:      -6.5     27.711     32.122
REMARK  Name = 11941516
REMARK  10 active torsions:
REMARK  status: ('A' for Active; 'I' for Inactive)
REMARK    1  A    between atoms: O_4  and  C_22
REMARK    2  A    between atoms: O_4  and  C_27
REMARK    3  A    between atoms: O_5  and  C_29
REMARK    4  A    between atoms: O_7  and  C_34
REMARK    5  A    between atoms: O_7  and  C_35
REMARK    6  A    between atoms: N_9  and  C_11
REMARK    7  A    between atoms: C_19  and  C_22
REMARK    8  A    between atoms: C_23  and  C_25
REMARK    9  A    between atoms: C_26  and  C_28
REMARK   10  A    between atoms: C_27  and  C_29
REMARK                            x       y       z     vdW  Elec       q    Type
REMARK                         _______ _______ _______ _____ _____    ______ ____
ROOT
ATOM      1  O   UNL     1      -0.638 -11.030  15.433  0.00  0.00    -0.273 OA
ATOM      2  O   UNL     1      -5.641  -9.822  14.304  0.00  0.00    -0.270 OA
ATOM      8  N   UNL     1      -3.631 -10.911  14.058  0.00  0.00    -0.284 N 
ATOM     10  N   UNL     1      -2.487 -11.052  16.764  0.00  0.00    -0.283 N 
ATOM     11  C   UNL     1      -1.863 -12.221  13.192  0.00  0.00    +0.104 C 
ATOM     12  C   UNL     1      -2.663 -11.913  14.465  0.00  0.00    +0.183 C 
ATOM     13  C   UNL     1      -1.979 -10.932  12.376  0.00  0.00    +0.043 C 
ATOM     14  C   UNL     1      -3.376 -10.432  12.707  0.00  0.00    +0.111 C 
ATOM     15  C   UNL     1      -1.842 -11.264  15.564  0.00  0.00    +0.240 C 
ATOM     16  C   UNL     1      -4.763 -10.554  14.759  0.00  0.00    +0.249 C 
ATOM     17  C   UNL     1      -4.916 -11.064  16.147  0.00  0.00    +0.059 A 
ATOM     18  C   UNL     1      -3.858 -11.195  17.064  0.00  0.00    +0.046 A 
ATOM     20  C   UNL     1      -6.238 -11.258  16.585  0.00  0.00    +0.022 A 
ATOM     21  C   UNL     1      -4.160 -11.452  18.413  0.00  0.00    +0.024 A 
ATOM     23  C   UNL     1      -6.514 -11.559  17.917  0.00  0.00    -0.024 A 
ATOM     24  C   UNL     1      -5.474 -11.643  18.835  0.00  0.00    +0.010 A 
ATOM     37  H   UNL     1      -1.879 -10.845  17.555  0.00  0.00    +0.155 HD
ENDROOT
BRANCH  11   9
ATOM      3  O   UNL     1      -1.139 -15.016  13.447  0.00  0.00    -0.273 OA
ATOM      9  N   UNL     1      -2.435 -13.343  12.482  0.00  0.00    -0.308 N 
ATOM     19  C   UNL     1      -2.020 -14.651  12.673  0.00  0.00    +0.239 C 
ATOM     36  H   UNL     1      -3.212 -13.164  11.851  0.00  0.00    +0.149 HD
BRANCH  19  22
ATOM     22  C   UNL     1      -2.793 -15.616  11.800  0.00  0.00    +0.256 C 
BRANCH  22   4
ATOM      4  O   UNL     1      -3.797 -16.270  12.546  0.00  0.00    -0.359 OA
BRANCH   4  27
ATOM     27  C   UNL     1      -5.098 -15.793  12.218  0.00  0.00    +0.280 C 
BRANCH  27  29
ATOM      6  O   UNL     1      -6.216 -15.489  14.354  0.00  0.00    -0.248 OA
ATOM     29  C   UNL     1      -5.662 -15.014  13.374  0.00  0.00    +0.331 C 
BRANCH  29   5
ATOM      5  O   UNL     1      -5.468 -13.685  13.182  0.00  0.00    -0.479 OA
ATOM     38  H   UNL     1      -6.035 -13.143  13.772  0.00  0.00    +0.295 HD
ENDBRANCH  29   5
ENDBRANCH  27  29
ENDBRANCH   4  27
ENDBRANCH  22   4
ENDBRANCH  19  22
ENDBRANCH  11   9
BRANCH  23  25
ATOM     25  C   UNL     1      -7.887 -11.760  18.353  0.00  0.00    +0.008 C 
ATOM     26  C   UNL     1      -8.455 -11.178  19.435  0.00  0.00    +0.008 C 
BRANCH  26  28
ATOM     28  C   UNL     1      -9.853 -11.366  19.866  0.00  0.00    -0.025 A 
ATOM     30  C   UNL     1     -10.739 -10.290  19.846  0.00  0.00    +0.011 A 
ATOM     31  C   UNL     1     -10.287 -12.621  20.291  0.00  0.00    +0.011 A 
ATOM     32  C   UNL     1     -12.061 -10.468  20.254  0.00  0.00    +0.046 A 
ATOM     33  C   UNL     1     -11.609 -12.800  20.698  0.00  0.00    +0.046 A 
ATOM     34  C   UNL     1     -12.497 -11.724  20.679  0.00  0.00    +0.120 A 
BRANCH  34   7
ATOM      7  O   UNL     1     -13.786 -11.898  21.077  0.00  0.00    -0.495 OA
ATOM     35  C   UNL     1     -14.735 -10.923  20.646  0.00  0.00    +0.277 C 
ENDBRANCH  34   7
ENDBRANCH  26  28
ENDBRANCH  23  25
TORSDOF 9
ENDMDL
MODEL 10
REMARK VINA RESULT:      -6.4     17.159     22.746
REMARK  Name = 11941516
REMARK  10 active torsions:
REMARK  status: ('A' for Active; 'I' for Inactive)
REMARK    1  A    between atoms: O_4  and  C_22
REMARK    2  A    between atoms: O_4  and  C_27
REMARK    3  A    between atoms: O_5  and  C_29
REMARK    4  A    between atoms: O_7  and  C_34
REMARK    5  A    between atoms: O_7  and  C_35
REMARK    6  A    between atoms: N_9  and  C_11
REMARK    7  A    between atoms: C_19  and  C_22
REMARK    8  A    between atoms: C_23  and  C_25
REMARK    9  A    between atoms: C_26  and  C_28
REMARK   10  A    between atoms: C_27  and  C_29
REMARK                            x       y       z     vdW  Elec       q    Type
REMARK                         _______ _______ _______ _____ _____    ______ ____
ROOT
ATOM      1  O   UNL     1       5.882  12.140  -2.123  0.00  0.00    -0.273 OA
ATOM      2  O   UNL     1       3.798   9.910   2.171  0.00  0.00    -0.270 OA
ATOM      8  N   UNL     1       4.295  10.114  -0.064  0.00  0.00    -0.284 N 
ATOM     10  N   UNL     1       6.869  11.535  -0.161  0.00  0.00    -0.283 N 
ATOM     11  C   UNL     1       4.323   9.810  -2.409  0.00  0.00    +0.104 C 
ATOM     12  C   UNL     1       5.219  10.021  -1.181  0.00  0.00    +0.183 C 
ATOM     13  C   UNL     1       2.999  10.460  -2.002  0.00  0.00    +0.043 C 
ATOM     14  C   UNL     1       2.911  10.175  -0.511  0.00  0.00    +0.111 C 
ATOM     15  C   UNL     1       5.977  11.335  -1.193  0.00  0.00    +0.240 C 
ATOM     16  C   UNL     1       4.629   9.989   1.268  0.00  0.00    +0.249 C 
ATOM     17  C   UNL     1       6.071   9.973   1.629  0.00  0.00    +0.059 A 
ATOM     18  C   UNL     1       7.052  10.764   1.007  0.00  0.00    +0.046 A 
ATOM     20  C   UNL     1       6.405   9.235   2.779  0.00  0.00    +0.022 A 
ATOM     21  C   UNL     1       8.328  10.845   1.593  0.00  0.00    +0.024 A 
ATOM     23  C   UNL     1       7.689   9.292   3.318  0.00  0.00    -0.024 A 
ATOM     24  C   UNL     1       8.648  10.109   2.731  0.00  0.00    +0.010 A 
ATOM     37  H   UNL     1       7.536  12.292  -0.301  0.00  0.00    +0.155 HD
ENDROOT
BRANCH  11   9
ATOM      3  O   UNL     1       4.505   8.492  -4.983  0.00  0.00    -0.273 OA
ATOM      9  N   UNL     1       4.150   8.402  -2.686  0.00  0.00    -0.308 N 
ATOM     19  C   UNL     1       4.257   7.862  -3.958  0.00  0.00    +0.239 C 
ATOM     36  H   UNL     1       3.992   7.776  -1.901  0.00  0.00    +0.149 HD
BRANCH  19  22
ATOM     22  C   UNL     1       4.031   6.366  -3.951  0.00  0.00    +0.256 C 
BRANCH  22   4
ATOM      4  O   UNL     1       3.187   5.984  -5.016  0.00  0.00    -0.359 OA
BRANCH   4  27
ATOM     27  C   UNL     1       2.724   4.644  -4.874  0.00  0.00    +0.280 C 
BRANCH  27  29
ATOM      6  O   UNL     1       0.808   4.029  -3.513  0.00  0.00    -0.248 OA
ATOM     29  C   UNL     1       1.280   4.646  -4.455  0.00  0.00    +0.331 C 
BRANCH  29   5
ATOM      5  O   UNL     1       0.555   5.445  -5.279  0.00  0.00    -0.479 OA
ATOM     38  H   UNL     1       0.873   6.373  -5.263  0.00  0.00    +0.295 HD
ENDBRANCH  29   5
ENDBRANCH  27  29
ENDBRANCH   4  27
ENDBRANCH  22   4
ENDBRANCH  19  22
ENDBRANCH  11   9
BRANCH  23  25
ATOM     25  C   UNL     1       8.018   8.520   4.506  0.00  0.00    +0.008 C 
ATOM     26  C   UNL     1       8.593   7.294   4.506  0.00  0.00    +0.008 C 
BRANCH  26  28
ATOM     28  C   UNL     1       8.944   6.520   5.710  0.00  0.00    -0.025 A 
ATOM     30  C   UNL     1       9.391   5.205   5.588  0.00  0.00    +0.011 A 
ATOM     31  C   UNL     1       8.830   7.105   6.972  0.00  0.00    +0.011 A 
ATOM     32  C   UNL     1       9.723   4.473   6.728  0.00  0.00    +0.046 A 
ATOM     33  C   UNL     1       9.162   6.373   8.112  0.00  0.00    +0.046 A 
ATOM     34  C   UNL     1       9.609   5.057   7.990  0.00  0.00    +0.120 A 
BRANCH  34   7
ATOM      7  O   UNL     1       9.933   4.343   9.102  0.00  0.00    -0.495 OA
ATOM     35  C   UNL     1       9.120   4.538  10.258  0.00  0.00    +0.277 C 
ENDBRANCH  34   7
ENDBRANCH  26  28
ENDBRANCH  23  25
TORSDOF 9
ENDMDL
