MODEL 1
REMARK VINA RESULT:      -7.3      0.000      0.000
REMARK  Name = 71693333
REMARK  9 active torsions:
REMARK  status: ('A' for Active; 'I' for Inactive)
REMARK    1  A    between atoms: O_2  and  C_17
REMARK    2  A    between atoms: N_5  and  C_13
REMARK    3  A    between atoms: N_6  and  C_20
REMARK    4  A    between atoms: C_7  and  C_14
REMARK    5  A    between atoms: C_11  and  C_17
REMARK    6  A    between atoms: C_12  and  C_16
REMARK    7  A    between atoms: C_13  and  C_15
REMARK    8  A    between atoms: C_15  and  C_23
REMARK    9  A    between atoms: C_15  and  C_24
REMARK                            x       y       z     vdW  Elec       q    Type
REMARK                         _______ _______ _______ _____ _____    ______ ____
ROOT
ATOM      1  O   UNL     1      15.225   7.081  18.188  0.00  0.00    -0.361 OA
ATOM      4  O   UNL     1      11.705   7.361  17.713  0.00  0.00    -0.273 OA
ATOM      5  N   UNL     1      12.911   7.295  19.706  0.00  0.00    -0.291 N 
ATOM     11  C   UNL     1      14.229   7.156  20.373  0.00  0.00    +0.135 C 
ATOM     12  C   UNL     1      15.366   7.683  19.476  0.00  0.00    +0.171 C 
ATOM     18  C   UNL     1      12.779   7.371  18.319  0.00  0.00    +0.242 C 
ATOM     19  C   UNL     1      14.068   7.550  17.541  0.00  0.00    +0.256 C 
ENDROOT
BRANCH  12  16
ATOM     16  C   UNL     1      16.756   7.347  19.973  0.00  0.00    -0.017 A 
ATOM     20  C   UNL     1      19.318   6.727  20.888  0.00  0.00    +0.033 A 
ATOM     21  C   UNL     1      17.347   6.131  19.625  0.00  0.00    +0.008 A 
ATOM     22  C   UNL     1      17.448   8.252  20.777  0.00  0.00    +0.008 A 
ATOM     25  C   UNL     1      18.627   5.821  20.083  0.00  0.00    +0.023 A 
ATOM     26  C   UNL     1      18.728   7.942  21.235  0.00  0.00    +0.023 A 
BRANCH  20   6
ATOM      3  O   UNL     1      20.290   6.162  23.657  0.00  0.00    -0.275 OA
ATOM      6  N   UNL     1      20.599   6.418  21.347  0.00  0.00    -0.285 N 
ATOM     14  C   UNL     1      21.017   6.156  22.660  0.00  0.00    +0.220 C 
ATOM     27  H   UNL     1      21.318   6.378  20.629  0.00  0.00    +0.155 HD
BRANCH  14   7
ATOM      7  C   UNL     1      22.515   5.855  22.765  0.00  0.00    +0.075 C 
ATOM      8  C   UNL     1      22.943   4.520  23.428  0.00  0.00    +0.013 C 
ATOM      9  C   UNL     1      23.234   5.345  21.489  0.00  0.00    +0.013 C 
ATOM     10  C   UNL     1      24.092   4.454  22.405  0.00  0.00    +0.001 C 
ENDBRANCH  14   7
ENDBRANCH  20   6
ENDBRANCH  12  16
BRANCH   5  13
ATOM     13  C   UNL     1      11.709   7.105  20.513  0.00  0.00    +0.111 C 
BRANCH  13  15
ATOM     15  C   UNL     1      10.957   8.417  20.757  0.00  0.00    +0.000 C 
ATOM     23  C   UNL     1      10.560   8.576  22.226  0.00  0.00    +0.009 C 
ATOM     24  C   UNL     1      11.816   9.603  20.317  0.00  0.00    +0.009 C 
ENDBRANCH  13  15
ENDBRANCH   5  13
BRANCH  11  17
ATOM     17  C   UNL     1      14.268   7.836  21.749  0.00  0.00    +0.181 C 
BRANCH  17   2
ATOM      2  O   UNL     1      14.910   6.962  22.655  0.00  0.00    -0.393 OA
ATOM     28  H   UNL     1      14.272   6.758  23.359  0.00  0.00    +0.209 HD
ENDBRANCH  17   2
ENDBRANCH  11  17
TORSDOF 7
ENDMDL
MODEL 2
REMARK VINA RESULT:      -7.3      1.925      2.663
REMARK  Name = 71693333
REMARK  9 active torsions:
REMARK  status: ('A' for Active; 'I' for Inactive)
REMARK    1  A    between atoms: O_2  and  C_17
REMARK    2  A    between atoms: N_5  and  C_13
REMARK    3  A    between atoms: N_6  and  C_20
REMARK    4  A    between atoms: C_7  and  C_14
REMARK    5  A    between atoms: C_11  and  C_17
REMARK    6  A    between atoms: C_12  and  C_16
REMARK    7  A    between atoms: C_13  and  C_15
REMARK    8  A    between atoms: C_15  and  C_23
REMARK    9  A    between atoms: C_15  and  C_24
REMARK                            x       y       z     vdW  Elec       q    Type
REMARK                         _______ _______ _______ _____ _____    ______ ____
ROOT
ATOM      1  O   UNL     1      13.549   6.602  20.562  0.00  0.00    -0.361 OA
ATOM      4  O   UNL     1      10.577   8.568  20.544  0.00  0.00    -0.273 OA
ATOM      5  N   UNL     1      12.776   9.238  20.161  0.00  0.00    -0.291 N 
ATOM     11  C   UNL     1      14.211   8.866  20.105  0.00  0.00    +0.135 C 
ATOM     12  C   UNL     1      14.388   7.386  19.712  0.00  0.00    +0.171 C 
ATOM     18  C   UNL     1      11.767   8.297  20.365  0.00  0.00    +0.242 C 
ATOM     19  C   UNL     1      12.191   6.843  20.283  0.00  0.00    +0.256 C 
ENDROOT
BRANCH  12  16
ATOM     16  C   UNL     1      15.799   6.863  19.878  0.00  0.00    -0.017 A 
ATOM     20  C   UNL     1      18.398   5.896  20.184  0.00  0.00    +0.033 A 
ATOM     21  C   UNL     1      16.414   6.170  18.834  0.00  0.00    +0.008 A 
ATOM     22  C   UNL     1      16.486   7.072  21.074  0.00  0.00    +0.008 A 
ATOM     25  C   UNL     1      17.713   5.687  18.987  0.00  0.00    +0.023 A 
ATOM     26  C   UNL     1      17.785   6.589  21.227  0.00  0.00    +0.023 A 
BRANCH  20   6
ATOM      3  O   UNL     1      20.978   7.372  20.497  0.00  0.00    -0.275 OA
ATOM      6  N   UNL     1      19.699   5.414  20.337  0.00  0.00    -0.285 N 
ATOM     14  C   UNL     1      20.889   6.141  20.484  0.00  0.00    +0.220 C 
ATOM     27  H   UNL     1      19.787   4.400  20.345  0.00  0.00    +0.155 HD
BRANCH  14   7
ATOM      7  C   UNL     1      22.125   5.249  20.628  0.00  0.00    +0.075 C 
ATOM      8  C   UNL     1      23.003   5.422  21.895  0.00  0.00    +0.013 C 
ATOM      9  C   UNL     1      21.902   3.786  21.094  0.00  0.00    +0.013 C 
ATOM     10  C   UNL     1      23.228   3.899  21.869  0.00  0.00    +0.001 C 
ENDBRANCH  14   7
ENDBRANCH  20   6
ENDBRANCH  12  16
BRANCH   5  13
ATOM     13  C   UNL     1      12.437  10.656  20.244  0.00  0.00    +0.111 C 
BRANCH  13  15
ATOM     15  C   UNL     1      12.397  11.162  21.690  0.00  0.00    +0.000 C 
ATOM     23  C   UNL     1      13.714  11.827  22.093  0.00  0.00    +0.009 C 
ATOM     24  C   UNL     1      11.239  12.144  21.870  0.00  0.00    +0.009 C 
ENDBRANCH  13  15
ENDBRANCH   5  13
BRANCH  11  17
ATOM     17  C   UNL     1      15.019   9.774  19.166  0.00  0.00    +0.181 C 
BRANCH  17   2
ATOM      2  O   UNL     1      14.671   9.451  17.834  0.00  0.00    -0.393 OA
ATOM     28  H   UNL     1      13.804   9.014  17.862  0.00  0.00    +0.209 HD
ENDBRANCH  17   2
ENDBRANCH  11  17
TORSDOF 7
ENDMDL
MODEL 3
REMARK VINA RESULT:      -6.8      1.809      9.270
REMARK  Name = 71693333
REMARK  9 active torsions:
REMARK  status: ('A' for Active; 'I' for Inactive)
REMARK    1  A    between atoms: O_2  and  C_17
REMARK    2  A    between atoms: N_5  and  C_13
REMARK    3  A    between atoms: N_6  and  C_20
REMARK    4  A    between atoms: C_7  and  C_14
REMARK    5  A    between atoms: C_11  and  C_17
REMARK    6  A    between atoms: C_12  and  C_16
REMARK    7  A    between atoms: C_13  and  C_15
REMARK    8  A    between atoms: C_15  and  C_23
REMARK    9  A    between atoms: C_15  and  C_24
REMARK                            x       y       z     vdW  Elec       q    Type
REMARK                         _______ _______ _______ _____ _____    ______ ____
ROOT
ATOM      1  O   UNL     1      19.901   6.679  23.648  0.00  0.00    -0.361 OA
ATOM      4  O   UNL     1      22.974   5.548  25.053  0.00  0.00    -0.273 OA
ATOM      5  N   UNL     1      22.263   5.468  22.835  0.00  0.00    -0.291 N 
ATOM     11  C   UNL     1      21.183   5.731  21.852  0.00  0.00    +0.135 C 
ATOM     12  C   UNL     1      20.300   6.913  22.297  0.00  0.00    +0.171 C 
ATOM     18  C   UNL     1      22.165   5.852  24.173  0.00  0.00    +0.242 C 
ATOM     19  C   UNL     1      21.005   6.765  24.517  0.00  0.00    +0.256 C 
ENDROOT
BRANCH  12  16
ATOM     16  C   UNL     1      19.033   7.083  21.484  0.00  0.00    -0.017 A 
ATOM     20  C   UNL     1      16.699   7.396  19.989  0.00  0.00    +0.033 A 
ATOM     21  C   UNL     1      18.312   8.275  21.557  0.00  0.00    +0.008 A 
ATOM     22  C   UNL     1      18.586   6.048  20.662  0.00  0.00    +0.008 A 
ATOM     25  C   UNL     1      17.145   8.432  20.810  0.00  0.00    +0.023 A 
ATOM     26  C   UNL     1      17.419   6.205  19.915  0.00  0.00    +0.023 A 
BRANCH  20   6
ATOM      3  O   UNL     1      13.879   6.649  20.637  0.00  0.00    -0.275 OA
ATOM      6  N   UNL     1      15.531   7.552  19.240  0.00  0.00    -0.285 N 
ATOM     14  C   UNL     1      14.220   7.189  19.581  0.00  0.00    +0.220 C 
ATOM     27  H   UNL     1      15.655   7.989  18.330  0.00  0.00    +0.155 HD
BRANCH  14   7
ATOM      7  C   UNL     1      13.200   7.525  18.490  0.00  0.00    +0.075 C 
ATOM      8  C   UNL     1      12.137   8.611  18.797  0.00  0.00    +0.013 C 
ATOM      9  C   UNL     1      13.668   8.442  17.330  0.00  0.00    +0.013 C 
ATOM     10  C   UNL     1      12.255   9.052  17.326  0.00  0.00    +0.001 C 
ENDBRANCH  14   7
ENDBRANCH  20   6
ENDBRANCH  12  16
BRANCH   5  13
ATOM     13  C   UNL     1      23.348   4.574  22.441  0.00  0.00    +0.111 C 
BRANCH  13  15
ATOM     15  C   UNL     1      22.893   3.115  22.341  0.00  0.00    +0.000 C 
ATOM     23  C   UNL     1      23.481   2.423  21.110  0.00  0.00    +0.009 C 
ATOM     24  C   UNL     1      23.290   2.354  23.607  0.00  0.00    +0.009 C 
ENDBRANCH  13  15
ENDBRANCH   5  13
BRANCH  11  17
ATOM     17  C   UNL     1      21.723   5.965  20.433  0.00  0.00    +0.181 C 
BRANCH  17   2
ATOM      2  O   UNL     1      21.400   4.835  19.647  0.00  0.00    -0.393 OA
ATOM     28  H   UNL     1      21.668   5.034  18.734  0.00  0.00    +0.209 HD
ENDBRANCH  17   2
ENDBRANCH  11  17
TORSDOF 7
ENDMDL
MODEL 4
REMARK VINA RESULT:      -6.8      2.483      3.521
REMARK  Name = 71693333
REMARK  9 active torsions:
REMARK  status: ('A' for Active; 'I' for Inactive)
REMARK    1  A    between atoms: O_2  and  C_17
REMARK    2  A    between atoms: N_5  and  C_13
REMARK    3  A    between atoms: N_6  and  C_20
REMARK    4  A    between atoms: C_7  and  C_14
REMARK    5  A    between atoms: C_11  and  C_17
REMARK    6  A    between atoms: C_12  and  C_16
REMARK    7  A    between atoms: C_13  and  C_15
REMARK    8  A    between atoms: C_15  and  C_23
REMARK    9  A    between atoms: C_15  and  C_24
REMARK                            x       y       z     vdW  Elec       q    Type
REMARK                         _______ _______ _______ _____ _____    ______ ____
ROOT
ATOM      1  O   UNL     1      18.173   9.354  20.876  0.00  0.00    -0.361 OA
ATOM      4  O   UNL     1      15.243  11.361  20.589  0.00  0.00    -0.273 OA
ATOM      5  N   UNL     1      15.462   9.052  20.362  0.00  0.00    -0.291 N 
ATOM     11  C   UNL     1      16.360   7.872  20.342  0.00  0.00    +0.135 C 
ATOM     12  C   UNL     1      17.596   8.097  21.233  0.00  0.00    +0.171 C 
ATOM     18  C   UNL     1      15.917  10.333  20.680  0.00  0.00    +0.242 C 
ATOM     19  C   UNL     1      17.323  10.415  21.240  0.00  0.00    +0.256 C 
ENDROOT
BRANCH  12  16
ATOM     16  C   UNL     1      18.679   7.051  21.071  0.00  0.00    -0.017 A 
ATOM     20  C   UNL     1      20.672   5.122  20.771  0.00  0.00    +0.033 A 
ATOM     21  C   UNL     1      18.529   6.032  20.128  0.00  0.00    +0.008 A 
ATOM     22  C   UNL     1      19.827   7.104  21.862  0.00  0.00    +0.008 A 
ATOM     25  C   UNL     1      19.525   5.068  19.979  0.00  0.00    +0.023 A 
ATOM     26  C   UNL     1      20.823   6.140  21.712  0.00  0.00    +0.023 A 
BRANCH  20   6
ATOM      3  O   UNL     1      21.866   3.257  22.777  0.00  0.00    -0.275 OA
ATOM      6  N   UNL     1      21.670   4.158  20.622  0.00  0.00    -0.285 N 
ATOM     14  C   UNL     1      22.205   3.297  21.591  0.00  0.00    +0.220 C 
ATOM     27  H   UNL     1      22.055   4.074  19.684  0.00  0.00    +0.155 HD
BRANCH  14   7
ATOM      7  C   UNL     1      23.294   2.373  21.039  0.00  0.00    +0.075 C 
ATOM      8  C   UNL     1      24.649   3.008  20.633  0.00  0.00    +0.013 C 
ATOM      9  C   UNL     1      24.101   1.528  22.059  0.00  0.00    +0.013 C 
ATOM     10  C   UNL     1      25.332   1.732  21.157  0.00  0.00    +0.001 C 
ENDBRANCH  14   7
ENDBRANCH  20   6
ENDBRANCH  12  16
BRANCH   5  13
ATOM     13  C   UNL     1      14.122   8.906  19.801  0.00  0.00    +0.111 C 
BRANCH  13  15
ATOM     15  C   UNL     1      14.113   9.026  18.273  0.00  0.00    +0.000 C 
ATOM     23  C   UNL     1      13.789   7.689  17.604  0.00  0.00    +0.009 C 
ATOM     24  C   UNL     1      13.103  10.087  17.836  0.00  0.00    +0.009 C 
ENDBRANCH  13  15
ENDBRANCH   5  13
BRANCH  11  17
ATOM     17  C   UNL     1      15.637   6.575  20.739  0.00  0.00    +0.181 C 
BRANCH  17   2
ATOM      2  O   UNL     1      15.442   6.591  22.138  0.00  0.00    -0.393 OA
ATOM     28  H   UNL     1      14.503   6.395  22.299  0.00  0.00    +0.209 HD
ENDBRANCH  17   2
ENDBRANCH  11  17
TORSDOF 7
ENDMDL
MODEL 5
REMARK VINA RESULT:      -6.6     26.686     30.201
REMARK  Name = 71693333
REMARK  9 active torsions:
REMARK  status: ('A' for Active; 'I' for Inactive)
REMARK    1  A    between atoms: O_2  and  C_17
REMARK    2  A    between atoms: N_5  and  C_13
REMARK    3  A    between atoms: N_6  and  C_20
REMARK    4  A    between atoms: C_7  and  C_14
REMARK    5  A    between atoms: C_11  and  C_17
REMARK    6  A    between atoms: C_12  and  C_16
REMARK    7  A    between atoms: C_13  and  C_15
REMARK    8  A    between atoms: C_15  and  C_23
REMARK    9  A    between atoms: C_15  and  C_24
REMARK                            x       y       z     vdW  Elec       q    Type
REMARK                         _______ _______ _______ _____ _____    ______ ____
ROOT
ATOM      1  O   UNL     1      -2.319 -10.069  12.971  0.00  0.00    -0.361 OA
ATOM      4  O   UNL     1      -1.913 -10.870  16.419  0.00  0.00    -0.273 OA
ATOM      5  N   UNL     1      -3.766 -11.211  15.047  0.00  0.00    -0.291 N 
ATOM     11  C   UNL     1      -4.389 -11.037  13.712  0.00  0.00    +0.135 C 
ATOM     12  C   UNL     1      -3.324 -11.012  12.598  0.00  0.00    +0.171 C 
ATOM     18  C   UNL     1      -2.439 -10.862  15.304  0.00  0.00    +0.242 C 
ATOM     19  C   UNL     1      -1.597 -10.524  14.090  0.00  0.00    +0.256 C 
ENDROOT
BRANCH  12  16
ATOM     16  C   UNL     1      -3.850 -10.587  11.243  0.00  0.00    -0.017 A 
ATOM     20  C   UNL     1      -4.818  -9.804   8.747  0.00  0.00    +0.033 A 
ATOM     21  C   UNL     1      -3.895 -11.505  10.193  0.00  0.00    +0.008 A 
ATOM     22  C   UNL     1      -4.290  -9.279  11.044  0.00  0.00    +0.008 A 
ATOM     25  C   UNL     1      -4.379 -11.114   8.945  0.00  0.00    +0.023 A 
ATOM     26  C   UNL     1      -4.774  -8.888   9.796  0.00  0.00    +0.023 A 
BRANCH  20   6
ATOM      3  O   UNL     1      -7.561 -10.035   7.583  0.00  0.00    -0.275 OA
ATOM      6  N   UNL     1      -5.303  -9.412   7.498  0.00  0.00    -0.285 N 
ATOM     14  C   UNL     1      -6.603  -9.536   6.987  0.00  0.00    +0.220 C 
ATOM     27  H   UNL     1      -4.617  -8.979   6.884  0.00  0.00    +0.155 HD
BRANCH  14   7
ATOM      7  C   UNL     1      -6.746  -8.984   5.566  0.00  0.00    +0.075 C 
ATOM      8  C   UNL     1      -7.343  -9.917   4.480  0.00  0.00    +0.013 C 
ATOM      9  C   UNL     1      -7.942  -8.039   5.282  0.00  0.00    +0.013 C 
ATOM     10  C   UNL     1      -8.029  -8.675   3.882  0.00  0.00    +0.001 C 
ENDBRANCH  14   7
ENDBRANCH  20   6
ENDBRANCH  12  16
BRANCH   5  13
ATOM     13  C   UNL     1      -4.636 -11.531  16.175  0.00  0.00    +0.111 C 
BRANCH  13  15
ATOM     15  C   UNL     1      -5.036 -10.287  16.974  0.00  0.00    +0.000 C 
ATOM     23  C   UNL     1      -6.324  -9.661  16.437  0.00  0.00    +0.009 C 
ATOM     24  C   UNL     1      -5.205 -10.644  18.451  0.00  0.00    +0.009 C 
ENDBRANCH  13  15
ENDBRANCH   5  13
BRANCH  11  17
ATOM     17  C   UNL     1      -5.455 -12.102  13.416  0.00  0.00    +0.181 C 
BRANCH  17   2
ATOM      2  O   UNL     1      -6.690 -11.444  13.215  0.00  0.00    -0.393 OA
ATOM     28  H   UNL     1      -6.605 -10.552  13.591  0.00  0.00    +0.209 HD
ENDBRANCH  17   2
ENDBRANCH  11  17
TORSDOF 7
ENDMDL
MODEL 6
REMARK VINA RESULT:      -6.5     21.946     26.952
REMARK  Name = 71693333
REMARK  9 active torsions:
REMARK  status: ('A' for Active; 'I' for Inactive)
REMARK    1  A    between atoms: O_2  and  C_17
REMARK    2  A    between atoms: N_5  and  C_13
REMARK    3  A    between atoms: N_6  and  C_20
REMARK    4  A    between atoms: C_7  and  C_14
REMARK    5  A    between atoms: C_11  and  C_17
REMARK    6  A    between atoms: C_12  and  C_16
REMARK    7  A    between atoms: C_13  and  C_15
REMARK    8  A    between atoms: C_15  and  C_23
REMARK    9  A    between atoms: C_15  and  C_24
REMARK                            x       y       z     vdW  Elec       q    Type
REMARK                         _______ _______ _______ _____ _____    ______ ____
ROOT
ATOM      1  O   UNL     1      -1.601   9.569   3.236  0.00  0.00    -0.361 OA
ATOM      4  O   UNL     1       1.046  11.923   3.621  0.00  0.00    -0.273 OA
ATOM      5  N   UNL     1      -0.635  11.352   5.131  0.00  0.00    -0.291 N 
ATOM     11  C   UNL     1      -1.859  10.561   5.408  0.00  0.00    +0.135 C 
ATOM     12  C   UNL     1      -1.869   9.248   4.601  0.00  0.00    +0.171 C 
ATOM     18  C   UNL     1       0.099  11.206   3.953  0.00  0.00    +0.242 C 
ATOM     19  C   UNL     1      -0.279  10.026   3.079  0.00  0.00    +0.256 C 
ENDROOT
BRANCH  12  16
ATOM     16  C   UNL     1      -3.190   8.509   4.632  0.00  0.00    -0.017 A 
ATOM     20  C   UNL     1      -5.623   7.146   4.687  0.00  0.00    +0.033 A 
ATOM     21  C   UNL     1      -3.275   7.256   5.240  0.00  0.00    +0.008 A 
ATOM     22  C   UNL     1      -4.323   9.079   4.052  0.00  0.00    +0.008 A 
ATOM     25  C   UNL     1      -4.491   6.574   5.268  0.00  0.00    +0.023 A 
ATOM     26  C   UNL     1      -5.539   8.398   4.080  0.00  0.00    +0.023 A 
BRANCH  20   6
ATOM      3  O   UNL     1      -8.135   7.745   6.191  0.00  0.00    -0.275 OA
ATOM      6  N   UNL     1      -6.841   6.464   4.714  0.00  0.00    -0.285 N 
ATOM     14  C   UNL     1      -8.003   6.780   5.435  0.00  0.00    +0.220 C 
ATOM     27  H   UNL     1      -6.885   5.632   4.132  0.00  0.00    +0.155 HD
BRANCH  14   7
ATOM      7  C   UNL     1      -9.142   5.784   5.203  0.00  0.00    +0.075 C 
ATOM      8  C   UNL     1     -10.469   6.324   4.606  0.00  0.00    +0.013 C 
ATOM      9  C   UNL     1      -9.056   4.875   3.949  0.00  0.00    +0.013 C 
ATOM     10  C   UNL     1     -10.586   4.997   3.833  0.00  0.00    +0.001 C 
ENDBRANCH  14   7
ENDBRANCH  20   6
ENDBRANCH  12  16
BRANCH   5  13
ATOM     13  C   UNL     1      -0.332  12.479   6.009  0.00  0.00    +0.111 C 
BRANCH  13  15
ATOM     15  C   UNL     1       0.887  12.213   6.899  0.00  0.00    +0.000 C 
ATOM     23  C   UNL     1       2.040  13.166   6.577  0.00  0.00    +0.009 C 
ATOM     24  C   UNL     1       0.498  12.343   8.372  0.00  0.00    +0.009 C 
ENDBRANCH  13  15
ENDBRANCH   5  13
BRANCH  11  17
ATOM     17  C   UNL     1      -2.051  10.277   6.905  0.00  0.00    +0.181 C 
BRANCH  17   2
ATOM      2  O   UNL     1      -1.066   9.345   7.306  0.00  0.00    -0.393 OA
ATOM     28  H   UNL     1      -0.725   8.923   6.499  0.00  0.00    +0.209 HD
ENDBRANCH  17   2
ENDBRANCH  11  17
TORSDOF 7
ENDMDL
MODEL 7
REMARK VINA RESULT:      -6.3     28.914     32.794
REMARK  Name = 71693333
REMARK  9 active torsions:
REMARK  status: ('A' for Active; 'I' for Inactive)
REMARK    1  A    between atoms: O_2  and  C_17
REMARK    2  A    between atoms: N_5  and  C_13
REMARK    3  A    between atoms: N_6  and  C_20
REMARK    4  A    between atoms: C_7  and  C_14
REMARK    5  A    between atoms: C_11  and  C_17
REMARK    6  A    between atoms: C_12  and  C_16
REMARK    7  A    between atoms: C_13  and  C_15
REMARK    8  A    between atoms: C_15  and  C_23
REMARK    9  A    between atoms: C_15  and  C_24
REMARK                            x       y       z     vdW  Elec       q    Type
REMARK                         _______ _______ _______ _____ _____    ______ ____
ROOT
ATOM      1  O   UNL     1     -11.030  -9.922  18.777  0.00  0.00    -0.361 OA
ATOM      4  O   UNL     1      -8.550 -12.079  20.152  0.00  0.00    -0.273 OA
ATOM      5  N   UNL     1      -8.443 -10.767  18.229  0.00  0.00    -0.291 N 
ATOM     11  C   UNL     1      -9.135  -9.836  17.304  0.00  0.00    +0.135 C 
ATOM     12  C   UNL     1     -10.210  -9.014  18.040  0.00  0.00    +0.171 C 
ATOM     18  C   UNL     1      -9.028 -11.213  19.415  0.00  0.00    +0.242 C 
ATOM     19  C   UNL     1     -10.305 -10.510  19.830  0.00  0.00    +0.256 C 
ENDROOT
BRANCH  12  16
ATOM     16  C   UNL     1     -11.128  -8.230  17.126  0.00  0.00    -0.017 A 
ATOM     20  C   UNL     1     -12.818  -6.787  15.440  0.00  0.00    +0.033 A 
ATOM     21  C   UNL     1     -12.228  -8.856  16.538  0.00  0.00    +0.008 A 
ATOM     22  C   UNL     1     -10.874  -6.883  16.870  0.00  0.00    +0.008 A 
ATOM     25  C   UNL     1     -13.073  -8.134  15.695  0.00  0.00    +0.023 A 
ATOM     26  C   UNL     1     -11.719  -6.161  16.027  0.00  0.00    +0.023 A 
BRANCH  20   6
ATOM      3  O   UNL     1     -12.490  -6.030  12.568  0.00  0.00    -0.275 OA
ATOM      6  N   UNL     1     -13.664  -6.064  14.597  0.00  0.00    -0.285 N 
ATOM     14  C   UNL     1     -13.474  -5.730  13.248  0.00  0.00    +0.220 C 
ATOM     27  H   UNL     1     -14.529  -5.742  15.023  0.00  0.00    +0.155 HD
BRANCH  14   7
ATOM      7  C   UNL     1     -14.634  -4.921  12.661  0.00  0.00    +0.075 C 
ATOM      8  C   UNL     1     -14.673  -3.396  12.941  0.00  0.00    +0.013 C 
ATOM      9  C   UNL     1     -14.560  -4.550  11.157  0.00  0.00    +0.013 C 
ATOM     10  C   UNL     1     -15.234  -3.213  11.518  0.00  0.00    +0.001 C 
ENDBRANCH  14   7
ENDBRANCH  20   6
ENDBRANCH  12  16
BRANCH   5  13
ATOM     13  C   UNL     1      -7.220 -11.415  17.765  0.00  0.00    +0.111 C 
BRANCH  13  15
ATOM     15  C   UNL     1      -5.959 -10.763  18.341  0.00  0.00    +0.000 C 
ATOM     23  C   UNL     1      -5.256 -11.680  19.344  0.00  0.00    +0.009 C 
ATOM     24  C   UNL     1      -4.999 -10.390  17.211  0.00  0.00    +0.009 C 
ENDBRANCH  13  15
ENDBRANCH   5  13
BRANCH  11  17
ATOM     17  C   UNL     1      -8.159  -8.909  16.563  0.00  0.00    +0.181 C 
BRANCH  17   2
ATOM      2  O   UNL     1      -8.287  -9.153  15.177  0.00  0.00    -0.393 OA
ATOM     28  H   UNL     1      -9.237  -9.211  14.982  0.00  0.00    +0.209 HD
ENDBRANCH  17   2
ENDBRANCH  11  17
TORSDOF 7
ENDMDL
MODEL 8
REMARK VINA RESULT:      -6.2     17.224     21.084
REMARK  Name = 71693333
REMARK  9 active torsions:
REMARK  status: ('A' for Active; 'I' for Inactive)
REMARK    1  A    between atoms: O_2  and  C_17
REMARK    2  A    between atoms: N_5  and  C_13
REMARK    3  A    between atoms: N_6  and  C_20
REMARK    4  A    between atoms: C_7  and  C_14
REMARK    5  A    between atoms: C_11  and  C_17
REMARK    6  A    between atoms: C_12  and  C_16
REMARK    7  A    between atoms: C_13  and  C_15
REMARK    8  A    between atoms: C_15  and  C_23
REMARK    9  A    between atoms: C_15  and  C_24
REMARK                            x       y       z     vdW  Elec       q    Type
REMARK                         _______ _______ _______ _____ _____    ______ ____
ROOT
ATOM      1  O   UNL     1      13.723   4.815   0.074  0.00  0.00    -0.361 OA
ATOM      4  O   UNL     1      14.622   4.554  -3.364  0.00  0.00    -0.273 OA
ATOM      5  N   UNL     1      12.500   4.740  -2.418  0.00  0.00    -0.291 N 
ATOM     11  C   UNL     1      11.677   4.822  -1.186  0.00  0.00    +0.135 C 
ATOM     12  C   UNL     1      12.462   5.478  -0.034  0.00  0.00    +0.171 C 
ATOM     18  C   UNL     1      13.895   4.745  -2.386  0.00  0.00    +0.242 C 
ATOM     19  C   UNL     1      14.526   5.084  -1.050  0.00  0.00    +0.256 C 
ENDROOT
BRANCH  12  16
ATOM     16  C   UNL     1      11.789   5.370   1.318  0.00  0.00    -0.017 A 
ATOM     20  C   UNL     1      10.549   5.173   3.810  0.00  0.00    +0.033 A 
ATOM     21  C   UNL     1      11.279   6.513   1.937  0.00  0.00    +0.008 A 
ATOM     22  C   UNL     1      11.677   4.130   1.946  0.00  0.00    +0.008 A 
ATOM     25  C   UNL     1      10.660   6.414   3.182  0.00  0.00    +0.023 A 
ATOM     26  C   UNL     1      11.057   4.031   3.192  0.00  0.00    +0.023 A 
BRANCH  20   6
ATOM      3  O   UNL     1      11.397   6.225   6.475  0.00  0.00    -0.275 OA
ATOM      6  N   UNL     1       9.929   5.073   5.056  0.00  0.00    -0.285 N 
ATOM     14  C   UNL     1      10.359   5.585   6.289  0.00  0.00    +0.220 C 
ATOM     27  H   UNL     1       9.049   4.563   5.063  0.00  0.00    +0.155 HD
BRANCH  14   7
ATOM      7  C   UNL     1       9.400   5.266   7.440  0.00  0.00    +0.075 C 
ATOM      8  C   UNL     1       9.812   4.159   8.444  0.00  0.00    +0.013 C 
ATOM      9  C   UNL     1       9.389   6.234   8.651  0.00  0.00    +0.013 C 
ATOM     10  C   UNL     1       9.152   5.005   9.549  0.00  0.00    +0.001 C 
ENDBRANCH  14   7
ENDBRANCH  20   6
ENDBRANCH  12  16
BRANCH   5  13
ATOM     13  C   UNL     1      11.830   4.404  -3.671  0.00  0.00    +0.111 C 
BRANCH  13  15
ATOM     15  C   UNL     1      11.462   2.919  -3.755  0.00  0.00    +0.000 C 
ATOM     23  C   UNL     1      11.982   2.139  -2.546  0.00  0.00    +0.009 C 
ATOM     24  C   UNL     1       9.946   2.760  -3.866  0.00  0.00    +0.009 C 
ENDBRANCH  13  15
ENDBRANCH   5  13
BRANCH  11  17
ATOM     17  C   UNL     1      10.345   5.550  -1.415  0.00  0.00    +0.181 C 
BRANCH  17   2
ATOM      2  O   UNL     1       9.301   4.710  -0.967  0.00  0.00    -0.393 OA
ATOM     28  H   UNL     1       8.577   5.286  -0.668  0.00  0.00    +0.209 HD
ENDBRANCH  17   2
ENDBRANCH  11  17
TORSDOF 7
ENDMDL
MODEL 9
REMARK VINA RESULT:      -6.2     28.613     31.941
REMARK  Name = 71693333
REMARK  9 active torsions:
REMARK  status: ('A' for Active; 'I' for Inactive)
REMARK    1  A    between atoms: O_2  and  C_17
REMARK    2  A    between atoms: N_5  and  C_13
REMARK    3  A    between atoms: N_6  and  C_20
REMARK    4  A    between atoms: C_7  and  C_14
REMARK    5  A    between atoms: C_11  and  C_17
REMARK    6  A    between atoms: C_12  and  C_16
REMARK    7  A    between atoms: C_13  and  C_15
REMARK    8  A    between atoms: C_15  and  C_23
REMARK    9  A    between atoms: C_15  and  C_24
REMARK                            x       y       z     vdW  Elec       q    Type
REMARK                         _______ _______ _______ _____ _____    ______ ____
ROOT
ATOM      1  O   UNL     1     -13.687  -7.695  16.615  0.00  0.00    -0.361 OA
ATOM      4  O   UNL     1     -16.202  -6.092  14.666  0.00  0.00    -0.273 OA
ATOM      5  N   UNL     1     -13.995  -6.574  14.095  0.00  0.00    -0.291 N 
ATOM     11  C   UNL     1     -12.681  -7.121  14.511  0.00  0.00    +0.135 C 
ATOM     12  C   UNL     1     -12.847  -8.215  15.584  0.00  0.00    +0.171 C 
ATOM     18  C   UNL     1     -15.125  -6.639  14.912  0.00  0.00    +0.242 C 
ATOM     19  C   UNL     1     -15.001  -7.512  16.145  0.00  0.00    +0.256 C 
ENDROOT
BRANCH  12  16
ATOM     16  C   UNL     1     -11.551  -8.643  16.242  0.00  0.00    -0.017 A 
ATOM     20  C   UNL     1      -9.167  -9.433  17.455  0.00  0.00    +0.033 A 
ATOM     21  C   UNL     1     -11.165  -9.984  16.216  0.00  0.00    +0.008 A 
ATOM     22  C   UNL     1     -10.744  -7.698  16.875  0.00  0.00    +0.008 A 
ATOM     25  C   UNL     1      -9.973 -10.378  16.822  0.00  0.00    +0.023 A 
ATOM     26  C   UNL     1      -9.552  -8.093  17.481  0.00  0.00    +0.023 A 
BRANCH  20   6
ATOM      3  O   UNL     1      -6.402  -9.614  16.335  0.00  0.00    -0.275 OA
ATOM      6  N   UNL     1      -7.973  -9.827  18.062  0.00  0.00    -0.285 N 
ATOM     14  C   UNL     1      -6.690  -9.897  17.501  0.00  0.00    +0.220 C 
ATOM     27  H   UNL     1      -8.052 -10.095  19.040  0.00  0.00    +0.155 HD
BRANCH  14   7
ATOM      7  C   UNL     1      -5.627 -10.379  18.492  0.00  0.00    +0.075 C 
ATOM      8  C   UNL     1      -5.948 -11.629  19.353  0.00  0.00    +0.013 C 
ATOM      9  C   UNL     1      -4.434 -11.191  17.924  0.00  0.00    +0.013 C 
ATOM     10  C   UNL     1      -4.466 -12.024  19.219  0.00  0.00    +0.001 C 
ENDBRANCH  14   7
ENDBRANCH  20   6
ENDBRANCH  12  16
BRANCH   5  13
ATOM     13  C   UNL     1     -14.043  -5.736  12.900  0.00  0.00    +0.111 C 
BRANCH  13  15
ATOM     15  C   UNL     1     -13.661  -4.281  13.193  0.00  0.00    +0.000 C 
ATOM     23  C   UNL     1     -12.370  -3.881  12.477  0.00  0.00    +0.009 C 
ATOM     24  C   UNL     1     -14.798  -3.347  12.780  0.00  0.00    +0.009 C 
ENDBRANCH  13  15
ENDBRANCH   5  13
BRANCH  11  17
ATOM     17  C   UNL     1     -11.859  -7.649  13.326  0.00  0.00    +0.181 C 
BRANCH  17   2
ATOM      2  O   UNL     1     -12.449  -8.854  12.883  0.00  0.00    -0.393 OA
ATOM     28  H   UNL     1     -12.424  -9.477  13.629  0.00  0.00    +0.209 HD
ENDBRANCH  17   2
ENDBRANCH  11  17
TORSDOF 7
ENDMDL
MODEL 10
REMARK VINA RESULT:      -6.0     15.845     19.785
REMARK  Name = 71693333
REMARK  9 active torsions:
REMARK  status: ('A' for Active; 'I' for Inactive)
REMARK    1  A    between atoms: O_2  and  C_17
REMARK    2  A    between atoms: N_5  and  C_13
REMARK    3  A    between atoms: N_6  and  C_20
REMARK    4  A    between atoms: C_7  and  C_14
REMARK    5  A    between atoms: C_11  and  C_17
REMARK    6  A    between atoms: C_12  and  C_16
REMARK    7  A    between atoms: C_13  and  C_15
REMARK    8  A    between atoms: C_15  and  C_23
REMARK    9  A    between atoms: C_15  and  C_24
REMARK                            x       y       z     vdW  Elec       q    Type
REMARK                         _______ _______ _______ _____ _____    ______ ____
ROOT
ATOM      1  O   UNL     1      12.000   6.931   5.682  0.00  0.00    -0.361 OA
ATOM      4  O   UNL     1      10.701   9.151   8.147  0.00  0.00    -0.273 OA
ATOM      5  N   UNL     1       9.726   8.453   6.149  0.00  0.00    -0.291 N 
ATOM     11  C   UNL     1       9.853   7.669   4.897  0.00  0.00    +0.135 C 
ATOM     12  C   UNL     1      10.789   6.460   5.088  0.00  0.00    +0.171 C 
ATOM     18  C   UNL     1      10.698   8.426   7.150  0.00  0.00    +0.242 C 
ATOM     19  C   UNL     1      11.773   7.368   7.000  0.00  0.00    +0.256 C 
ENDROOT
BRANCH  12  16
ATOM     16  C   UNL     1      11.170   5.758   3.801  0.00  0.00    -0.017 A 
ATOM     20  C   UNL     1      11.872   4.468   1.430  0.00  0.00    +0.033 A 
ATOM     21  C   UNL     1      11.899   6.439   2.825  0.00  0.00    +0.008 A 
ATOM     22  C   UNL     1      10.794   4.432   3.591  0.00  0.00    +0.008 A 
ATOM     25  C   UNL     1      12.249   5.794   1.640  0.00  0.00    +0.023 A 
ATOM     26  C   UNL     1      11.144   3.787   2.405  0.00  0.00    +0.023 A 
BRANCH  20   6
ATOM      3  O   UNL     1      10.343   4.152  -1.119  0.00  0.00    -0.275 OA
ATOM      6  N   UNL     1      12.222   3.821   0.243  0.00  0.00    -0.285 N 
ATOM     14  C   UNL     1      11.475   3.696  -0.937  0.00  0.00    +0.220 C 
ATOM     27  H   UNL     1      13.142   3.387   0.242  0.00  0.00    +0.155 HD
BRANCH  14   7
ATOM      7  C   UNL     1      12.204   2.908  -2.029  0.00  0.00    +0.075 C 
ATOM      8  C   UNL     1      11.410   2.533  -3.308  0.00  0.00    +0.013 C 
ATOM      9  C   UNL     1      13.159   3.695  -2.963  0.00  0.00    +0.013 C 
ATOM     10  C   UNL     1      12.708   2.764  -4.104  0.00  0.00    +0.001 C 
ENDBRANCH  14   7
ENDBRANCH  20   6
ENDBRANCH  12  16
BRANCH   5  13
ATOM     13  C   UNL     1       8.672   9.461   6.225  0.00  0.00    +0.111 C 
BRANCH  13  15
ATOM     15  C   UNL     1       9.037  10.744   5.473  0.00  0.00    +0.000 C 
ATOM     23  C   UNL     1       8.014  11.071   4.383  0.00  0.00    +0.009 C 
ATOM     24  C   UNL     1       9.148  11.913   6.452  0.00  0.00    +0.009 C 
ENDBRANCH  13  15
ENDBRANCH   5  13
BRANCH  11  17
ATOM     17  C   UNL     1       8.493   7.216   4.345  0.00  0.00    +0.181 C 
BRANCH  17   2
ATOM      2  O   UNL     1       8.340   7.759   3.049  0.00  0.00    -0.393 OA
ATOM     28  H   UNL     1       8.864   8.577   3.017  0.00  0.00    +0.209 HD
ENDBRANCH  17   2
ENDBRANCH  11  17
TORSDOF 7
ENDMDL
