REMARK  Name = 11941442
REMARK  9 active torsions:
REMARK  status: ('A' for Active; 'I' for Inactive)
REMARK    1  A    between atoms: S_1  and  C_22
REMARK    2  A    between atoms: S_1  and  C_29
REMARK    3  A    between atoms: O_5  and  C_25
REMARK    4  A    between atoms: O_5  and  C_31
REMARK    5  A    between atoms: O_6  and  C_30
REMARK    6  A    between atoms: O_6  and  C_32
REMARK    7  A    between atoms: N_8  and  C_10
REMARK    8  A    between atoms: C_18  and  C_22
REMARK    9  A    between atoms: C_21  and  C_24
REMARK                            x       y       z     vdW  Elec       q    Type
REMARK                         _______ _______ _______ _____ _____    ______ ____
ROOT
ATOM      2  O   UNL     1      -3.440  -3.134   1.002  0.00  0.00    -0.273 OA
ATOM      3  O   UNL     1      -0.458  -0.679  -2.581  0.00  0.00    -0.270 OA
ATOM      7  N   UNL     1      -2.184  -0.909  -1.079  0.00  0.00    -0.284 N 
ATOM      9  N   UNL     1      -1.190  -2.779   0.965  0.00  0.00    -0.283 N 
ATOM     10  C   UNL     1      -4.172  -0.549   0.150  0.00  0.00    +0.104 C 
ATOM     11  C   UNL     1      -2.698  -0.957   0.278  0.00  0.00    +0.183 C 
ATOM     12  C   UNL     1      -4.532  -0.955  -1.280  0.00  0.00    +0.043 C 
ATOM     13  C   UNL     1      -3.246  -0.701  -2.052  0.00  0.00    +0.111 C 
ATOM     14  C   UNL     1      -2.494  -2.388   0.740  0.00  0.00    +0.240 C 
ATOM     15  C   UNL     1      -0.852  -0.885  -1.433  0.00  0.00    +0.249 C 
ATOM     16  C   UNL     1       0.159  -1.146  -0.376  0.00  0.00    +0.059 A 
ATOM     17  C   UNL     1       0.001  -2.086   0.656  0.00  0.00    +0.046 A 
ATOM     19  C   UNL     1       1.404  -0.514  -0.551  0.00  0.00    +0.023 A 
ATOM     20  C   UNL     1       1.115  -2.419   1.447  0.00  0.00    +0.024 A 
ATOM     21  C   UNL     1       2.485  -0.823   0.274  0.00  0.00    -0.014 A 
ATOM     23  C   UNL     1       2.344  -1.785   1.265  0.00  0.00    +0.010 A 
ATOM     34  H   UNL     1      -1.078  -3.640   1.493  0.00  0.00    +0.155 HD
ENDROOT
BRANCH  21  24
ATOM     24  C   UNL     1       3.757  -0.160   0.082  0.00  0.00    +0.024 A 
ATOM     25  C   UNL     1       4.062   1.018   0.766  0.00  0.00    +0.131 A 
ATOM     26  C   UNL     1       4.687  -0.713  -0.800  0.00  0.00    +0.016 A 
ATOM     27  C   UNL     1       5.294   1.642   0.568  0.00  0.00    +0.091 A 
ATOM     28  C   UNL     1       5.919  -0.089  -0.998  0.00  0.00    +0.046 A 
ATOM     30  C   UNL     1       6.222   1.089  -0.314  0.00  0.00    +0.124 A 
BRANCH  25   5
ATOM      5  O   UNL     1       3.174   1.581   1.634  0.00  0.00    -0.494 OA
ATOM     31  C   UNL     1       3.578   2.784   2.284  0.00  0.00    +0.277 C 
ENDBRANCH  25   5
BRANCH  30   6
ATOM      6  O   UNL     1       7.424   1.697  -0.508  0.00  0.00    -0.495 OA
ATOM     32  C   UNL     1       8.326   1.077  -1.423  0.00  0.00    +0.277 C 
ENDBRANCH  30   6
ENDBRANCH  21  24
BRANCH  10   8
ATOM      4  O   UNL     1      -6.533   0.833   1.096  0.00  0.00    -0.275 OA
ATOM      8  N   UNL     1      -4.333   0.873   0.346  0.00  0.00    -0.309 N 
ATOM     18  C   UNL     1      -5.507   1.447   0.805  0.00  0.00    +0.223 C 
ATOM     33  H   UNL     1      -3.562   1.477   0.074  0.00  0.00    +0.149 HD
BRANCH  18  22
ATOM     22  C   UNL     1      -5.427   2.952   0.907  0.00  0.00    +0.164 C 
BRANCH  22   1
ATOM      1  S   UNL     1      -6.708   3.680  -0.142  0.00  0.00    -0.155 S 
ATOM     29  C   UNL     1      -6.175   2.998  -1.730  0.00  0.00    +0.085 C 
ENDBRANCH  22   1
ENDBRANCH  18  22
ENDBRANCH  10   8
TORSDOF 6
