MODEL 1
REMARK VINA RESULT:      -6.1      0.000      0.000
REMARK  Name = 28963143
REMARK  13 active torsions:
REMARK  status: ('A' for Active; 'I' for Inactive)
REMARK    1  A    between atoms: O_1  and  C_10
REMARK    2  A    between atoms: N_4  and  C_14
REMARK    3  A    between atoms: N_5  and  C_23
REMARK    4  A    between atoms: N_5  and  C_24
REMARK    5  A    between atoms: N_6  and  C_25
REMARK    6  A    between atoms: C_7  and  C_17
REMARK    7  A    between atoms: C_9  and  C_19
REMARK    8  A    between atoms: C_12  and  C_18
REMARK    9  A    between atoms: C_18  and  C_20
REMARK   10  A    between atoms: C_18  and  C_21
REMARK   11  A    between atoms: C_23  and  C_26
REMARK   12  A    between atoms: C_24  and  C_27
REMARK   13  A    between atoms: C_25  and  C_28
REMARK                            x       y       z     vdW  Elec       q    Type
REMARK                         _______ _______ _______ _____ _____    ______ ____
ROOT
ATOM      7  C   UNL     1      -3.534 -10.234  11.052  0.00  0.00    -0.027 C 
ATOM      8  C   UNL     1      -4.839  -9.862  11.831  0.00  0.00    +0.028 C 
ATOM      9  C   UNL     1      -4.995 -10.750  13.118  0.00  0.00    +0.012 C 
ATOM     10  C   UNL     1      -6.073  -9.836  10.883  0.00  0.00    +0.122 C 
ATOM     11  C   UNL     1      -3.353  -9.268   9.857  0.00  0.00    +0.007 C 
ATOM     12  C   UNL     1      -5.847  -8.949   9.637  0.00  0.00    +0.029 C 
ATOM     13  C   UNL     1      -2.318 -10.055  11.990  0.00  0.00    +0.009 C 
ATOM     14  C   UNL     1      -3.733 -10.620  14.017  0.00  0.00    +0.078 C 
ATOM     15  C   UNL     1      -4.543  -9.269   8.906  0.00  0.00    +0.007 C 
ATOM     16  C   UNL     1      -2.425 -10.874  13.269  0.00  0.00    +0.023 C 
ATOM     17  C   UNL     1      -3.556 -11.689  10.517  0.00  0.00    +0.011 C 
ATOM     19  C   UNL     1      -6.245 -10.417  13.948  0.00  0.00    +0.010 C 
ENDROOT
BRANCH  14   4
ATOM      3  O   UNL     1      -4.014  -9.885  16.793  0.00  0.00    -0.253 OA
ATOM      4  N   UNL     1      -3.793 -11.514  15.154  0.00  0.00    -0.296 N 
ATOM      6  N   UNL     1      -3.958 -12.134  17.359  0.00  0.00    -0.300 N 
ATOM     22  C   UNL     1      -3.928 -11.067  16.465  0.00  0.00    +0.300 C 
ATOM     29  H   UNL     1      -3.649 -12.507  14.997  0.00  0.00    +0.151 HD
ATOM     31  H   UNL     1      -3.895 -13.080  16.994  0.00  0.00    +0.150 HD
BRANCH   6  25
ATOM     25  C   UNL     1      -4.093 -11.956  18.785  0.00  0.00    +0.102 C 
ATOM     28  C   UNL     1      -5.544 -11.796  19.190  0.00  0.00    +0.024 C 
ENDBRANCH   6  25
ENDBRANCH  14   4
BRANCH  10   1
ATOM      1  O   UNL     1      -7.195  -9.286  11.576  0.00  0.00    -0.391 OA
ATOM     30  H   UNL     1      -7.885  -9.083  10.922  0.00  0.00    +0.210 HD
ENDBRANCH  10   1
BRANCH  12  18
ATOM     18  C   UNL     1      -7.020  -9.039   8.653  0.00  0.00    +0.078 C 
ATOM     20  C   UNL     1      -6.494  -9.407   7.265  0.00  0.00    +0.017 C 
BRANCH  18  21
ATOM      2  O   UNL     1      -7.150  -6.661   8.406  0.00  0.00    -0.275 OA
ATOM      5  N   UNL     1      -9.151  -7.731   8.859  0.00  0.00    -0.302 N 
ATOM     21  C   UNL     1      -7.773  -7.707   8.621  0.00  0.00    +0.219 C 
BRANCH   5  23
ATOM     23  C   UNL     1      -9.894  -6.474   8.855  0.00  0.00    +0.104 C 
ATOM     26  C   UNL     1     -10.579  -6.239   7.525  0.00  0.00    +0.024 C 
ENDBRANCH   5  23
BRANCH   5  24
ATOM     24  C   UNL     1      -9.967  -8.921   9.083  0.00  0.00    +0.104 C 
ATOM     27  C   UNL     1     -10.561  -8.934  10.476  0.00  0.00    +0.024 C 
ENDBRANCH   5  24
ENDBRANCH  18  21
ENDBRANCH  12  18
TORSDOF 7
ENDMDL
MODEL 2
REMARK VINA RESULT:      -6.1     23.297     25.587
REMARK  Name = 28963143
REMARK  13 active torsions:
REMARK  status: ('A' for Active; 'I' for Inactive)
REMARK    1  A    between atoms: O_1  and  C_10
REMARK    2  A    between atoms: N_4  and  C_14
REMARK    3  A    between atoms: N_5  and  C_23
REMARK    4  A    between atoms: N_5  and  C_24
REMARK    5  A    between atoms: N_6  and  C_25
REMARK    6  A    between atoms: C_7  and  C_17
REMARK    7  A    between atoms: C_9  and  C_19
REMARK    8  A    between atoms: C_12  and  C_18
REMARK    9  A    between atoms: C_18  and  C_20
REMARK   10  A    between atoms: C_18  and  C_21
REMARK   11  A    between atoms: C_23  and  C_26
REMARK   12  A    between atoms: C_24  and  C_27
REMARK   13  A    between atoms: C_25  and  C_28
REMARK                            x       y       z     vdW  Elec       q    Type
REMARK                         _______ _______ _______ _____ _____    ______ ____
ROOT
ATOM      7  C   UNL     1       9.475   6.158   5.983  0.00  0.00    -0.027 C 
ATOM      8  C   UNL     1      10.492   7.246   5.501  0.00  0.00    +0.028 C 
ATOM      9  C   UNL     1      10.003   8.684   5.902  0.00  0.00    +0.012 C 
ATOM     10  C   UNL     1      10.850   7.057   3.998  0.00  0.00    +0.122 C 
ATOM     11  C   UNL     1      10.040   4.751   5.672  0.00  0.00    +0.007 C 
ATOM     12  C   UNL     1      11.315   5.618   3.675  0.00  0.00    +0.029 C 
ATOM     13  C   UNL     1       9.306   6.270   7.515  0.00  0.00    +0.009 C 
ATOM     14  C   UNL     1       9.764   8.763   7.437  0.00  0.00    +0.078 C 
ATOM     15  C   UNL     1      10.355   4.550   4.196  0.00  0.00    +0.007 C 
ATOM     16  C   UNL     1       8.858   7.652   7.967  0.00  0.00    +0.023 C 
ATOM     17  C   UNL     1       8.089   6.298   5.304  0.00  0.00    +0.011 C 
ATOM     19  C   UNL     1      10.971   9.803   5.483  0.00  0.00    +0.010 C 
ENDROOT
BRANCH  14   4
ATOM      3  O   UNL     1      10.871  10.645   9.322  0.00  0.00    -0.253 OA
ATOM      4  N   UNL     1       9.203  10.039   7.826  0.00  0.00    -0.296 N 
ATOM      6  N   UNL     1       9.058  12.042   8.939  0.00  0.00    -0.300 N 
ATOM     22  C   UNL     1       9.809  10.885   8.749  0.00  0.00    +0.300 C 
ATOM     29  H   UNL     1       8.286  10.293   7.470  0.00  0.00    +0.151 HD
ATOM     31  H   UNL     1       8.199  12.160   8.410  0.00  0.00    +0.150 HD
BRANCH   6  25
ATOM     25  C   UNL     1       9.457  13.094   9.843  0.00  0.00    +0.102 C 
ATOM     28  C   UNL     1       8.895  12.874  11.233  0.00  0.00    +0.024 C 
ENDBRANCH   6  25
ENDBRANCH  14   4
BRANCH  10   1
ATOM      1  O   UNL     1      11.932   7.923   3.654  0.00  0.00    -0.391 OA
ATOM     30  H   UNL     1      11.690   8.828   3.916  0.00  0.00    +0.210 HD
ENDBRANCH  10   1
BRANCH  12  18
ATOM     18  C   UNL     1      11.538   5.417   2.170  0.00  0.00    +0.078 C 
ATOM     20  C   UNL     1      10.217   5.024   1.508  0.00  0.00    +0.017 C 
BRANCH  18  21
ATOM      2  O   UNL     1      12.288   3.151   1.978  0.00  0.00    -0.275 OA
ATOM      5  N   UNL     1      13.921   4.771   1.724  0.00  0.00    -0.302 N 
ATOM     21  C   UNL     1      12.607   4.345   1.944  0.00  0.00    +0.219 C 
BRANCH   5  23
ATOM     23  C   UNL     1      14.968   3.773   1.526  0.00  0.00    +0.104 C 
ATOM     26  C   UNL     1      15.766   4.050   0.268  0.00  0.00    +0.024 C 
ENDBRANCH   5  23
BRANCH   5  24
ATOM     24  C   UNL     1      14.374   6.157   1.633  0.00  0.00    +0.104 C 
ATOM     27  C   UNL     1      15.000   6.624   2.930  0.00  0.00    +0.024 C 
ENDBRANCH   5  24
ENDBRANCH  18  21
ENDBRANCH  12  18
TORSDOF 7
ENDMDL
MODEL 3
REMARK VINA RESULT:      -5.9      2.170      8.217
REMARK  Name = 28963143
REMARK  13 active torsions:
REMARK  status: ('A' for Active; 'I' for Inactive)
REMARK    1  A    between atoms: O_1  and  C_10
REMARK    2  A    between atoms: N_4  and  C_14
REMARK    3  A    between atoms: N_5  and  C_23
REMARK    4  A    between atoms: N_5  and  C_24
REMARK    5  A    between atoms: N_6  and  C_25
REMARK    6  A    between atoms: C_7  and  C_17
REMARK    7  A    between atoms: C_9  and  C_19
REMARK    8  A    between atoms: C_12  and  C_18
REMARK    9  A    between atoms: C_18  and  C_20
REMARK   10  A    between atoms: C_18  and  C_21
REMARK   11  A    between atoms: C_23  and  C_26
REMARK   12  A    between atoms: C_24  and  C_27
REMARK   13  A    between atoms: C_25  and  C_28
REMARK                            x       y       z     vdW  Elec       q    Type
REMARK                         _______ _______ _______ _____ _____    ______ ____
ROOT
ATOM      7  C   UNL     1      -3.565 -11.049  11.273  0.00  0.00    -0.027 C 
ATOM      8  C   UNL     1      -4.936 -10.474  11.760  0.00  0.00    +0.028 C 
ATOM      9  C   UNL     1      -5.469  -9.381  10.765  0.00  0.00    +0.012 C 
ATOM     10  C   UNL     1      -4.867 -10.041  13.253  0.00  0.00    +0.122 C 
ATOM     11  C   UNL     1      -3.126 -12.199  12.211  0.00  0.00    +0.007 C 
ATOM     12  C   UNL     1      -4.329 -11.162  14.173  0.00  0.00    +0.029 C 
ATOM     13  C   UNL     1      -3.741 -11.640   9.856  0.00  0.00    +0.009 C 
ATOM     14  C   UNL     1      -5.570  -9.965   9.328  0.00  0.00    +0.078 C 
ATOM     15  C   UNL     1      -3.020 -11.769  13.669  0.00  0.00    +0.007 C 
ATOM     16  C   UNL     1      -4.281 -10.632   8.851  0.00  0.00    +0.023 C 
ATOM     17  C   UNL     1      -2.447  -9.977  11.243  0.00  0.00    +0.011 C 
ATOM     19  C   UNL     1      -6.830  -8.790  11.169  0.00  0.00    +0.010 C 
ENDROOT
BRANCH  14   4
ATOM      3  O   UNL     1      -7.727 -10.103   7.416  0.00  0.00    -0.253 OA
ATOM      4  N   UNL     1      -5.948  -8.953   8.364  0.00  0.00    -0.296 N 
ATOM      6  N   UNL     1      -7.149  -7.986   6.663  0.00  0.00    -0.300 N 
ATOM     22  C   UNL     1      -7.007  -9.108   7.476  0.00  0.00    +0.300 C 
ATOM     29  H   UNL     1      -5.364  -8.126   8.278  0.00  0.00    +0.151 HD
ATOM     31  H   UNL     1      -6.515  -7.204   6.794  0.00  0.00    +0.150 HD
BRANCH   6  25
ATOM     25  C   UNL     1      -8.172  -7.878   5.650  0.00  0.00    +0.102 C 
ATOM     28  C   UNL     1      -7.662  -8.323   4.295  0.00  0.00    +0.024 C 
ENDBRANCH   6  25
ENDBRANCH  14   4
BRANCH  10   1
ATOM      1  O   UNL     1      -6.181  -9.727  13.720  0.00  0.00    -0.391 OA
ATOM     30  H   UNL     1      -6.771  -9.676  12.948  0.00  0.00    +0.210 HD
ENDBRANCH  10   1
BRANCH  12  18
ATOM     18  C   UNL     1      -4.146 -10.676  15.616  0.00  0.00    +0.078 C 
ATOM     20  C   UNL     1      -2.657 -10.669  15.966  0.00  0.00    +0.017 C 
BRANCH  18  21
ATOM      2  O   UNL     1      -4.598 -12.762  16.701  0.00  0.00    -0.275 OA
ATOM      5  N   UNL     1      -6.020 -11.020  17.249  0.00  0.00    -0.302 N 
ATOM     21  C   UNL     1      -4.931 -11.579  16.571  0.00  0.00    +0.219 C 
BRANCH   5  23
ATOM     23  C   UNL     1      -6.802 -11.861  18.150  0.00  0.00    +0.104 C 
ATOM     26  C   UNL     1      -6.440 -11.606  19.599  0.00  0.00    +0.024 C 
ENDBRANCH   5  23
BRANCH   5  24
ATOM     24  C   UNL     1      -6.456  -9.628  17.180  0.00  0.00    +0.104 C 
ATOM     27  C   UNL     1      -7.901  -9.519  16.740  0.00  0.00    +0.024 C 
ENDBRANCH   5  24
ENDBRANCH  18  21
ENDBRANCH  12  18
TORSDOF 7
ENDMDL
MODEL 4
REMARK VINA RESULT:      -5.6     19.733     21.770
REMARK  Name = 28963143
REMARK  13 active torsions:
REMARK  status: ('A' for Active; 'I' for Inactive)
REMARK    1  A    between atoms: O_1  and  C_10
REMARK    2  A    between atoms: N_4  and  C_14
REMARK    3  A    between atoms: N_5  and  C_23
REMARK    4  A    between atoms: N_5  and  C_24
REMARK    5  A    between atoms: N_6  and  C_25
REMARK    6  A    between atoms: C_7  and  C_17
REMARK    7  A    between atoms: C_9  and  C_19
REMARK    8  A    between atoms: C_12  and  C_18
REMARK    9  A    between atoms: C_18  and  C_20
REMARK   10  A    between atoms: C_18  and  C_21
REMARK   11  A    between atoms: C_23  and  C_26
REMARK   12  A    between atoms: C_24  and  C_27
REMARK   13  A    between atoms: C_25  and  C_28
REMARK                            x       y       z     vdW  Elec       q    Type
REMARK                         _______ _______ _______ _____ _____    ______ ____
ROOT
ATOM      7  C   UNL     1     -15.356   7.855  21.015  0.00  0.00    -0.027 C 
ATOM      8  C   UNL     1     -13.961   7.144  21.012  0.00  0.00    +0.028 C 
ATOM      9  C   UNL     1     -13.958   5.916  21.992  0.00  0.00    +0.012 C 
ATOM     10  C   UNL     1     -12.807   8.168  21.218  0.00  0.00    +0.122 C 
ATOM     11  C   UNL     1     -15.360   8.986  19.959  0.00  0.00    +0.007 C 
ATOM     12  C   UNL     1     -12.877   9.351  20.225  0.00  0.00    +0.029 C 
ATOM     13  C   UNL     1     -16.443   6.832  20.614  0.00  0.00    +0.009 C 
ATOM     14  C   UNL     1     -15.103   4.931  21.625  0.00  0.00    +0.078 C 
ATOM     15  C   UNL     1     -14.255  10.011  20.181  0.00  0.00    +0.007 C 
ATOM     16  C   UNL     1     -16.471   5.605  21.514  0.00  0.00    +0.023 C 
ATOM     17  C   UNL     1     -15.710   8.462  22.396  0.00  0.00    +0.011 C 
ATOM     19  C   UNL     1     -12.623   5.153  22.018  0.00  0.00    +0.010 C 
ENDROOT
BRANCH  14   4
ATOM      3  O   UNL     1     -16.076   5.083  24.337  0.00  0.00    -0.253 OA
ATOM      4  N   UNL     1     -15.202   3.846  22.578  0.00  0.00    -0.296 N 
ATOM      6  N   UNL     1     -15.670   2.811  24.573  0.00  0.00    -0.300 N 
ATOM     22  C   UNL     1     -15.685   4.013  23.872  0.00  0.00    +0.300 C 
ATOM     29  H   UNL     1     -14.828   2.939  22.318  0.00  0.00    +0.151 HD
ATOM     31  H   UNL     1     -15.342   1.973  24.101  0.00  0.00    +0.150 HD
BRANCH   6  25
ATOM     25  C   UNL     1     -16.120   2.696  25.940  0.00  0.00    +0.102 C 
ATOM     28  C   UNL     1     -16.770   1.353  26.200  0.00  0.00    +0.024 C 
ENDBRANCH   6  25
ENDBRANCH  14   4
BRANCH  10   1
ATOM      1  O   UNL     1     -11.552   7.522  20.995  0.00  0.00    -0.391 OA
ATOM     30  H   UNL     1     -11.234   7.776  20.111  0.00  0.00    +0.210 HD
ENDBRANCH  10   1
BRANCH  12  18
ATOM     18  C   UNL     1     -11.811  10.412  20.528  0.00  0.00    +0.078 C 
ATOM     20  C   UNL     1     -12.243  11.235  21.743  0.00  0.00    +0.017 C 
BRANCH  18  21
ATOM      2  O   UNL     1     -12.206  12.385  19.230  0.00  0.00    -0.275 OA
ATOM      5  N   UNL     1     -10.755  10.845  18.294  0.00  0.00    -0.302 N 
ATOM     21  C   UNL     1     -11.608  11.306  19.302  0.00  0.00    +0.219 C 
BRANCH   5  23
ATOM     23  C   UNL     1     -10.556  11.664  17.102  0.00  0.00    +0.104 C 
ATOM     26  C   UNL     1      -9.254  12.435  17.172  0.00  0.00    +0.024 C 
ENDBRANCH   5  23
BRANCH   5  24
ATOM     24  C   UNL     1      -9.985   9.604  18.317  0.00  0.00    +0.104 C 
ATOM     27  C   UNL     1     -10.480   8.622  17.276  0.00  0.00    +0.024 C 
ENDBRANCH   5  24
ENDBRANCH  18  21
ENDBRANCH  12  18
TORSDOF 7
ENDMDL
MODEL 5
REMARK VINA RESULT:      -5.6     22.776     24.950
REMARK  Name = 28963143
REMARK  13 active torsions:
REMARK  status: ('A' for Active; 'I' for Inactive)
REMARK    1  A    between atoms: O_1  and  C_10
REMARK    2  A    between atoms: N_4  and  C_14
REMARK    3  A    between atoms: N_5  and  C_23
REMARK    4  A    between atoms: N_5  and  C_24
REMARK    5  A    between atoms: N_6  and  C_25
REMARK    6  A    between atoms: C_7  and  C_17
REMARK    7  A    between atoms: C_9  and  C_19
REMARK    8  A    between atoms: C_12  and  C_18
REMARK    9  A    between atoms: C_18  and  C_20
REMARK   10  A    between atoms: C_18  and  C_21
REMARK   11  A    between atoms: C_23  and  C_26
REMARK   12  A    between atoms: C_24  and  C_27
REMARK   13  A    between atoms: C_25  and  C_28
REMARK                            x       y       z     vdW  Elec       q    Type
REMARK                         _______ _______ _______ _____ _____    ______ ____
ROOT
ATOM      7  C   UNL     1      10.022   7.643   1.291  0.00  0.00    -0.027 C 
ATOM      8  C   UNL     1      10.095   6.082   1.364  0.00  0.00    +0.028 C 
ATOM      9  C   UNL     1      10.728   5.615   2.725  0.00  0.00    +0.012 C 
ATOM     10  C   UNL     1      10.750   5.488   0.084  0.00  0.00    +0.122 C 
ATOM     11  C   UNL     1       9.293   8.065  -0.007  0.00  0.00    +0.007 C 
ATOM     12  C   UNL     1      10.082   5.995  -1.215  0.00  0.00    +0.029 C 
ATOM     13  C   UNL     1       9.193   8.165   2.487  0.00  0.00    +0.009 C 
ATOM     14  C   UNL     1       9.931   6.208   3.921  0.00  0.00    +0.078 C 
ATOM     15  C   UNL     1       9.954   7.517  -1.265  0.00  0.00    +0.007 C 
ATOM     16  C   UNL     1       9.744   7.722   3.835  0.00  0.00    +0.023 C 
ATOM     17  C   UNL     1      11.423   8.306   1.313  0.00  0.00    +0.011 C 
ATOM     19  C   UNL     1      10.805   4.087   2.876  0.00  0.00    +0.010 C 
ENDROOT
BRANCH  14   4
ATOM      3  O   UNL     1       8.674   6.184   6.518  0.00  0.00    -0.253 OA
ATOM      4  N   UNL     1      10.555   5.893   5.188  0.00  0.00    -0.296 N 
ATOM      6  N   UNL     1      10.705   5.568   7.456  0.00  0.00    -0.300 N 
ATOM     22  C   UNL     1       9.867   5.908   6.397  0.00  0.00    +0.300 C 
ATOM     29  H   UNL     1      11.557   5.731   5.207  0.00  0.00    +0.151 HD
ATOM     31  H   UNL     1      11.675   5.341   7.259  0.00  0.00    +0.150 HD
BRANCH   6  25
ATOM     25  C   UNL     1      10.250   5.504   8.825  0.00  0.00    +0.102 C 
ATOM     28  C   UNL     1       9.502   4.216   9.102  0.00  0.00    +0.024 C 
ENDBRANCH   6  25
ENDBRANCH  14   4
BRANCH  10   1
ATOM      1  O   UNL     1      10.605   4.067   0.089  0.00  0.00    -0.391 OA
ATOM     30  H   UNL     1       9.794   3.844  -0.400  0.00  0.00    +0.210 HD
ENDBRANCH  10   1
BRANCH  12  18
ATOM     18  C   UNL     1      10.823   5.503  -2.466  0.00  0.00    +0.078 C 
ATOM     20  C   UNL     1      11.308   6.705  -3.276  0.00  0.00    +0.017 C 
BRANCH  18  21
ATOM      2  O   UNL     1       8.725   4.963  -3.486  0.00  0.00    -0.275 OA
ATOM      5  N   UNL     1      10.420   3.420  -3.806  0.00  0.00    -0.302 N 
ATOM     21  C   UNL     1       9.896   4.615  -3.300  0.00  0.00    +0.219 C 
BRANCH   5  23
ATOM     23  C   UNL     1       9.556   2.541  -4.588  0.00  0.00    +0.104 C 
ATOM     26  C   UNL     1       9.828   2.675  -6.073  0.00  0.00    +0.024 C 
ENDBRANCH   5  23
BRANCH   5  24
ATOM     24  C   UNL     1      11.797   2.954  -3.664  0.00  0.00    +0.104 C 
ATOM     27  C   UNL     1      11.953   2.037  -2.469  0.00  0.00    +0.024 C 
ENDBRANCH   5  24
ENDBRANCH  18  21
ENDBRANCH  12  18
TORSDOF 7
ENDMDL
MODEL 6
REMARK VINA RESULT:      -5.5     19.455     21.589
REMARK  Name = 28963143
REMARK  13 active torsions:
REMARK  status: ('A' for Active; 'I' for Inactive)
REMARK    1  A    between atoms: O_1  and  C_10
REMARK    2  A    between atoms: N_4  and  C_14
REMARK    3  A    between atoms: N_5  and  C_23
REMARK    4  A    between atoms: N_5  and  C_24
REMARK    5  A    between atoms: N_6  and  C_25
REMARK    6  A    between atoms: C_7  and  C_17
REMARK    7  A    between atoms: C_9  and  C_19
REMARK    8  A    between atoms: C_12  and  C_18
REMARK    9  A    between atoms: C_18  and  C_20
REMARK   10  A    between atoms: C_18  and  C_21
REMARK   11  A    between atoms: C_23  and  C_26
REMARK   12  A    between atoms: C_24  and  C_27
REMARK   13  A    between atoms: C_25  and  C_28
REMARK                            x       y       z     vdW  Elec       q    Type
REMARK                         _______ _______ _______ _____ _____    ______ ____
ROOT
ATOM      7  C   UNL     1     -11.551   8.003  18.981  0.00  0.00    -0.027 C 
ATOM      8  C   UNL     1     -12.966   7.964  18.313  0.00  0.00    +0.028 C 
ATOM      9  C   UNL     1     -13.023   8.920  17.067  0.00  0.00    +0.012 C 
ATOM     10  C   UNL     1     -14.092   8.172  19.367  0.00  0.00    +0.122 C 
ATOM     11  C   UNL     1     -11.495   6.970  20.131  0.00  0.00    +0.007 C 
ATOM     12  C   UNL     1     -13.969   7.203  20.567  0.00  0.00    +0.029 C 
ATOM     13  C   UNL     1     -10.489   7.600  17.933  0.00  0.00    +0.009 C 
ATOM     14  C   UNL     1     -11.902   8.552  16.055  0.00  0.00    +0.078 C 
ATOM     15  C   UNL     1     -12.572   7.194  21.185  0.00  0.00    +0.007 C 
ATOM     16  C   UNL     1     -10.513   8.476  16.689  0.00  0.00    +0.023 C 
ATOM     17  C   UNL     1     -11.202   9.402  19.550  0.00  0.00    +0.011 C 
ATOM     19  C   UNL     1     -14.381   8.909  16.345  0.00  0.00    +0.010 C 
ENDROOT
BRANCH  14   4
ATOM      3  O   UNL     1     -11.792   7.911  13.244  0.00  0.00    -0.253 OA
ATOM      4  N   UNL     1     -11.852   9.485  14.950  0.00  0.00    -0.296 N 
ATOM      6  N   UNL     1     -11.759  10.181  12.764  0.00  0.00    -0.300 N 
ATOM     22  C   UNL     1     -11.799   9.083  13.619  0.00  0.00    +0.300 C 
ATOM     29  H   UNL     1     -11.772  10.476  15.156  0.00  0.00    +0.151 HD
ATOM     31  H   UNL     1     -11.783  11.114  13.165  0.00  0.00    +0.150 HD
BRANCH   6  25
ATOM     25  C   UNL     1     -11.701  10.052  11.327  0.00  0.00    +0.102 C 
ATOM     28  C   UNL     1     -12.136  11.329  10.637  0.00  0.00    +0.024 C 
ENDBRANCH   6  25
ENDBRANCH  14   4
BRANCH  10   1
ATOM      1  O   UNL     1     -15.362   7.916  18.765  0.00  0.00    -0.391 OA
ATOM     30  H   UNL     1     -15.982   7.652  19.467  0.00  0.00    +0.210 HD
ENDBRANCH  10   1
BRANCH  12  18
ATOM     18  C   UNL     1     -15.008   7.510  21.654  0.00  0.00    +0.078 C 
ATOM     20  C   UNL     1     -14.437   8.543  22.626  0.00  0.00    +0.017 C 
BRANCH  18  21
ATOM      2  O   UNL     1     -14.705   5.835  23.339  0.00  0.00    -0.275 OA
ATOM      5  N   UNL     1     -16.502   5.511  21.917  0.00  0.00    -0.302 N 
ATOM     21  C   UNL     1     -15.389   6.219  22.384  0.00  0.00    +0.219 C 
BRANCH   5  23
ATOM     23  C   UNL     1     -16.879   4.265  22.578  0.00  0.00    +0.104 C 
ATOM     26  C   UNL     1     -18.035   4.474  23.534  0.00  0.00    +0.024 C 
ENDBRANCH   5  23
BRANCH   5  24
ATOM     24  C   UNL     1     -17.382   5.912  20.822  0.00  0.00    +0.104 C 
ATOM     27  C   UNL     1     -17.204   5.021  19.611  0.00  0.00    +0.024 C 
ENDBRANCH   5  24
ENDBRANCH  18  21
ENDBRANCH  12  18
TORSDOF 7
ENDMDL
MODEL 7
REMARK VINA RESULT:      -5.5     23.100     25.936
REMARK  Name = 28963143
REMARK  13 active torsions:
REMARK  status: ('A' for Active; 'I' for Inactive)
REMARK    1  A    between atoms: O_1  and  C_10
REMARK    2  A    between atoms: N_4  and  C_14
REMARK    3  A    between atoms: N_5  and  C_23
REMARK    4  A    between atoms: N_5  and  C_24
REMARK    5  A    between atoms: N_6  and  C_25
REMARK    6  A    between atoms: C_7  and  C_17
REMARK    7  A    between atoms: C_9  and  C_19
REMARK    8  A    between atoms: C_12  and  C_18
REMARK    9  A    between atoms: C_18  and  C_20
REMARK   10  A    between atoms: C_18  and  C_21
REMARK   11  A    between atoms: C_23  and  C_26
REMARK   12  A    between atoms: C_24  and  C_27
REMARK   13  A    between atoms: C_25  and  C_28
REMARK                            x       y       z     vdW  Elec       q    Type
REMARK                         _______ _______ _______ _____ _____    ______ ____
ROOT
ATOM      7  C   UNL     1      13.228   7.142   2.314  0.00  0.00    -0.027 C 
ATOM      8  C   UNL     1      12.236   6.079   2.894  0.00  0.00    +0.028 C 
ATOM      9  C   UNL     1      11.264   5.554   1.777  0.00  0.00    +0.012 C 
ATOM     10  C   UNL     1      11.548   6.598   4.189  0.00  0.00    +0.122 C 
ATOM     11  C   UNL     1      14.241   7.553   3.409  0.00  0.00    +0.007 C 
ATOM     12  C   UNL     1      12.563   7.104   5.240  0.00  0.00    +0.029 C 
ATOM     13  C   UNL     1      14.024   6.507   1.151  0.00  0.00    +0.009 C 
ATOM     14  C   UNL     1      12.077   4.986   0.579  0.00  0.00    +0.078 C 
ATOM     15  C   UNL     1      13.571   8.098   4.664  0.00  0.00    +0.007 C 
ATOM     16  C   UNL     1      13.132   5.956   0.048  0.00  0.00    +0.023 C 
ATOM     17  C   UNL     1      12.504   8.413   1.803  0.00  0.00    +0.011 C 
ATOM     19  C   UNL     1      10.278   4.482   2.272  0.00  0.00    +0.010 C 
ENDROOT
BRANCH  14   4
ATOM      3  O   UNL     1      12.415   2.727  -1.184  0.00  0.00    -0.253 OA
ATOM      4  N   UNL     1      11.215   4.599  -0.518  0.00  0.00    -0.296 N 
ATOM      6  N   UNL     1      10.476   3.349  -2.296  0.00  0.00    -0.300 N 
ATOM     22  C   UNL     1      11.458   3.489  -1.319  0.00  0.00    +0.300 C 
ATOM     29  H   UNL     1      10.442   5.210  -0.764  0.00  0.00    +0.151 HD
ATOM     31  H   UNL     1       9.714   4.020  -2.322  0.00  0.00    +0.150 HD
BRANCH   6  25
ATOM     25  C   UNL     1      10.482   2.278  -3.264  0.00  0.00    +0.102 C 
ATOM     28  C   UNL     1       9.694   2.647  -4.504  0.00  0.00    +0.024 C 
ENDBRANCH   6  25
ENDBRANCH  14   4
BRANCH  10   1
ATOM      1  O   UNL     1      10.823   5.531   4.803  0.00  0.00    -0.391 OA
ATOM     30  H   UNL     1      10.720   4.819   4.149  0.00  0.00    +0.210 HD
ENDBRANCH  10   1
BRANCH  12  18
ATOM     18  C   UNL     1      11.862   7.731   6.453  0.00  0.00    +0.078 C 
ATOM     20  C   UNL     1      12.735   8.848   7.025  0.00  0.00    +0.017 C 
BRANCH  18  21
ATOM      2  O   UNL     1      12.482   5.856   7.807  0.00  0.00    -0.275 OA
ATOM      5  N   UNL     1      10.309   6.607   8.072  0.00  0.00    -0.302 N 
ATOM     21  C   UNL     1      11.587   6.654   7.505  0.00  0.00    +0.219 C 
BRANCH   5  23
ATOM     23  C   UNL     1      10.009   5.579   9.064  0.00  0.00    +0.104 C 
ATOM     26  C   UNL     1       9.708   4.247   8.407  0.00  0.00    +0.024 C 
ENDBRANCH   5  23
BRANCH   5  24
ATOM     24  C   UNL     1       9.211   7.531   7.799  0.00  0.00    +0.104 C 
ATOM     27  C   UNL     1       8.396   7.087   6.601  0.00  0.00    +0.024 C 
ENDBRANCH   5  24
ENDBRANCH  18  21
ENDBRANCH  12  18
TORSDOF 7
ENDMDL
MODEL 8
REMARK VINA RESULT:      -5.5     28.585     31.188
REMARK  Name = 28963143
REMARK  13 active torsions:
REMARK  status: ('A' for Active; 'I' for Inactive)
REMARK    1  A    between atoms: O_1  and  C_10
REMARK    2  A    between atoms: N_4  and  C_14
REMARK    3  A    between atoms: N_5  and  C_23
REMARK    4  A    between atoms: N_5  and  C_24
REMARK    5  A    between atoms: N_6  and  C_25
REMARK    6  A    between atoms: C_7  and  C_17
REMARK    7  A    between atoms: C_9  and  C_19
REMARK    8  A    between atoms: C_12  and  C_18
REMARK    9  A    between atoms: C_18  and  C_20
REMARK   10  A    between atoms: C_18  and  C_21
REMARK   11  A    between atoms: C_23  and  C_26
REMARK   12  A    between atoms: C_24  and  C_27
REMARK   13  A    between atoms: C_25  and  C_28
REMARK                            x       y       z     vdW  Elec       q    Type
REMARK                         _______ _______ _______ _____ _____    ______ ____
ROOT
ATOM      7  C   UNL     1      13.920   8.022  20.774  0.00  0.00    -0.027 C 
ATOM      8  C   UNL     1      14.784   8.926  21.715  0.00  0.00    +0.028 C 
ATOM      9  C   UNL     1      14.179  10.373  21.809  0.00  0.00    +0.012 C 
ATOM     10  C   UNL     1      16.292   8.855  21.335  0.00  0.00    +0.122 C 
ATOM     11  C   UNL     1      14.476   6.578  20.793  0.00  0.00    +0.007 C 
ATOM     12  C   UNL     1      16.817   7.403  21.255  0.00  0.00    +0.029 C 
ATOM     13  C   UNL     1      12.472   7.975  21.311  0.00  0.00    +0.009 C 
ATOM     14  C   UNL     1      12.699  10.309  22.278  0.00  0.00    +0.078 C 
ATOM     15  C   UNL     1      15.942   6.501  20.385  0.00  0.00    +0.007 C 
ATOM     16  C   UNL     1      11.841   9.353  21.449  0.00  0.00    +0.023 C 
ATOM     17  C   UNL     1      13.905   8.531  19.310  0.00  0.00    +0.011 C 
ATOM     19  C   UNL     1      14.965  11.310  22.742  0.00  0.00    +0.010 C 
ENDROOT
BRANCH  14   4
ATOM      3  O   UNL     1      10.825  11.360  24.204  0.00  0.00    -0.253 OA
ATOM      4  N   UNL     1      12.075  11.615  22.265  0.00  0.00    -0.296 N 
ATOM      6  N   UNL     1      10.731  13.332  22.985  0.00  0.00    -0.300 N 
ATOM     22  C   UNL     1      11.178  12.038  23.240  0.00  0.00    +0.300 C 
ATOM     29  H   UNL     1      12.239  12.220  21.466  0.00  0.00    +0.151 HD
ATOM     31  H   UNL     1      11.090  13.821  22.170  0.00  0.00    +0.150 HD
BRANCH   6  25
ATOM     25  C   UNL     1       9.793  14.019  23.840  0.00  0.00    +0.102 C 
ATOM     28  C   UNL     1      10.502  14.902  24.845  0.00  0.00    +0.024 C 
ENDBRANCH   6  25
ENDBRANCH  14   4
BRANCH  10   1
ATOM      1  O   UNL     1      17.067   9.514  22.338  0.00  0.00    -0.391 OA
ATOM     30  H   UNL     1      16.521   9.590  23.141  0.00  0.00    +0.210 HD
ENDBRANCH  10   1
BRANCH  12  18
ATOM     18  C   UNL     1      18.266   7.348  20.754  0.00  0.00    +0.078 C 
ATOM     20  C   UNL     1      18.417   6.198  19.758  0.00  0.00    +0.017 C 
BRANCH  18  21
ATOM      2  O   UNL     1      19.088   6.203  22.689  0.00  0.00    -0.275 OA
ATOM      5  N   UNL     1      20.194   8.160  22.139  0.00  0.00    -0.302 N 
ATOM     21  C   UNL     1      19.217   7.178  21.941  0.00  0.00    +0.219 C 
BRANCH   5  23
ATOM     23  C   UNL     1      21.104   8.037  23.274  0.00  0.00    +0.104 C 
ATOM     26  C   UNL     1      20.667   8.912  24.431  0.00  0.00    +0.024 C 
ENDBRANCH   5  23
BRANCH   5  24
ATOM     24  C   UNL     1      20.437   9.319  21.284  0.00  0.00    +0.104 C 
ATOM     27  C   UNL     1      21.852   9.325  20.744  0.00  0.00    +0.024 C 
ENDBRANCH   5  24
ENDBRANCH  18  21
ENDBRANCH  12  18
TORSDOF 7
ENDMDL
MODEL 9
REMARK VINA RESULT:      -5.2     18.826     21.041
REMARK  Name = 28963143
REMARK  13 active torsions:
REMARK  status: ('A' for Active; 'I' for Inactive)
REMARK    1  A    between atoms: O_1  and  C_10
REMARK    2  A    between atoms: N_4  and  C_14
REMARK    3  A    between atoms: N_5  and  C_23
REMARK    4  A    between atoms: N_5  and  C_24
REMARK    5  A    between atoms: N_6  and  C_25
REMARK    6  A    between atoms: C_7  and  C_17
REMARK    7  A    between atoms: C_9  and  C_19
REMARK    8  A    between atoms: C_12  and  C_18
REMARK    9  A    between atoms: C_18  and  C_20
REMARK   10  A    between atoms: C_18  and  C_21
REMARK   11  A    between atoms: C_23  and  C_26
REMARK   12  A    between atoms: C_24  and  C_27
REMARK   13  A    between atoms: C_25  and  C_28
REMARK                            x       y       z     vdW  Elec       q    Type
REMARK                         _______ _______ _______ _____ _____    ______ ____
ROOT
ATOM      7  C   UNL     1     -14.450   9.039  19.676  0.00  0.00    -0.027 C 
ATOM      8  C   UNL     1     -13.388   7.890  19.661  0.00  0.00    +0.028 C 
ATOM      9  C   UNL     1     -13.296   7.196  21.068  0.00  0.00    +0.012 C 
ATOM     10  C   UNL     1     -12.035   8.380  19.068  0.00  0.00    +0.122 C 
ATOM     11  C   UNL     1     -14.596   9.625  18.251  0.00  0.00    +0.007 C 
ATOM     12  C   UNL     1     -12.202   9.058  17.688  0.00  0.00    +0.029 C 
ATOM     13  C   UNL     1     -15.820   8.455  20.088  0.00  0.00    +0.009 C 
ATOM     14  C   UNL     1     -14.695   6.678  21.505  0.00  0.00    +0.078 C 
ATOM     15  C   UNL     1     -13.281  10.141  17.682  0.00  0.00    +0.007 C 
ATOM     16  C   UNL     1     -15.787   7.745  21.434  0.00  0.00    +0.023 C 
ATOM     17  C   UNL     1     -14.072  10.186  20.648  0.00  0.00    +0.011 C 
ATOM     19  C   UNL     1     -12.288   6.036  21.117  0.00  0.00    +0.010 C 
ENDROOT
BRANCH  14   4
ATOM      3  O   UNL     1     -15.894   4.213  22.407  0.00  0.00    -0.253 OA
ATOM      4  N   UNL     1     -14.670   6.136  22.847  0.00  0.00    -0.296 N 
ATOM      6  N   UNL     1     -15.102   4.651  24.544  0.00  0.00    -0.300 N 
ATOM     22  C   UNL     1     -15.279   4.934  23.192  0.00  0.00    +0.300 C 
ATOM     29  H   UNL     1     -14.257   6.696  23.587  0.00  0.00    +0.151 HD
ATOM     31  H   UNL     1     -14.567   5.300  25.113  0.00  0.00    +0.150 HD
BRANCH   6  25
ATOM     25  C   UNL     1     -15.631   3.463  25.170  0.00  0.00    +0.102 C 
ATOM     28  C   UNL     1     -16.699   3.801  26.190  0.00  0.00    +0.024 C 
ENDBRANCH   6  25
ENDBRANCH  14   4
BRANCH  10   1
ATOM      1  O   UNL     1     -11.169   7.262  18.871  0.00  0.00    -0.391 OA
ATOM     30  H   UNL     1     -10.338   7.436  19.347  0.00  0.00    +0.210 HD
ENDBRANCH  10   1
BRANCH  12  18
ATOM     18  C   UNL     1     -10.881   9.649  17.180  0.00  0.00    +0.078 C 
ATOM     20  C   UNL     1     -10.279  10.550  18.259  0.00  0.00    +0.017 C 
BRANCH  18  21
ATOM      2  O   UNL     1     -11.082  11.664  15.902  0.00  0.00    -0.275 OA
ATOM      5  N   UNL     1     -11.412   9.697  14.728  0.00  0.00    -0.302 N 
ATOM     21  C   UNL     1     -11.126  10.429  15.886  0.00  0.00    +0.219 C 
BRANCH   5  23
ATOM     23  C   UNL     1     -11.671  10.411  13.482  0.00  0.00    +0.104 C 
ATOM     26  C   UNL     1     -13.140  10.369  13.115  0.00  0.00    +0.024 C 
ENDBRANCH   5  23
BRANCH   5  24
ATOM     24  C   UNL     1     -11.447   8.241  14.616  0.00  0.00    +0.104 C 
ATOM     27  C   UNL     1     -10.347   7.727  13.711  0.00  0.00    +0.024 C 
ENDBRANCH   5  24
ENDBRANCH  18  21
ENDBRANCH  12  18
TORSDOF 7
ENDMDL
MODEL 10
REMARK VINA RESULT:      -5.2     23.082     26.164
REMARK  Name = 28963143
REMARK  13 active torsions:
REMARK  status: ('A' for Active; 'I' for Inactive)
REMARK    1  A    between atoms: O_1  and  C_10
REMARK    2  A    between atoms: N_4  and  C_14
REMARK    3  A    between atoms: N_5  and  C_23
REMARK    4  A    between atoms: N_5  and  C_24
REMARK    5  A    between atoms: N_6  and  C_25
REMARK    6  A    between atoms: C_7  and  C_17
REMARK    7  A    between atoms: C_9  and  C_19
REMARK    8  A    between atoms: C_12  and  C_18
REMARK    9  A    between atoms: C_18  and  C_20
REMARK   10  A    between atoms: C_18  and  C_21
REMARK   11  A    between atoms: C_23  and  C_26
REMARK   12  A    between atoms: C_24  and  C_27
REMARK   13  A    between atoms: C_25  and  C_28
REMARK                            x       y       z     vdW  Elec       q    Type
REMARK                         _______ _______ _______ _____ _____    ______ ____
ROOT
ATOM      7  C   UNL     1      12.630   3.950  -0.358  0.00  0.00    -0.027 C 
ATOM      8  C   UNL     1      11.159   4.481  -0.434  0.00  0.00    +0.028 C 
ATOM      9  C   UNL     1      10.774   4.849  -1.912  0.00  0.00    +0.012 C 
ATOM     10  C   UNL     1      10.909   5.598   0.620  0.00  0.00    +0.122 C 
ATOM     11  C   UNL     1      12.938   3.491   1.087  0.00  0.00    +0.007 C 
ATOM     12  C   UNL     1      11.316   5.169   2.049  0.00  0.00    +0.029 C 
ATOM     13  C   UNL     1      12.770   2.719  -1.282  0.00  0.00    +0.009 C 
ATOM     14  C   UNL     1      10.991   3.625  -2.846  0.00  0.00    +0.078 C 
ATOM     15  C   UNL     1      12.731   4.594   2.118  0.00  0.00    +0.007 C 
ATOM     16  C   UNL     1      12.384   3.008  -2.725  0.00  0.00    +0.023 C 
ATOM     17  C   UNL     1      13.670   5.020  -0.773  0.00  0.00    +0.011 C 
ATOM     19  C   UNL     1       9.329   5.353  -2.064  0.00  0.00    +0.010 C 
ENDROOT
BRANCH  14   4
ATOM      3  O   UNL     1       9.412   2.141  -4.751  0.00  0.00    -0.253 OA
ATOM      4  N   UNL     1      10.755   3.962  -4.234  0.00  0.00    -0.296 N 
ATOM      6  N   UNL     1       9.918   3.735  -6.359  0.00  0.00    -0.300 N 
ATOM     22  C   UNL     1       9.977   3.182  -5.083  0.00  0.00    +0.300 C 
ATOM     29  H   UNL     1      11.245   4.760  -4.627  0.00  0.00    +0.151 HD
ATOM     31  H   UNL     1      10.407   4.608  -6.537  0.00  0.00    +0.150 HD
BRANCH   6  25
ATOM     25  C   UNL     1       9.176   3.131  -7.440  0.00  0.00    +0.102 C 
ATOM     28  C   UNL     1      10.034   2.167  -8.233  0.00  0.00    +0.024 C 
ENDBRANCH   6  25
ENDBRANCH  14   4
BRANCH  10   1
ATOM      1  O   UNL     1       9.514   5.903   0.668  0.00  0.00    -0.391 OA
ATOM     30  H   UNL     1       9.266   6.038   1.599  0.00  0.00    +0.210 HD
ENDBRANCH  10   1
BRANCH  12  18
ATOM     18  C   UNL     1      11.184   6.324   3.049  0.00  0.00    +0.078 C 
ATOM     20  C   UNL     1      12.549   6.616   3.674  0.00  0.00    +0.017 C 
BRANCH  18  21
ATOM      2  O   UNL     1      10.164   4.834   4.622  0.00  0.00    -0.275 OA
ATOM      5  N   UNL     1       9.219   6.941   4.482  0.00  0.00    -0.302 N 
ATOM     21  C   UNL     1      10.154   5.964   4.123  0.00  0.00    +0.219 C 
BRANCH   5  23
ATOM     23  C   UNL     1       8.210   6.623   5.487  0.00  0.00    +0.104 C 
ATOM     26  C   UNL     1       8.515   7.293   6.811  0.00  0.00    +0.024 C 
ENDBRANCH   5  23
BRANCH   5  24
ATOM     24  C   UNL     1       9.160   8.308   3.969  0.00  0.00    +0.104 C 
ATOM     27  C   UNL     1       8.181   8.429   2.820  0.00  0.00    +0.024 C 
ENDBRANCH   5  24
ENDBRANCH  18  21
ENDBRANCH  12  18
TORSDOF 7
ENDMDL
