MODEL 1
REMARK VINA RESULT:      -8.2      0.000      0.000
REMARK  Name = 7674728
REMARK  4 active torsions:
REMARK  status: ('A' for Active; 'I' for Inactive)
REMARK    1  A    between atoms: O_7  and  C_31
REMARK    2  A    between atoms: O_7  and  C_35
REMARK    3  A    between atoms: N_10  and  C_24
REMARK    4  A    between atoms: C_21  and  C_23
REMARK                            x       y       z     vdW  Elec       q    Type
REMARK                         _______ _______ _______ _____ _____    ______ ____
ROOT
ATOM      5  O   UNL     1      10.524   7.315   2.369  0.00  0.00    -0.267 OA
ATOM      6  O   UNL     1      13.381   6.367   7.318  0.00  0.00    -0.252 OA
ATOM      8  N   UNL     1      11.395   7.555   7.306  0.00  0.00    -0.284 N 
ATOM      9  N   UNL     1       9.968   6.756   4.564  0.00  0.00    -0.311 N 
ATOM     10  N   UNL     1      13.414   8.590   6.659  0.00  0.00    -0.269 N 
ATOM     11  C   UNL     1       9.306   8.512   6.306  0.00  0.00    +0.027 C 
ATOM     12  C   UNL     1       9.383   6.138   6.934  0.00  0.00    +0.054 C 
ATOM     13  C   UNL     1       8.502   7.384   6.941  0.00  0.00    +0.018 C 
ATOM     14  C   UNL     1       9.590   8.149   4.842  0.00  0.00    +0.130 C 
ATOM     15  C   UNL     1      10.604   8.778   7.093  0.00  0.00    +0.114 C 
ATOM     16  C   UNL     1      10.633   6.399   7.793  0.00  0.00    +0.119 C 
ATOM     17  C   UNL     1       9.799   5.758   5.526  0.00  0.00    +0.027 A 
ATOM     18  C   UNL     1      10.034   4.474   5.211  0.00  0.00    +0.022 A 
ATOM     19  C   UNL     1      10.399   6.467   3.255  0.00  0.00    +0.259 A 
ATOM     20  C   UNL     1      12.787   7.426   7.100  0.00  0.00    +0.306 C 
ATOM     21  C   UNL     1      10.696   5.025   2.945  0.00  0.00    +0.047 A 
ATOM     22  C   UNL     1      10.496   4.107   3.903  0.00  0.00    +0.015 A 
ATOM     36  H   UNL     1      13.005   9.482   6.915  0.00  0.00    +0.156 HD
ENDROOT
BRANCH  10  24
ATOM      1  F   UNL     1      16.089   7.347   2.874  0.00  0.00    -0.205 F 
ATOM     24  C   UNL     1      14.615   8.686   5.914  0.00  0.00    +0.037 A 
ATOM     29  C   UNL     1      14.761   7.954   4.740  0.00  0.00    +0.061 A 
ATOM     30  C   UNL     1      15.643   9.512   6.362  0.00  0.00    +0.023 A 
ATOM     32  C   UNL     1      15.944   8.049   4.006  0.00  0.00    +0.125 A 
ATOM     33  C   UNL     1      16.825   9.606   5.629  0.00  0.00    +0.005 A 
ATOM     34  C   UNL     1      16.976   8.875   4.451  0.00  0.00    +0.038 A 
ENDBRANCH  10  24
BRANCH  21  23
ATOM     23  C   UNL     1      11.205   4.616   1.625  0.00  0.00    -0.012 A 
ATOM     25  C   UNL     1      12.485   4.072   1.507  0.00  0.00    +0.012 A 
ATOM     26  C   UNL     1      10.408   4.773   0.490  0.00  0.00    +0.012 A 
ATOM     27  C   UNL     1      12.967   3.686   0.257  0.00  0.00    +0.046 A 
ATOM     28  C   UNL     1      10.891   4.387  -0.761  0.00  0.00    +0.046 A 
ATOM     31  C   UNL     1      12.170   3.843  -0.878  0.00  0.00    +0.130 A 
BRANCH  31   7
ATOM      7  O   UNL     1      12.641   3.467  -2.097  0.00  0.00    -0.406 OA
BRANCH   7  35
ATOM      2  F   UNL     1      12.061   1.266  -1.875  0.00  0.00    -0.133 F 
ATOM      3  F   UNL     1      12.814   1.989  -3.796  0.00  0.00    -0.133 F 
ATOM      4  F   UNL     1      10.812   2.576  -3.143  0.00  0.00    -0.133 F 
ATOM     35  C   UNL     1      12.068   2.320  -2.717  0.00  0.00    +0.575 C 
ENDBRANCH   7  35
ENDBRANCH  31   7
ENDBRANCH  21  23
TORSDOF 4
ENDMDL
MODEL 2
REMARK VINA RESULT:      -7.6      2.714      5.074
REMARK  Name = 7674728
REMARK  4 active torsions:
REMARK  status: ('A' for Active; 'I' for Inactive)
REMARK    1  A    between atoms: O_7  and  C_31
REMARK    2  A    between atoms: O_7  and  C_35
REMARK    3  A    between atoms: N_10  and  C_24
REMARK    4  A    between atoms: C_21  and  C_23
REMARK                            x       y       z     vdW  Elec       q    Type
REMARK                         _______ _______ _______ _____ _____    ______ ____
ROOT
ATOM      5  O   UNL     1       9.941   4.628   3.457  0.00  0.00    -0.267 OA
ATOM      6  O   UNL     1       9.613  10.285   4.659  0.00  0.00    -0.252 OA
ATOM      8  N   UNL     1       9.257   8.702   6.308  0.00  0.00    -0.284 N 
ATOM      9  N   UNL     1      10.607   6.030   5.198  0.00  0.00    -0.311 N 
ATOM     10  N   UNL     1       7.559   9.215   4.752  0.00  0.00    -0.269 N 
ATOM     11  C   UNL     1       9.180   6.399   7.291  0.00  0.00    +0.027 C 
ATOM     12  C   UNL     1      11.334   7.558   7.063  0.00  0.00    +0.054 C 
ATOM     13  C   UNL     1      10.509   6.666   7.987  0.00  0.00    +0.018 C 
ATOM     14  C   UNL     1       9.450   5.611   6.002  0.00  0.00    +0.130 C 
ATOM     15  C   UNL     1       8.426   7.713   7.014  0.00  0.00    +0.114 C 
ATOM     16  C   UNL     1      10.600   8.896   6.867  0.00  0.00    +0.119 C 
ATOM     17  C   UNL     1      11.569   6.899   5.718  0.00  0.00    +0.027 A 
ATOM     18  C   UNL     1      12.679   7.171   5.014  0.00  0.00    +0.022 A 
ATOM     19  C   UNL     1      10.749   5.428   3.933  0.00  0.00    +0.259 A 
ATOM     20  C   UNL     1       8.861   9.462   5.185  0.00  0.00    +0.306 C 
ATOM     21  C   UNL     1      11.983   5.786   3.150  0.00  0.00    +0.047 A 
ATOM     22  C   UNL     1      12.882   6.610   3.708  0.00  0.00    +0.015 A 
ATOM     36  H   UNL     1       6.878   8.898   5.435  0.00  0.00    +0.156 HD
ENDROOT
BRANCH  10  24
ATOM      1  F   UNL     1       8.008   8.839  -0.010  0.00  0.00    -0.205 F 
ATOM     24  C   UNL     1       7.040   9.401   3.447  0.00  0.00    +0.037 A 
ATOM     29  C   UNL     1       7.796   9.021   2.342  0.00  0.00    +0.061 A 
ATOM     30  C   UNL     1       5.778   9.963   3.278  0.00  0.00    +0.023 A 
ATOM     32  C   UNL     1       7.285   9.204   1.057  0.00  0.00    +0.125 A 
ATOM     33  C   UNL     1       5.268  10.147   1.994  0.00  0.00    +0.005 A 
ATOM     34  C   UNL     1       6.021   9.767   0.883  0.00  0.00    +0.038 A 
ENDBRANCH  10  24
BRANCH  21  23
ATOM     23  C   UNL     1      12.207   5.258   1.793  0.00  0.00    -0.012 A 
ATOM     25  C   UNL     1      11.780   5.985   0.680  0.00  0.00    +0.012 A 
ATOM     26  C   UNL     1      12.847   4.031   1.618  0.00  0.00    +0.012 A 
ATOM     27  C   UNL     1      11.992   5.485  -0.604  0.00  0.00    +0.046 A 
ATOM     28  C   UNL     1      13.058   3.530   0.333  0.00  0.00    +0.046 A 
ATOM     31  C   UNL     1      12.632   4.257  -0.777  0.00  0.00    +0.130 A 
BRANCH  31   7
ATOM      7  O   UNL     1      12.837   3.769  -2.031  0.00  0.00    -0.406 OA
BRANCH   7  35
ATOM      2  F   UNL     1      11.934   2.748  -3.868  0.00  0.00    -0.133 F 
ATOM      3  F   UNL     1      10.693   3.062  -2.096  0.00  0.00    -0.133 F 
ATOM      4  F   UNL     1      12.273   1.552  -2.041  0.00  0.00    -0.133 F 
ATOM     35  C   UNL     1      11.946   2.772  -2.519  0.00  0.00    +0.575 C 
ENDBRANCH   7  35
ENDBRANCH  31   7
ENDBRANCH  21  23
TORSDOF 4
ENDMDL
MODEL 3
REMARK VINA RESULT:      -7.6     27.160     30.706
REMARK  Name = 7674728
REMARK  4 active torsions:
REMARK  status: ('A' for Active; 'I' for Inactive)
REMARK    1  A    between atoms: O_7  and  C_31
REMARK    2  A    between atoms: O_7  and  C_35
REMARK    3  A    between atoms: N_10  and  C_24
REMARK    4  A    between atoms: C_21  and  C_23
REMARK                            x       y       z     vdW  Elec       q    Type
REMARK                         _______ _______ _______ _____ _____    ______ ____
ROOT
ATOM      5  O   UNL     1     -14.449   9.352  19.675  0.00  0.00    -0.267 OA
ATOM      6  O   UNL     1     -10.953   8.453  15.145  0.00  0.00    -0.252 OA
ATOM      8  N   UNL     1     -11.304  10.588  15.964  0.00  0.00    -0.284 N 
ATOM      9  N   UNL     1     -12.393  10.167  18.936  0.00  0.00    -0.311 N 
ATOM     10  N   UNL     1     -12.911   9.558  14.578  0.00  0.00    -0.269 N 
ATOM     11  C   UNL     1     -12.178  12.313  17.557  0.00  0.00    +0.027 C 
ATOM     12  C   UNL     1     -10.166  11.027  18.134  0.00  0.00    +0.054 C 
ATOM     13  C   UNL     1     -10.793  12.418  18.183  0.00  0.00    +0.018 C 
ATOM     14  C   UNL     1     -13.039  11.383  18.422  0.00  0.00    +0.130 C 
ATOM     15  C   UNL     1     -12.091  11.824  16.098  0.00  0.00    +0.114 C 
ATOM     16  C   UNL     1     -10.014  10.595  16.665  0.00  0.00    +0.119 C 
ATOM     17  C   UNL     1     -11.006  10.012  18.884  0.00  0.00    +0.027 A 
ATOM     18  C   UNL     1     -10.426   8.952  19.469  0.00  0.00    +0.022 A 
ATOM     19  C   UNL     1     -13.226   9.230  19.577  0.00  0.00    +0.259 A 
ATOM     20  C   UNL     1     -11.679   9.446  15.221  0.00  0.00    +0.306 C 
ATOM     21  C   UNL     1     -12.551   8.031  20.185  0.00  0.00    +0.047 A 
ATOM     22  C   UNL     1     -11.214   7.945  20.122  0.00  0.00    +0.015 A 
ATOM     36  H   UNL     1     -13.232  10.483  14.312  0.00  0.00    +0.156 HD
ENDROOT
BRANCH  10  24
ATOM      1  F   UNL     1     -16.395   6.430  15.629  0.00  0.00    -0.205 F 
ATOM     24  C   UNL     1     -13.776   8.503  14.197  0.00  0.00    +0.037 A 
ATOM     29  C   UNL     1     -14.675   7.977  15.120  0.00  0.00    +0.061 A 
ATOM     30  C   UNL     1     -13.721   7.997  12.901  0.00  0.00    +0.023 A 
ATOM     32  C   UNL     1     -15.527   6.939  14.744  0.00  0.00    +0.125 A 
ATOM     33  C   UNL     1     -14.572   6.959  12.525  0.00  0.00    +0.005 A 
ATOM     34  C   UNL     1     -15.475   6.429  13.447  0.00  0.00    +0.038 A 
ENDBRANCH  10  24
BRANCH  21  23
ATOM     23  C   UNL     1     -13.331   6.962  20.831  0.00  0.00    -0.012 A 
ATOM     25  C   UNL     1     -14.699   6.846  20.582  0.00  0.00    +0.012 A 
ATOM     26  C   UNL     1     -12.702   6.062  21.693  0.00  0.00    +0.012 A 
ATOM     27  C   UNL     1     -15.437   5.833  21.194  0.00  0.00    +0.046 A 
ATOM     28  C   UNL     1     -13.441   5.049  22.306  0.00  0.00    +0.046 A 
ATOM     31  C   UNL     1     -14.808   4.934  22.055  0.00  0.00    +0.130 A 
BRANCH  31   7
ATOM      7  O   UNL     1     -15.528   3.947  22.653  0.00  0.00    -0.406 OA
BRANCH   7  35
ATOM      2  F   UNL     1     -14.941   3.527  24.824  0.00  0.00    -0.133 F 
ATOM      3  F   UNL     1     -17.050   3.483  24.255  0.00  0.00    -0.133 F 
ATOM      4  F   UNL     1     -16.010   5.402  24.351  0.00  0.00    -0.133 F 
ATOM     35  C   UNL     1     -15.868   4.099  24.028  0.00  0.00    +0.575 C 
ENDBRANCH   7  35
ENDBRANCH  31   7
ENDBRANCH  21  23
TORSDOF 4
ENDMDL
MODEL 4
REMARK VINA RESULT:      -7.5      2.548      7.545
REMARK  Name = 7674728
REMARK  4 active torsions:
REMARK  status: ('A' for Active; 'I' for Inactive)
REMARK    1  A    between atoms: O_7  and  C_31
REMARK    2  A    between atoms: O_7  and  C_35
REMARK    3  A    between atoms: N_10  and  C_24
REMARK    4  A    between atoms: C_21  and  C_23
REMARK                            x       y       z     vdW  Elec       q    Type
REMARK                         _______ _______ _______ _____ _____    ______ ____
ROOT
ATOM      5  O   UNL     1      13.825   6.578   6.934  0.00  0.00    -0.267 OA
ATOM      6  O   UNL     1       9.631   7.628   3.080  0.00  0.00    -0.252 OA
ATOM      8  N   UNL     1       9.123   6.853   5.200  0.00  0.00    -0.284 N 
ATOM      9  N   UNL     1      11.696   7.529   6.967  0.00  0.00    -0.311 N 
ATOM     10  N   UNL     1       9.902   5.371   3.538  0.00  0.00    -0.269 N 
ATOM     11  C   UNL     1       9.599   6.188   7.568  0.00  0.00    +0.027 C 
ATOM     12  C   UNL     1       9.401   8.566   6.984  0.00  0.00    +0.054 C 
ATOM     13  C   UNL     1       9.043   7.525   8.042  0.00  0.00    +0.018 C 
ATOM     14  C   UNL     1      11.130   6.285   7.510  0.00  0.00    +0.130 C 
ATOM     15  C   UNL     1       8.997   5.788   6.208  0.00  0.00    +0.114 C 
ATOM     16  C   UNL     1       8.722   8.189   5.656  0.00  0.00    +0.119 C 
ATOM     17  C   UNL     1      10.901   8.663   6.785  0.00  0.00    +0.027 A 
ATOM     18  C   UNL     1      11.461   9.822   6.405  0.00  0.00    +0.022 A 
ATOM     19  C   UNL     1      13.087   7.548   6.749  0.00  0.00    +0.259 A 
ATOM     20  C   UNL     1       9.569   6.684   3.870  0.00  0.00    +0.306 C 
ATOM     21  C   UNL     1      13.679   8.850   6.282  0.00  0.00    +0.047 A 
ATOM     22  C   UNL     1      12.870   9.911   6.144  0.00  0.00    +0.015 A 
ATOM     36  H   UNL     1       9.437   4.618   4.033  0.00  0.00    +0.156 HD
ENDROOT
BRANCH  10  24
ATOM      1  F   UNL     1      14.380   4.832   1.902  0.00  0.00    -0.205 F 
ATOM     24  C   UNL     1      10.803   4.945   2.531  0.00  0.00    +0.037 A 
ATOM     29  C   UNL     1      12.173   5.102   2.718  0.00  0.00    +0.061 A 
ATOM     30  C   UNL     1      10.313   4.372   1.361  0.00  0.00    +0.023 A 
ATOM     32  C   UNL     1      13.061   4.683   1.727  0.00  0.00    +0.125 A 
ATOM     33  C   UNL     1      11.199   3.953   0.370  0.00  0.00    +0.005 A 
ATOM     34  C   UNL     1      12.574   4.109   0.552  0.00  0.00    +0.038 A 
ENDBRANCH  10  24
BRANCH  21  23
ATOM     23  C   UNL     1      15.113   8.968   5.970  0.00  0.00    -0.012 A 
ATOM     25  C   UNL     1      15.727   8.033   5.135  0.00  0.00    +0.012 A 
ATOM     26  C   UNL     1      15.861  10.016   6.509  0.00  0.00    +0.012 A 
ATOM     27  C   UNL     1      17.085   8.146   4.840  0.00  0.00    +0.046 A 
ATOM     28  C   UNL     1      17.220  10.129   6.214  0.00  0.00    +0.046 A 
ATOM     31  C   UNL     1      17.832   9.194   5.379  0.00  0.00    +0.130 A 
BRANCH  31   7
ATOM      7  O   UNL     1      19.157   9.302   5.092  0.00  0.00    -0.406 OA
BRANCH   7  35
ATOM      2  F   UNL     1      19.642   8.078   6.962  0.00  0.00    -0.133 F 
ATOM      3  F   UNL     1      21.271   8.988   5.823  0.00  0.00    -0.133 F 
ATOM      4  F   UNL     1      20.207   7.273   4.984  0.00  0.00    -0.133 F 
ATOM     35  C   UNL     1      20.058   8.396   5.719  0.00  0.00    +0.575 C 
ENDBRANCH   7  35
ENDBRANCH  31   7
ENDBRANCH  21  23
TORSDOF 4
ENDMDL
MODEL 5
REMARK VINA RESULT:      -7.4     26.264     28.960
REMARK  Name = 7674728
REMARK  4 active torsions:
REMARK  status: ('A' for Active; 'I' for Inactive)
REMARK    1  A    between atoms: O_7  and  C_31
REMARK    2  A    between atoms: O_7  and  C_35
REMARK    3  A    between atoms: N_10  and  C_24
REMARK    4  A    between atoms: C_21  and  C_23
REMARK                            x       y       z     vdW  Elec       q    Type
REMARK                         _______ _______ _______ _____ _____    ______ ____
ROOT
ATOM      5  O   UNL     1      -7.723  -8.935  16.965  0.00  0.00    -0.267 OA
ATOM      6  O   UNL     1      -5.222 -12.901  13.564  0.00  0.00    -0.252 OA
ATOM      8  N   UNL     1      -4.303 -12.352  15.616  0.00  0.00    -0.284 N 
ATOM      9  N   UNL     1      -6.688 -11.004  17.257  0.00  0.00    -0.311 N 
ATOM     10  N   UNL     1      -3.984 -10.948  13.747  0.00  0.00    -0.269 N 
ATOM     11  C   UNL     1      -4.209 -11.231  17.855  0.00  0.00    +0.027 C 
ATOM     12  C   UNL     1      -5.582 -13.247  17.555  0.00  0.00    +0.054 C 
ATOM     13  C   UNL     1      -4.626 -12.541  18.513  0.00  0.00    +0.018 C 
ATOM     14  C   UNL     1      -5.451 -10.344  17.697  0.00  0.00    +0.130 C 
ATOM     15  C   UNL     1      -3.511 -11.487  16.505  0.00  0.00    +0.114 C 
ATOM     16  C   UNL     1      -4.839 -13.565  16.246  0.00  0.00    +0.119 C 
ATOM     17  C   UNL     1      -6.802 -12.396  17.261  0.00  0.00    +0.027 A 
ATOM     18  C   UNL     1      -7.978 -12.976  16.973  0.00  0.00    +0.022 A 
ATOM     19  C   UNL     1      -7.775 -10.167  16.943  0.00  0.00    +0.259 A 
ATOM     20  C   UNL     1      -4.559 -12.116  14.247  0.00  0.00    +0.306 C 
ATOM     21  C   UNL     1      -9.069 -10.846  16.582  0.00  0.00    +0.047 A 
ATOM     22  C   UNL     1      -9.124 -12.185  16.622  0.00  0.00    +0.015 A 
ATOM     36  H   UNL     1      -3.138 -10.603  14.188  0.00  0.00    +0.156 HD
ENDROOT
BRANCH  10  24
ATOM      1  F   UNL     1      -3.203  -9.080   9.397  0.00  0.00    -0.205 F 
ATOM     24  C   UNL     1      -4.423 -10.185  12.637  0.00  0.00    +0.037 A 
ATOM     29  C   UNL     1      -3.580 -10.006  11.544  0.00  0.00    +0.061 A 
ATOM     30  C   UNL     1      -5.694  -9.618  12.646  0.00  0.00    +0.023 A 
ATOM     32  C   UNL     1      -4.011  -9.255  10.451  0.00  0.00    +0.125 A 
ATOM     33  C   UNL     1      -6.126  -8.867  11.553  0.00  0.00    +0.005 A 
ATOM     34  C   UNL     1      -5.284  -8.685  10.456  0.00  0.00    +0.038 A 
ENDBRANCH  10  24
BRANCH  21  23
ATOM     23  C   UNL     1     -10.254 -10.068  16.183  0.00  0.00    -0.012 A 
ATOM     25  C   UNL     1     -11.260  -9.798  17.113  0.00  0.00    +0.012 A 
ATOM     26  C   UNL     1     -10.373  -9.600  14.874  0.00  0.00    +0.012 A 
ATOM     27  C   UNL     1     -12.382  -9.062  16.734  0.00  0.00    +0.046 A 
ATOM     28  C   UNL     1     -11.496  -8.863  14.495  0.00  0.00    +0.046 A 
ATOM     31  C   UNL     1     -12.500  -8.594  15.425  0.00  0.00    +0.130 A 
BRANCH  31   7
ATOM      7  O   UNL     1     -13.595  -7.877  15.055  0.00  0.00    -0.406 OA
BRANCH   7  35
ATOM      2  F   UNL     1     -12.506  -6.065  15.928  0.00  0.00    -0.133 F 
ATOM      3  F   UNL     1     -14.564  -6.476  16.537  0.00  0.00    -0.133 F 
ATOM      4  F   UNL     1     -14.175  -5.730  14.520  0.00  0.00    -0.133 F 
ATOM     35  C   UNL     1     -13.698  -6.528  15.499  0.00  0.00    +0.575 C 
ENDBRANCH   7  35
ENDBRANCH  31   7
ENDBRANCH  21  23
TORSDOF 4
ENDMDL
MODEL 6
REMARK VINA RESULT:      -7.1     28.126     30.850
REMARK  Name = 7674728
REMARK  4 active torsions:
REMARK  status: ('A' for Active; 'I' for Inactive)
REMARK    1  A    between atoms: O_7  and  C_31
REMARK    2  A    between atoms: O_7  and  C_35
REMARK    3  A    between atoms: N_10  and  C_24
REMARK    4  A    between atoms: C_21  and  C_23
REMARK                            x       y       z     vdW  Elec       q    Type
REMARK                         _______ _______ _______ _____ _____    ______ ____
ROOT
ATOM      5  O   UNL     1      -8.463 -12.857  16.049  0.00  0.00    -0.267 OA
ATOM      6  O   UNL     1     -11.248  -9.769  20.082  0.00  0.00    -0.252 OA
ATOM      8  N   UNL     1     -11.985 -11.881  19.490  0.00  0.00    -0.284 N 
ATOM      9  N   UNL     1      -9.468 -13.280  18.110  0.00  0.00    -0.311 N 
ATOM     10  N   UNL     1     -12.465 -10.017  18.124  0.00  0.00    -0.269 N 
ATOM     11  C   UNL     1     -11.886 -14.095  18.322  0.00  0.00    +0.027 C 
ATOM     12  C   UNL     1     -10.544 -13.720  20.345  0.00  0.00    +0.054 C 
ATOM     13  C   UNL     1     -11.413 -14.742  19.618  0.00  0.00    +0.018 C 
ATOM     14  C   UNL     1     -10.663 -13.812  17.439  0.00  0.00    +0.130 C 
ATOM     15  C   UNL     1     -12.698 -12.816  18.605  0.00  0.00    +0.114 C 
ATOM     16  C   UNL     1     -11.397 -12.487  20.690  0.00  0.00    +0.119 C 
ATOM     17  C   UNL     1      -9.354 -13.303  19.502  0.00  0.00    +0.027 A 
ATOM     18  C   UNL     1      -8.206 -12.927  20.089  0.00  0.00    +0.022 A 
ATOM     19  C   UNL     1      -8.413 -12.855  17.281  0.00  0.00    +0.259 A 
ATOM     20  C   UNL     1     -11.849 -10.489  19.282  0.00  0.00    +0.306 C 
ATOM     21  C   UNL     1      -7.155 -12.399  17.969  0.00  0.00    +0.047 A 
ATOM     22  C   UNL     1      -7.095 -12.462  19.307  0.00  0.00    +0.015 A 
ATOM     36  H   UNL     1     -13.270 -10.522  17.769  0.00  0.00    +0.156 HD
ENDROOT
BRANCH  10  24
ATOM      1  F   UNL     1     -13.726  -6.349  15.300  0.00  0.00    -0.205 F 
ATOM     24  C   UNL     1     -12.125  -8.857  17.385  0.00  0.00    +0.037 A 
ATOM     29  C   UNL     1     -13.113  -8.163  16.694  0.00  0.00    +0.061 A 
ATOM     30  C   UNL     1     -10.804  -8.419  17.355  0.00  0.00    +0.023 A 
ATOM     32  C   UNL     1     -12.779  -7.021  15.966  0.00  0.00    +0.125 A 
ATOM     33  C   UNL     1     -10.469  -7.278  16.627  0.00  0.00    +0.005 A 
ATOM     34  C   UNL     1     -11.456  -6.579  15.933  0.00  0.00    +0.038 A 
ENDBRANCH  10  24
BRANCH  21  23
ATOM     23  C   UNL     1      -6.009 -11.882  17.201  0.00  0.00    -0.012 A 
ATOM     25  C   UNL     1      -5.769 -10.508  17.142  0.00  0.00    +0.012 A 
ATOM     26  C   UNL     1      -5.161 -12.766  16.533  0.00  0.00    +0.012 A 
ATOM     27  C   UNL     1      -4.684 -10.020  16.415  0.00  0.00    +0.046 A 
ATOM     28  C   UNL     1      -4.076 -12.277  15.805  0.00  0.00    +0.046 A 
ATOM     31  C   UNL     1      -3.837 -10.904  15.747  0.00  0.00    +0.130 A 
BRANCH  31   7
ATOM      7  O   UNL     1      -2.779 -10.427  15.036  0.00  0.00    -0.406 OA
BRANCH   7  35
ATOM      2  F   UNL     1      -1.503 -10.672  16.919  0.00  0.00    -0.133 F 
ATOM      3  F   UNL     1      -0.707  -9.549  15.221  0.00  0.00    -0.133 F 
ATOM      4  F   UNL     1      -0.894 -11.721  15.072  0.00  0.00    -0.133 F 
ATOM     35  C   UNL     1      -1.472 -10.608  15.571  0.00  0.00    +0.575 C 
ENDBRANCH   7  35
ENDBRANCH  31   7
ENDBRANCH  21  23
TORSDOF 4
ENDMDL
MODEL 7
REMARK VINA RESULT:      -6.9     25.032     27.583
REMARK  Name = 7674728
REMARK  4 active torsions:
REMARK  status: ('A' for Active; 'I' for Inactive)
REMARK    1  A    between atoms: O_7  and  C_31
REMARK    2  A    between atoms: O_7  and  C_35
REMARK    3  A    between atoms: N_10  and  C_24
REMARK    4  A    between atoms: C_21  and  C_23
REMARK                            x       y       z     vdW  Elec       q    Type
REMARK                         _______ _______ _______ _____ _____    ______ ____
ROOT
ATOM      5  O   UNL     1      -6.462 -12.550  13.187  0.00  0.00    -0.267 OA
ATOM      6  O   UNL     1      -6.797  -9.023  17.770  0.00  0.00    -0.252 OA
ATOM      8  N   UNL     1      -6.706 -11.319  18.047  0.00  0.00    -0.284 N 
ATOM      9  N   UNL     1      -5.501 -12.437  15.310  0.00  0.00    -0.311 N 
ATOM     10  N   UNL     1      -8.726 -10.265  17.434  0.00  0.00    -0.269 N 
ATOM     11  C   UNL     1      -6.453 -13.703  17.321  0.00  0.00    +0.027 C 
ATOM     12  C   UNL     1      -4.460 -12.293  17.598  0.00  0.00    +0.054 C 
ATOM     13  C   UNL     1      -5.018 -13.693  17.835  0.00  0.00    +0.018 C 
ATOM     14  C   UNL     1      -6.433 -13.460  15.806  0.00  0.00    +0.130 C 
ATOM     15  C   UNL     1      -7.313 -12.659  18.059  0.00  0.00    +0.114 C 
ATOM     16  C   UNL     1      -5.284 -11.278  18.410  0.00  0.00    +0.119 C 
ATOM     17  C   UNL     1      -4.493 -11.923  16.128  0.00  0.00    +0.027 A 
ATOM     18  C   UNL     1      -3.578 -11.082  15.620  0.00  0.00    +0.022 A 
ATOM     19  C   UNL     1      -5.609 -12.089  13.949  0.00  0.00    +0.259 A 
ATOM     20  C   UNL     1      -7.375 -10.112  17.742  0.00  0.00    +0.306 C 
ATOM     21  C   UNL     1      -4.595 -11.112  13.420  0.00  0.00    +0.047 A 
ATOM     22  C   UNL     1      -3.638 -10.667  14.247  0.00  0.00    +0.015 A 
ATOM     36  H   UNL     1      -9.225 -11.050  17.839  0.00  0.00    +0.156 HD
ENDROOT
BRANCH  10  24
ATOM      1  F   UNL     1     -11.207  -6.195  16.886  0.00  0.00    -0.205 F 
ATOM     24  C   UNL     1      -9.526  -9.407  16.640  0.00  0.00    +0.037 A 
ATOM     29  C   UNL     1      -9.981  -8.201  17.166  0.00  0.00    +0.061 A 
ATOM     30  C   UNL     1      -9.853  -9.775  15.338  0.00  0.00    +0.023 A 
ATOM     32  C   UNL     1     -10.768  -7.357  16.384  0.00  0.00    +0.125 A 
ATOM     33  C   UNL     1     -10.641  -8.931  14.556  0.00  0.00    +0.005 A 
ATOM     34  C   UNL     1     -11.098  -7.721  15.079  0.00  0.00    +0.038 A 
ENDBRANCH  10  24
BRANCH  21  23
ATOM     23  C   UNL     1      -4.648 -10.637  12.027  0.00  0.00    -0.012 A 
ATOM     25  C   UNL     1      -5.377  -9.490  11.705  0.00  0.00    +0.012 A 
ATOM     26  C   UNL     1      -3.969 -11.332  11.026  0.00  0.00    +0.012 A 
ATOM     27  C   UNL     1      -5.426  -9.041  10.386  0.00  0.00    +0.046 A 
ATOM     28  C   UNL     1      -4.018 -10.883   9.706  0.00  0.00    +0.046 A 
ATOM     31  C   UNL     1      -4.746  -9.737   9.386  0.00  0.00    +0.130 A 
BRANCH  31   7
ATOM      7  O   UNL     1      -4.796  -9.299   8.099  0.00  0.00    -0.406 OA
BRANCH   7  35
ATOM      2  F   UNL     1      -4.827 -10.920   6.486  0.00  0.00    -0.133 F 
ATOM      3  F   UNL     1      -6.121  -9.172   6.275  0.00  0.00    -0.133 F 
ATOM      4  F   UNL     1      -6.596 -10.676   7.788  0.00  0.00    -0.133 F 
ATOM     35  C   UNL     1      -5.582 -10.034   7.167  0.00  0.00    +0.575 C 
ENDBRANCH   7  35
ENDBRANCH  31   7
ENDBRANCH  21  23
TORSDOF 4
ENDMDL
MODEL 8
REMARK VINA RESULT:      -6.7      4.297      7.932
REMARK  Name = 7674728
REMARK  4 active torsions:
REMARK  status: ('A' for Active; 'I' for Inactive)
REMARK    1  A    between atoms: O_7  and  C_31
REMARK    2  A    between atoms: O_7  and  C_35
REMARK    3  A    between atoms: N_10  and  C_24
REMARK    4  A    between atoms: C_21  and  C_23
REMARK                            x       y       z     vdW  Elec       q    Type
REMARK                         _______ _______ _______ _____ _____    ______ ____
ROOT
ATOM      5  O   UNL     1      13.737   9.164   2.587  0.00  0.00    -0.267 OA
ATOM      6  O   UNL     1      11.310   3.935   3.153  0.00  0.00    -0.252 OA
ATOM      8  N   UNL     1      10.472   5.471   1.640  0.00  0.00    -0.284 N 
ATOM      9  N   UNL     1      12.852   7.545   1.160  0.00  0.00    -0.311 N 
ATOM     10  N   UNL     1       9.964   5.653   3.937  0.00  0.00    -0.269 N 
ATOM     11  C   UNL     1      10.429   7.612   0.338  0.00  0.00    +0.027 C 
ATOM     12  C   UNL     1      11.907   5.782  -0.370  0.00  0.00    +0.054 C 
ATOM     13  C   UNL     1      10.962   6.867  -0.879  0.00  0.00    +0.018 C 
ATOM     14  C   UNL     1      11.602   8.309   1.041  0.00  0.00    +0.130 C 
ATOM     15  C   UNL     1       9.676   6.658   1.286  0.00  0.00    +0.114 C 
ATOM     16  C   UNL     1      11.116   4.796   0.507  0.00  0.00    +0.119 C 
ATOM     17  C   UNL     1      13.054   6.373   0.427  0.00  0.00    +0.027 A 
ATOM     18  C   UNL     1      14.247   5.759   0.457  0.00  0.00    +0.022 A 
ATOM     19  C   UNL     1      13.866   8.112   1.957  0.00  0.00    +0.259 A 
ATOM     20  C   UNL     1      10.638   4.946   2.941  0.00  0.00    +0.306 C 
ATOM     21  C   UNL     1      15.178   7.377   2.003  0.00  0.00    +0.047 A 
ATOM     22  C   UNL     1      15.320   6.268   1.263  0.00  0.00    +0.015 A 
ATOM     36  H   UNL     1       9.123   6.159   3.681  0.00  0.00    +0.156 HD
ENDROOT
BRANCH  10  24
ATOM      1  F   UNL     1       9.402   4.087   8.437  0.00  0.00    -0.205 F 
ATOM     24  C   UNL     1      10.293   5.716   5.313  0.00  0.00    +0.037 A 
ATOM     29  C   UNL     1       9.672   4.854   6.212  0.00  0.00    +0.061 A 
ATOM     30  C   UNL     1      11.234   6.640   5.759  0.00  0.00    +0.023 A 
ATOM     32  C   UNL     1       9.996   4.915   7.568  0.00  0.00    +0.125 A 
ATOM     33  C   UNL     1      11.557   6.702   7.113  0.00  0.00    +0.005 A 
ATOM     34  C   UNL     1      10.938   5.840   8.019  0.00  0.00    +0.038 A 
ENDBRANCH  10  24
BRANCH  21  23
ATOM     23  C   UNL     1      16.289   7.850   2.847  0.00  0.00    -0.012 A 
ATOM     25  C   UNL     1      16.172   7.820   4.238  0.00  0.00    +0.012 A 
ATOM     26  C   UNL     1      17.459   8.329   2.257  0.00  0.00    +0.012 A 
ATOM     27  C   UNL     1      17.224   8.268   5.036  0.00  0.00    +0.046 A 
ATOM     28  C   UNL     1      18.511   8.778   3.056  0.00  0.00    +0.046 A 
ATOM     31  C   UNL     1      18.394   8.747   4.445  0.00  0.00    +0.130 A 
BRANCH  31   7
ATOM      7  O   UNL     1      19.419   9.185   5.225  0.00  0.00    -0.406 OA
BRANCH   7  35
ATOM      2  F   UNL     1      20.260   7.062   5.089  0.00  0.00    -0.133 F 
ATOM      3  F   UNL     1      19.909   7.954   7.054  0.00  0.00    -0.133 F 
ATOM      4  F   UNL     1      21.567   8.682   5.830  0.00  0.00    -0.133 F 
ATOM     35  C   UNL     1      20.300   8.217   5.785  0.00  0.00    +0.575 C 
ENDBRANCH   7  35
ENDBRANCH  31   7
ENDBRANCH  21  23
TORSDOF 4
ENDMDL
MODEL 9
REMARK VINA RESULT:      -6.7     24.484     26.824
REMARK  Name = 7674728
REMARK  4 active torsions:
REMARK  status: ('A' for Active; 'I' for Inactive)
REMARK    1  A    between atoms: O_7  and  C_31
REMARK    2  A    between atoms: O_7  and  C_35
REMARK    3  A    between atoms: N_10  and  C_24
REMARK    4  A    between atoms: C_21  and  C_23
REMARK                            x       y       z     vdW  Elec       q    Type
REMARK                         _______ _______ _______ _____ _____    ______ ____
ROOT
ATOM      5  O   UNL     1      -6.223 -12.543  11.095  0.00  0.00    -0.267 OA
ATOM      6  O   UNL     1      -3.844 -10.269  15.863  0.00  0.00    -0.252 OA
ATOM      8  N   UNL     1      -3.261 -12.390  15.145  0.00  0.00    -0.284 N 
ATOM      9  N   UNL     1      -4.103 -12.484  12.066  0.00  0.00    -0.311 N 
ATOM     10  N   UNL     1      -5.279 -12.034  16.314  0.00  0.00    -0.269 N 
ATOM     11  C   UNL     1      -3.232 -14.351  13.585  0.00  0.00    +0.027 C 
ATOM     12  C   UNL     1      -1.816 -12.399  13.118  0.00  0.00    +0.054 C 
ATOM     13  C   UNL     1      -1.854 -13.925  13.095  0.00  0.00    +0.018 C 
ATOM     14  C   UNL     1      -4.286 -13.844  12.591  0.00  0.00    +0.130 C 
ATOM     15  C   UNL     1      -3.496 -13.838  15.014  0.00  0.00    +0.114 C 
ATOM     16  C   UNL     1      -2.000 -11.912  14.566  0.00  0.00    +0.119 C 
ATOM     17  C   UNL     1      -2.895 -11.803  12.234  0.00  0.00    +0.027 A 
ATOM     18  C   UNL     1      -2.706 -10.613  11.642  0.00  0.00    +0.022 A 
ATOM     19  C   UNL     1      -5.158 -11.955  11.297  0.00  0.00    +0.259 A 
ATOM     20  C   UNL     1      -4.122 -11.468  15.780  0.00  0.00    +0.306 C 
ATOM     21  C   UNL     1      -4.932 -10.601  10.682  0.00  0.00    +0.047 A 
ATOM     22  C   UNL     1      -3.744 -10.003  10.861  0.00  0.00    +0.015 A 
ATOM     36  H   UNL     1      -5.248 -13.006  16.605  0.00  0.00    +0.156 HD
ENDROOT
BRANCH  10  24
ATOM      1  F   UNL     1      -8.750 -10.639  19.319  0.00  0.00    -0.205 F 
ATOM     24  C   UNL     1      -6.517 -11.388  16.552  0.00  0.00    +0.037 A 
ATOM     29  C   UNL     1      -7.032 -11.333  17.843  0.00  0.00    +0.061 A 
ATOM     30  C   UNL     1      -7.212 -10.814  15.491  0.00  0.00    +0.023 A 
ATOM     32  C   UNL     1      -8.251 -10.697  18.077  0.00  0.00    +0.125 A 
ATOM     33  C   UNL     1      -8.431 -10.179  15.724  0.00  0.00    +0.005 A 
ATOM     34  C   UNL     1      -8.951 -10.120  17.018  0.00  0.00    +0.038 A 
ENDBRANCH  10  24
BRANCH  21  23
ATOM     23  C   UNL     1      -5.988  -9.930   9.905  0.00  0.00    -0.012 A 
ATOM     25  C   UNL     1      -5.981  -9.999   8.510  0.00  0.00    +0.012 A 
ATOM     26  C   UNL     1      -6.996  -9.224  10.562  0.00  0.00    +0.012 A 
ATOM     27  C   UNL     1      -6.981  -9.363   7.775  0.00  0.00    +0.046 A 
ATOM     28  C   UNL     1      -7.996  -8.587   9.826  0.00  0.00    +0.046 A 
ATOM     31  C   UNL     1      -7.989  -8.657   8.433  0.00  0.00    +0.130 A 
BRANCH  31   7
ATOM      7  O   UNL     1      -8.964  -8.036   7.715  0.00  0.00    -0.406 OA
BRANCH   7  35
ATOM      2  F   UNL     1      -8.570  -6.750   5.865  0.00  0.00    -0.133 F 
ATOM      3  F   UNL     1      -7.533  -6.289   7.733  0.00  0.00    -0.133 F 
ATOM      4  F   UNL     1      -9.671  -5.866   7.565  0.00  0.00    -0.133 F 
ATOM     35  C   UNL     1      -8.699  -6.732   7.208  0.00  0.00    +0.575 C 
ENDBRANCH   7  35
ENDBRANCH  31   7
ENDBRANCH  21  23
TORSDOF 4
ENDMDL
MODEL 10
REMARK VINA RESULT:      -6.6     24.902     27.380
REMARK  Name = 7674728
REMARK  4 active torsions:
REMARK  status: ('A' for Active; 'I' for Inactive)
REMARK    1  A    between atoms: O_7  and  C_31
REMARK    2  A    between atoms: O_7  and  C_35
REMARK    3  A    between atoms: N_10  and  C_24
REMARK    4  A    between atoms: C_21  and  C_23
REMARK                            x       y       z     vdW  Elec       q    Type
REMARK                         _______ _______ _______ _____ _____    ______ ____
ROOT
ATOM      5  O   UNL     1      -3.824 -10.060  14.243  0.00  0.00    -0.267 OA
ATOM      6  O   UNL     1      -6.348 -14.905  16.169  0.00  0.00    -0.252 OA
ATOM      8  N   UNL     1      -5.644 -13.270  17.646  0.00  0.00    -0.284 N 
ATOM      9  N   UNL     1      -5.383 -10.619  15.885  0.00  0.00    -0.311 N 
ATOM     10  N   UNL     1      -4.095 -14.779  16.702  0.00  0.00    -0.269 N 
ATOM     11  C   UNL     1      -4.724 -11.040  18.323  0.00  0.00    +0.027 C 
ATOM     12  C   UNL     1      -7.077 -11.235  17.644  0.00  0.00    +0.054 C 
ATOM     13  C   UNL     1      -6.137 -10.570  18.646  0.00  0.00    +0.018 C 
ATOM     14  C   UNL     1      -4.346 -10.535  16.924  0.00  0.00    +0.130 C 
ATOM     15  C   UNL     1      -4.612 -12.573  18.431  0.00  0.00    +0.114 C 
ATOM     16  C   UNL     1      -7.009 -12.762  17.826  0.00  0.00    +0.119 C 
ATOM     17  C   UNL     1      -6.716 -10.871  16.217  0.00  0.00    +0.027 A 
ATOM     18  C   UNL     1      -7.666 -10.822  15.269  0.00  0.00    +0.022 A 
ATOM     19  C   UNL     1      -4.984 -10.324  14.568  0.00  0.00    +0.259 A 
ATOM     20  C   UNL     1      -5.425 -14.365  16.780  0.00  0.00    +0.306 C 
ATOM     21  C   UNL     1      -6.064 -10.319  13.520  0.00  0.00    +0.047 A 
ATOM     22  C   UNL     1      -7.330 -10.548  13.901  0.00  0.00    +0.015 A 
ATOM     36  H   UNL     1      -3.495 -14.619  17.504  0.00  0.00    +0.156 HD
ENDROOT
BRANCH  10  24
ATOM      1  F   UNL     1      -2.612 -14.903  12.141  0.00  0.00    -0.205 F 
ATOM     24  C   UNL     1      -3.472 -15.460  15.627  0.00  0.00    +0.037 A 
ATOM     29  C   UNL     1      -3.348 -14.833  14.391  0.00  0.00    +0.061 A 
ATOM     30  C   UNL     1      -2.989 -16.752  15.814  0.00  0.00    +0.023 A 
ATOM     32  C   UNL     1      -2.735 -15.502  13.333  0.00  0.00    +0.125 A 
ATOM     33  C   UNL     1      -2.376 -17.422  14.756  0.00  0.00    +0.005 A 
ATOM     34  C   UNL     1      -2.248 -16.797  13.515  0.00  0.00    +0.038 A 
ENDBRANCH  10  24
BRANCH  21  23
ATOM     23  C   UNL     1      -5.751 -10.078  12.101  0.00  0.00    -0.012 A 
ATOM     25  C   UNL     1      -5.969  -8.818  11.541  0.00  0.00    +0.012 A 
ATOM     26  C   UNL     1      -5.235 -11.109  11.315  0.00  0.00    +0.012 A 
ATOM     27  C   UNL     1      -5.672  -8.590  10.198  0.00  0.00    +0.046 A 
ATOM     28  C   UNL     1      -4.938 -10.881   9.971  0.00  0.00    +0.046 A 
ATOM     31  C   UNL     1      -5.156  -9.622   9.413  0.00  0.00    +0.130 A 
BRANCH  31   7
ATOM      7  O   UNL     1      -4.868  -9.400   8.102  0.00  0.00    -0.406 OA
BRANCH   7  35
ATOM      2  F   UNL     1      -6.838 -10.460   7.625  0.00  0.00    -0.133 F 
ATOM      3  F   UNL     1      -4.987 -11.171   6.706  0.00  0.00    -0.133 F 
ATOM      4  F   UNL     1      -5.852  -9.277   6.040  0.00  0.00    -0.133 F 
ATOM     35  C   UNL     1      -5.652 -10.067   7.118  0.00  0.00    +0.575 C 
ENDBRANCH   7  35
ENDBRANCH  31   7
ENDBRANCH  21  23
TORSDOF 4
ENDMDL
