REMARK  Name = 11883016
REMARK  13 active torsions:
REMARK  status: ('A' for Active; 'I' for Inactive)
REMARK    1  A    between atoms: O_2  and  C_15
REMARK    2  A    between atoms: O_3  and  C_20
REMARK    3  A    between atoms: O_6  and  C_34
REMARK    4  A    between atoms: N_8  and  C_27
REMARK    5  A    between atoms: C_10  and  C_18
REMARK    6  A    between atoms: C_12  and  C_20
REMARK    7  A    between atoms: C_12  and  C_21
REMARK    8  A    between atoms: C_13  and  C_23
REMARK    9  A    between atoms: C_23  and  C_24
REMARK   10  A    between atoms: C_26  and  C_28
REMARK   11  A    between atoms: C_28  and  C_31
REMARK   12  A    between atoms: C_28  and  C_32
REMARK   13  A    between atoms: C_28  and  C_33
REMARK                            x       y       z     vdW  Elec       q    Type
REMARK                         _______ _______ _______ _____ _____    ______ ____
ROOT
ATOM      1  S   UNL     1      -0.682   3.111   0.303  0.00  0.00    -0.057 S 
ATOM      5  O   UNL     1       3.403   0.975  -0.231  0.00  0.00    -0.275 OA
ATOM      7  N   UNL     1       0.469   0.828  -0.089  0.00  0.00    -0.229 NA
ATOM      9  N   UNL     1       1.908   2.751   0.110  0.00  0.00    -0.264 N 
ATOM     10  C   UNL     1      -2.993  -0.833   0.270  0.00  0.00    -0.019 C 
ATOM     11  C   UNL     1      -3.750   0.436  -0.323  0.00  0.00    +0.011 C 
ATOM     12  C   UNL     1      -5.327   0.395  -0.320  0.00  0.00    +0.021 C 
ATOM     13  C   UNL     1      -1.474  -0.775  -0.224  0.00  0.00    +0.054 C 
ATOM     14  C   UNL     1      -3.639  -2.127  -0.288  0.00  0.00    +0.010 C 
ATOM     15  C   UNL     1      -5.804  -0.981  -0.864  0.00  0.00    +0.123 C 
ATOM     16  C   UNL     1      -3.156   1.764   0.233  0.00  0.00    +0.049 C 
ATOM     17  C   UNL     1      -5.155  -2.165  -0.156  0.00  0.00    +0.032 C 
ATOM     18  C   UNL     1      -3.029  -0.886   1.817  0.00  0.00    +0.012 C 
ATOM     19  C   UNL     1      -0.894   0.603  -0.035  0.00  0.00    +0.058 A 
ATOM     21  C   UNL     1      -5.864   1.487  -1.288  0.00  0.00    +0.016 C 
ATOM     22  C   UNL     1      -1.668   1.731   0.150  0.00  0.00    +0.015 A 
ATOM     25  C   UNL     1       0.697   2.112   0.085  0.00  0.00    +0.165 A 
ATOM     26  C   UNL     1       3.181   2.170  -0.045  0.00  0.00    +0.224 C 
ATOM     40  H   UNL     1       1.846   3.754   0.258  0.00  0.00    +0.157 HD
ENDROOT
BRANCH  26  28
ATOM     28  C   UNL     1       4.348   3.187   0.039  0.00  0.00    +0.039 C 
ATOM     31  C   UNL     1       4.193   4.263  -1.048  0.00  0.00    +0.020 C 
ATOM     32  C   UNL     1       5.695   2.465  -0.117  0.00  0.00    +0.020 C 
ATOM     33  C   UNL     1       4.325   3.880   1.415  0.00  0.00    +0.020 C 
ENDBRANCH  26  28
BRANCH  15   2
ATOM      2  O   UNL     1      -7.222  -1.101  -0.754  0.00  0.00    -0.391 OA
ATOM     37  H   UNL     1      -7.625  -0.562  -1.454  0.00  0.00    +0.210 HD
ENDBRANCH  15   2
BRANCH  12  20
ATOM     20  C   UNL     1      -5.973   0.700   1.050  0.00  0.00    +0.165 C 
BRANCH  20   3
ATOM      3  O   UNL     1      -7.372   0.636   0.890  0.00  0.00    -0.394 OA
ATOM     38  H   UNL     1      -7.684   1.513   0.609  0.00  0.00    +0.209 HD
ENDBRANCH  20   3
ENDBRANCH  12  20
BRANCH  13  23
ATOM     23  C   UNL     1      -0.565  -1.854   0.381  0.00  0.00    +0.106 C 
BRANCH  23  24
ATOM      4  O   UNL     1       1.023  -1.510  -1.397  0.00  0.00    -0.275 OA
ATOM      8  N   UNL     1       1.758  -2.273   0.699  0.00  0.00    -0.285 N 
ATOM     24  C   UNL     1       0.818  -1.849  -0.236  0.00  0.00    +0.218 C 
ATOM     39  H   UNL     1       1.423  -2.530   1.625  0.00  0.00    +0.155 HD
BRANCH   8  27
ATOM     27  C   UNL     1       3.155  -2.407   0.519  0.00  0.00    +0.037 A 
ATOM     29  C   UNL     1       3.713  -2.093  -0.710  0.00  0.00    +0.068 A 
ATOM     30  C   UNL     1       3.935  -2.848   1.575  0.00  0.00    +0.023 A 
ATOM     34  C   UNL     1       5.090  -2.225  -0.887  0.00  0.00    +0.119 A 
ATOM     35  C   UNL     1       5.312  -2.980   1.397  0.00  0.00    +0.005 A 
ATOM     36  C   UNL     1       5.890  -2.668   0.167  0.00  0.00    +0.045 A 
BRANCH  34   6
ATOM      6  O   UNL     1       5.654  -1.921  -2.088  0.00  0.00    -0.507 OA
ATOM     41  H   UNL     1       6.614  -2.067  -2.031  0.00  0.00    +0.292 HD
ENDBRANCH  34   6
ENDBRANCH   8  27
ENDBRANCH  23  24
ENDBRANCH  13  23
TORSDOF 8
