REMARK  Name = 26763053
REMARK  9 active torsions:
REMARK  status: ('A' for Active; 'I' for Inactive)
REMARK    1  A    between atoms: N_7  and  C_12
REMARK    2  A    between atoms: N_8  and  C_21
REMARK    3  A    between atoms: N_8  and  C_22
REMARK    4  A    between atoms: N_9  and  C_23
REMARK    5  A    between atoms: C_11  and  C_16
REMARK    6  A    between atoms: C_16  and  C_18
REMARK    7  A    between atoms: C_18  and  C_20
REMARK    8  A    between atoms: C_21  and  C_24
REMARK    9  A    between atoms: C_22  and  C_25
REMARK                            x       y       z     vdW  Elec       q    Type
REMARK                         _______ _______ _______ _____ _____    ______ ____
ROOT
ATOM      2  O   UNL     1      -0.324  -4.542   1.100  0.00  0.00    -0.274 OA
ATOM      5  N   UNL     1      -1.019  -1.326  -0.198  0.00  0.00    -0.285 NA
ATOM      6  N   UNL     1      -2.225  -3.270   1.300  0.00  0.00    -0.313 N 
ATOM     10  C   UNL     1      -0.603  -2.712  -0.433  0.00  0.00    +0.145 C 
ATOM     11  C   UNL     1      -2.480  -1.239  -0.160  0.00  0.00    +0.075 C 
ATOM     12  C   UNL     1       1.048  -1.177  -1.282  0.00  0.00    +0.090 C 
ATOM     13  C   UNL     1       0.893  -2.572  -0.665  0.00  0.00    +0.052 C 
ATOM     14  C   UNL     1      -0.355  -0.562  -1.254  0.00  0.00    +0.107 C 
ATOM     15  C   UNL     1      -2.938  -2.021   1.079  0.00  0.00    +0.123 C 
ATOM     17  C   UNL     1      -0.998  -3.576   0.743  0.00  0.00    +0.230 C 
ATOM     31  H   UNL     1      -2.563  -3.873   2.044  0.00  0.00    +0.149 HD
ENDROOT
BRANCH  12   7
ATOM      3  O   UNL     1       3.862  -0.971  -1.776  0.00  0.00    -0.253 OA
ATOM      7  N   UNL     1       1.997  -0.383  -0.542  0.00  0.00    -0.295 N 
ATOM      9  N   UNL     1       4.032   0.513   0.035  0.00  0.00    -0.269 N 
ATOM     19  C   UNL     1       3.362  -0.337  -0.850  0.00  0.00    +0.304 C 
ATOM     32  H   UNL     1       1.673   0.110   0.285  0.00  0.00    +0.151 HD
ATOM     33  H   UNL     1       3.467   0.965   0.750  0.00  0.00    +0.156 HD
BRANCH   9  23
ATOM      1 CL   UNL     1       7.887   3.091   2.240  0.00  0.00    -0.083 Cl
ATOM     23  C   UNL     1       5.411   0.828   0.060  0.00  0.00    +0.036 A 
ATOM     26  C   UNL     1       5.910   1.703   1.025  0.00  0.00    +0.043 A 
ATOM     27  C   UNL     1       6.272   0.262  -0.880  0.00  0.00    +0.023 A 
ATOM     28  C   UNL     1       7.271   2.011   1.050  0.00  0.00    +0.043 A 
ATOM     29  C   UNL     1       7.632   0.570  -0.856  0.00  0.00    +0.003 A 
ATOM     30  C   UNL     1       8.131   1.445   0.109  0.00  0.00    +0.020 A 
ENDBRANCH   9  23
ENDBRANCH  12   7
BRANCH  11  16
ATOM     16  C   UNL     1      -2.993   0.200  -0.076  0.00  0.00    +0.029 C 
BRANCH  16  18
ATOM     18  C   UNL     1      -4.517   0.241  -0.057  0.00  0.00    +0.097 C 
BRANCH  18  20
ATOM      4  O   UNL     1      -4.281   2.624   0.039  0.00  0.00    -0.276 OA
ATOM      8  N   UNL     1      -6.447   1.798   0.030  0.00  0.00    -0.302 N 
ATOM     20  C   UNL     1      -5.055   1.665   0.008  0.00  0.00    +0.216 C 
BRANCH   8  21
ATOM     21  C   UNL     1      -7.403   0.693  -0.004  0.00  0.00    +0.104 C 
ATOM     24  C   UNL     1      -7.749   0.215   1.391  0.00  0.00    +0.024 C 
ENDBRANCH   8  21
BRANCH   8  22
ATOM     22  C   UNL     1      -7.040   3.127   0.102  0.00  0.00    +0.104 C 
ATOM     25  C   UNL     1      -7.281   3.702  -1.278  0.00  0.00    +0.024 C 
ENDBRANCH   8  22
ENDBRANCH  18  20
ENDBRANCH  16  18
ENDBRANCH  11  16
TORSDOF 7
