MODEL 1
REMARK VINA RESULT:      -6.4      0.000      0.000
REMARK  Name = 45783482
REMARK  9 active torsions:
REMARK  status: ('A' for Active; 'I' for Inactive)
REMARK    1  A    between atoms: O_2  and  C_27
REMARK    2  A    between atoms: O_2  and  C_28
REMARK    3  A    between atoms: N_3  and  C_9
REMARK    4  A    between atoms: N_4  and  C_19
REMARK    5  A    between atoms: N_8  and  C_25
REMARK    6  A    between atoms: N_8  and  C_26
REMARK    7  A    between atoms: C_10  and  C_18
REMARK    8  A    between atoms: C_20  and  C_21
REMARK    9  A    between atoms: C_26  and  C_27
REMARK                            x       y       z     vdW  Elec       q    Type
REMARK                         _______ _______ _______ _____ _____    ______ ____
ROOT
ATOM      1  O   UNL     1      14.518   6.696  19.585  0.00  0.00    -0.336 OA
ATOM      5  N   UNL     1      15.710   8.147  20.807  0.00  0.00    -0.190 NA
ATOM      6  N   UNL     1      15.834   6.215  19.588  0.00  0.00    -0.056 NA
ATOM     18  C   UNL     1      14.533   7.836  20.324  0.00  0.00    +0.245 A 
ATOM     20  C   UNL     1      16.476   7.123  20.329  0.00  0.00    +0.204 A 
ENDROOT
BRANCH  20  21
ATOM      7  N   UNL     1      19.859   8.050  21.561  0.00  0.00    -0.240 NA
ATOM     21  C   UNL     1      17.879   7.040  20.609  0.00  0.00    +0.041 A 
ATOM     22  C   UNL     1      18.621   5.928  20.228  0.00  0.00    +0.016 A 
ATOM     23  C   UNL     1      18.539   8.065  21.267  0.00  0.00    +0.124 A 
ATOM     24  C   UNL     1      19.982   5.875  20.512  0.00  0.00    +0.044 A 
ATOM     25  C   UNL     1      20.547   6.953  21.175  0.00  0.00    +0.119 A 
BRANCH  25   8
ATOM      8  N   UNL     1      21.934   6.885  21.459  0.00  0.00    -0.327 N 
ATOM     29  H   UNL     1      22.460   7.743  21.346  0.00  0.00    +0.148 HD
BRANCH   8  26
ATOM     26  C   UNL     1      22.577   5.682  21.877  0.00  0.00    +0.131 C 
BRANCH  26  27
ATOM     27  C   UNL     1      22.346   5.458  23.362  0.00  0.00    +0.178 C 
BRANCH  27   2
ATOM      2  O   UNL     1      22.077   4.083  23.598  0.00  0.00    -0.381 OA
ATOM     28  C   UNL     1      22.156   3.323  22.401  0.00  0.00    +0.194 C 
ENDBRANCH  27   2
ENDBRANCH  26  27
ENDBRANCH   8  26
ENDBRANCH  25   8
ENDBRANCH  20  21
BRANCH  18  10
ATOM      3  N   UNL     1      12.352   8.425  19.283  0.00  0.00    -0.288 NA
ATOM     10  C   UNL     1      13.211   8.558  20.476  0.00  0.00    +0.146 C 
ATOM     11  C   UNL     1      10.970   8.499  19.758  0.00  0.00    +0.085 C 
ATOM     14  C   UNL     1      12.360   8.005  21.635  0.00  0.00    +0.030 C 
ATOM     15  C   UNL     1      11.022   7.642  21.007  0.00  0.00    +0.017 C 
BRANCH   3   9
ATOM      4  N   UNL     1      14.573  10.846  16.585  0.00  0.00    -0.305 NA
ATOM      9  C   UNL     1      12.634   9.425  18.256  0.00  0.00    +0.060 C 
ATOM     12  C   UNL     1      13.527  10.541  18.808  0.00  0.00    +0.034 C 
ATOM     13  C   UNL     1      13.306   8.769  17.047  0.00  0.00    +0.034 C 
ATOM     16  C   UNL     1      13.913  11.531  17.706  0.00  0.00    +0.085 C 
ATOM     17  C   UNL     1      13.700   9.818  16.003  0.00  0.00    +0.085 C 
ATOM     19  C   UNL     1      14.981  11.810  15.565  0.00  0.00    +0.104 C 
ENDBRANCH   3   9
ENDBRANCH  18  10
TORSDOF 7
ENDMDL
MODEL 2
REMARK VINA RESULT:      -6.2     27.056     30.553
REMARK  Name = 45783482
REMARK  9 active torsions:
REMARK  status: ('A' for Active; 'I' for Inactive)
REMARK    1  A    between atoms: O_2  and  C_27
REMARK    2  A    between atoms: O_2  and  C_28
REMARK    3  A    between atoms: N_3  and  C_9
REMARK    4  A    between atoms: N_4  and  C_19
REMARK    5  A    between atoms: N_8  and  C_25
REMARK    6  A    between atoms: N_8  and  C_26
REMARK    7  A    between atoms: C_10  and  C_18
REMARK    8  A    between atoms: C_20  and  C_21
REMARK    9  A    between atoms: C_26  and  C_27
REMARK                            x       y       z     vdW  Elec       q    Type
REMARK                         _______ _______ _______ _____ _____    ______ ____
ROOT
ATOM      1  O   UNL     1      -9.364 -10.847  20.033  0.00  0.00    -0.336 OA
ATOM      5  N   UNL     1      -8.666  -9.983  18.087  0.00  0.00    -0.190 NA
ATOM      6  N   UNL     1      -8.016 -11.207  19.909  0.00  0.00    -0.056 NA
ATOM     18  C   UNL     1      -9.666 -10.129  18.918  0.00  0.00    +0.245 A 
ATOM     20  C   UNL     1      -7.675 -10.661  18.737  0.00  0.00    +0.204 A 
ENDROOT
BRANCH  20  21
ATOM      7  N   UNL     1      -4.779 -10.165  16.458  0.00  0.00    -0.240 NA
ATOM     21  C   UNL     1      -6.356 -10.775  18.187  0.00  0.00    +0.041 A 
ATOM     22  C   UNL     1      -5.390 -11.566  18.799  0.00  0.00    +0.016 A 
ATOM     23  C   UNL     1      -6.003 -10.101  17.029  0.00  0.00    +0.124 A 
ATOM     24  C   UNL     1      -4.119 -11.658  18.242  0.00  0.00    +0.044 A 
ATOM     25  C   UNL     1      -3.867 -10.944  17.081  0.00  0.00    +0.119 A 
BRANCH  25   8
ATOM      8  N   UNL     1      -2.567 -11.047  16.526  0.00  0.00    -0.327 N 
ATOM     29  H   UNL     1      -1.799 -10.754  17.118  0.00  0.00    +0.148 HD
BRANCH   8  26
ATOM     26  C   UNL     1      -2.329 -11.531  15.205  0.00  0.00    +0.131 C 
BRANCH  26  27
ATOM     27  C   UNL     1      -1.832 -10.402  14.319  0.00  0.00    +0.178 C 
BRANCH  27   2
ATOM      2  O   UNL     1      -2.666 -10.297  13.172  0.00  0.00    -0.381 OA
ATOM     28  C   UNL     1      -1.910 -10.355  11.971  0.00  0.00    +0.194 C 
ENDBRANCH  27   2
ENDBRANCH  26  27
ENDBRANCH   8  26
ENDBRANCH  25   8
ENDBRANCH  20  21
BRANCH  18  10
ATOM      3  N   UNL     1     -11.711  -9.942  17.513  0.00  0.00    -0.288 NA
ATOM     10  C   UNL     1     -11.087  -9.617  18.811  0.00  0.00    +0.146 C 
ATOM     11  C   UNL     1     -13.147 -10.061  17.764  0.00  0.00    +0.085 C 
ATOM     14  C   UNL     1     -12.025 -10.239  19.863  0.00  0.00    +0.030 C 
ATOM     15  C   UNL     1     -13.175 -10.838  19.065  0.00  0.00    +0.017 C 
BRANCH   3   9
ATOM      4  N   UNL     1     -12.118  -6.498  15.055  0.00  0.00    -0.305 NA
ATOM      9  C   UNL     1     -11.415  -8.961  16.471  0.00  0.00    +0.060 C 
ATOM     12  C   UNL     1     -12.542  -8.907  15.434  0.00  0.00    +0.034 C 
ATOM     13  C   UNL     1     -11.208  -7.576  17.089  0.00  0.00    +0.034 C 
ATOM     16  C   UNL     1     -12.286  -7.805  14.404  0.00  0.00    +0.085 C 
ATOM     17  C   UNL     1     -10.996  -6.518  16.004  0.00  0.00    +0.085 C 
ATOM     19  C   UNL     1     -11.926  -5.448  14.055  0.00  0.00    +0.104 C 
ENDBRANCH   3   9
ENDBRANCH  18  10
TORSDOF 7
ENDMDL
MODEL 3
REMARK VINA RESULT:      -6.2      2.589     10.625
REMARK  Name = 45783482
REMARK  9 active torsions:
REMARK  status: ('A' for Active; 'I' for Inactive)
REMARK    1  A    between atoms: O_2  and  C_27
REMARK    2  A    between atoms: O_2  and  C_28
REMARK    3  A    between atoms: N_3  and  C_9
REMARK    4  A    between atoms: N_4  and  C_19
REMARK    5  A    between atoms: N_8  and  C_25
REMARK    6  A    between atoms: N_8  and  C_26
REMARK    7  A    between atoms: C_10  and  C_18
REMARK    8  A    between atoms: C_20  and  C_21
REMARK    9  A    between atoms: C_26  and  C_27
REMARK                            x       y       z     vdW  Elec       q    Type
REMARK                         _______ _______ _______ _____ _____    ______ ____
ROOT
ATOM      1  O   UNL     1      21.376   6.144  23.034  0.00  0.00    -0.336 OA
ATOM      5  N   UNL     1      21.131   6.367  20.818  0.00  0.00    -0.190 NA
ATOM      6  N   UNL     1      19.997   6.209  22.798  0.00  0.00    -0.056 NA
ATOM     18  C   UNL     1      21.970   6.245  21.815  0.00  0.00    +0.245 A 
ATOM     20  C   UNL     1      19.932   6.340  21.470  0.00  0.00    +0.204 A 
ENDROOT
BRANCH  20  21
ATOM      7  N   UNL     1      16.517   7.488  20.554  0.00  0.00    -0.240 NA
ATOM     21  C   UNL     1      18.689   6.447  20.763  0.00  0.00    +0.041 A 
ATOM     22  C   UNL     1      18.429   5.662  19.647  0.00  0.00    +0.016 A 
ATOM     23  C   UNL     1      17.709   7.337  21.173  0.00  0.00    +0.124 A 
ATOM     24  C   UNL     1      17.213   5.788  18.982  0.00  0.00    +0.044 A 
ATOM     25  C   UNL     1      16.300   6.708  19.472  0.00  0.00    +0.119 A 
BRANCH  25   8
ATOM      8  N   UNL     1      15.066   6.825  18.784  0.00  0.00    -0.327 N 
ATOM     29  H   UNL     1      14.932   6.210  17.991  0.00  0.00    +0.148 HD
BRANCH   8  26
ATOM     26  C   UNL     1      14.055   7.756  19.167  0.00  0.00    +0.131 C 
BRANCH  26  27
ATOM     27  C   UNL     1      12.693   7.084  19.140  0.00  0.00    +0.178 C 
BRANCH  27   2
ATOM      2  O   UNL     1      12.151   7.166  17.828  0.00  0.00    -0.381 OA
ATOM     28  C   UNL     1      12.041   8.513  17.392  0.00  0.00    +0.194 C 
ENDBRANCH  27   2
ENDBRANCH  26  27
ENDBRANCH   8  26
ENDBRANCH  25   8
ENDBRANCH  20  21
BRANCH  18  10
ATOM      3  N   UNL     1      24.010   5.154  20.899  0.00  0.00    -0.288 NA
ATOM     10  C   UNL     1      23.483   6.200  21.798  0.00  0.00    +0.146 C 
ATOM     11  C   UNL     1      25.308   5.632  20.424  0.00  0.00    +0.085 C 
ATOM     14  C   UNL     1      24.112   7.510  21.284  0.00  0.00    +0.030 C 
ATOM     15  C   UNL     1      25.019   7.091  20.135  0.00  0.00    +0.017 C 
BRANCH   3   9
ATOM      4  N   UNL     1      25.570   1.342  21.947  0.00  0.00    -0.305 NA
ATOM      9  C   UNL     1      24.106   3.843  21.536  0.00  0.00    +0.060 C 
ATOM     12  C   UNL     1      24.124   2.724  20.489  0.00  0.00    +0.034 C 
ATOM     13  C   UNL     1      25.366   3.767  22.403  0.00  0.00    +0.034 C 
ATOM     16  C   UNL     1      24.336   1.360  21.149  0.00  0.00    +0.085 C 
ATOM     17  C   UNL     1      25.537   2.367  22.999  0.00  0.00    +0.085 C 
ATOM     19  C   UNL     1      25.785   0.017  22.528  0.00  0.00    +0.104 C 
ENDBRANCH   3   9
ENDBRANCH  18  10
TORSDOF 7
ENDMDL
MODEL 4
REMARK VINA RESULT:      -6.0      2.307      9.214
REMARK  Name = 45783482
REMARK  9 active torsions:
REMARK  status: ('A' for Active; 'I' for Inactive)
REMARK    1  A    between atoms: O_2  and  C_27
REMARK    2  A    between atoms: O_2  and  C_28
REMARK    3  A    between atoms: N_3  and  C_9
REMARK    4  A    between atoms: N_4  and  C_19
REMARK    5  A    between atoms: N_8  and  C_25
REMARK    6  A    between atoms: N_8  and  C_26
REMARK    7  A    between atoms: C_10  and  C_18
REMARK    8  A    between atoms: C_20  and  C_21
REMARK    9  A    between atoms: C_26  and  C_27
REMARK                            x       y       z     vdW  Elec       q    Type
REMARK                         _______ _______ _______ _____ _____    ______ ____
ROOT
ATOM      1  O   UNL     1      19.939   4.641  20.088  0.00  0.00    -0.336 OA
ATOM      5  N   UNL     1      19.389   6.536  21.149  0.00  0.00    -0.190 NA
ATOM      6  N   UNL     1      18.689   5.021  19.584  0.00  0.00    -0.056 NA
ATOM     18  C   UNL     1      20.279   5.586  21.004  0.00  0.00    +0.245 A 
ATOM     20  C   UNL     1      18.432   6.147  20.258  0.00  0.00    +0.204 A 
ENDROOT
BRANCH  20  21
ATOM      7  N   UNL     1      15.961   8.913  20.516  0.00  0.00    -0.240 NA
ATOM     21  C   UNL     1      17.230   6.904  20.066  0.00  0.00    +0.041 A 
ATOM     22  C   UNL     1      16.190   6.414  19.286  0.00  0.00    +0.016 A 
ATOM     23  C   UNL     1      17.068   8.148  20.655  0.00  0.00    +0.124 A 
ATOM     24  C   UNL     1      15.035   7.171  19.119  0.00  0.00    +0.044 A 
ATOM     25  C   UNL     1      14.972   8.403  19.749  0.00  0.00    +0.119 A 
BRANCH  25   8
ATOM      8  N   UNL     1      13.790   9.163  19.569  0.00  0.00    -0.327 N 
ATOM     29  H   UNL     1      13.788  10.096  19.966  0.00  0.00    +0.148 HD
BRANCH   8  26
ATOM     26  C   UNL     1      12.649   8.661  18.874  0.00  0.00    +0.131 C 
BRANCH  26  27
ATOM     27  C   UNL     1      11.557   8.293  19.864  0.00  0.00    +0.178 C 
BRANCH  27   2
ATOM      2  O   UNL     1      11.528   6.882  20.034  0.00  0.00    -0.381 OA
ATOM     28  C   UNL     1      11.754   6.515  21.388  0.00  0.00    +0.194 C 
ENDBRANCH  27   2
ENDBRANCH  26  27
ENDBRANCH   8  26
ENDBRANCH  25   8
ENDBRANCH  20  21
BRANCH  18  10
ATOM      3  N   UNL     1      21.482   5.389  23.173  0.00  0.00    -0.288 NA
ATOM     10  C   UNL     1      21.609   5.401  21.702  0.00  0.00    +0.146 C 
ATOM     11  C   UNL     1      22.568   4.548  23.675  0.00  0.00    +0.085 C 
ATOM     14  C   UNL     1      22.280   4.058  21.357  0.00  0.00    +0.030 C 
ATOM     15  C   UNL     1      22.545   3.389  22.699  0.00  0.00    +0.017 C 
BRANCH   3   9
ATOM      4  N   UNL     1      22.864   8.737  25.398  0.00  0.00    -0.305 NA
ATOM      9  C   UNL     1      21.504   6.726  23.763  0.00  0.00    +0.060 C 
ATOM     12  C   UNL     1      21.539   6.649  25.293  0.00  0.00    +0.034 C 
ATOM     13  C   UNL     1      22.715   7.511  23.252  0.00  0.00    +0.034 C 
ATOM     16  C   UNL     1      21.674   8.043  25.909  0.00  0.00    +0.085 C 
ATOM     17  C   UNL     1      22.810   8.877  23.937  0.00  0.00    +0.085 C 
ATOM     19  C   UNL     1      23.007  10.046  26.034  0.00  0.00    +0.104 C 
ENDBRANCH   3   9
ENDBRANCH  18  10
TORSDOF 7
ENDMDL
MODEL 5
REMARK VINA RESULT:      -6.0     28.179     30.416
REMARK  Name = 45783482
REMARK  9 active torsions:
REMARK  status: ('A' for Active; 'I' for Inactive)
REMARK    1  A    between atoms: O_2  and  C_27
REMARK    2  A    between atoms: O_2  and  C_28
REMARK    3  A    between atoms: N_3  and  C_9
REMARK    4  A    between atoms: N_4  and  C_19
REMARK    5  A    between atoms: N_8  and  C_25
REMARK    6  A    between atoms: N_8  and  C_26
REMARK    7  A    between atoms: C_10  and  C_18
REMARK    8  A    between atoms: C_20  and  C_21
REMARK    9  A    between atoms: C_26  and  C_27
REMARK                            x       y       z     vdW  Elec       q    Type
REMARK                         _______ _______ _______ _____ _____    ______ ____
ROOT
ATOM      1  O   UNL     1      -3.335 -11.319  15.230  0.00  0.00    -0.336 OA
ATOM      5  N   UNL     1      -5.107 -10.247  14.376  0.00  0.00    -0.190 NA
ATOM      6  N   UNL     1      -3.086 -11.188  13.858  0.00  0.00    -0.056 NA
ATOM     18  C   UNL     1      -4.545 -10.739  15.451  0.00  0.00    +0.245 A 
ATOM     20  C   UNL     1      -4.175 -10.546  13.424  0.00  0.00    +0.204 A 
ENDROOT
BRANCH  20  21
ATOM      7  N   UNL     1      -5.879  -9.843  10.195  0.00  0.00    -0.240 NA
ATOM     21  C   UNL     1      -4.365 -10.191  12.048  0.00  0.00    +0.041 A 
ATOM     22  C   UNL     1      -3.286  -9.859  11.238  0.00  0.00    +0.016 A 
ATOM     23  C   UNL     1      -5.631 -10.168  11.484  0.00  0.00    +0.124 A 
ATOM     24  C   UNL     1      -3.501  -9.519   9.907  0.00  0.00    +0.044 A 
ATOM     25  C   UNL     1      -4.805  -9.526   9.438  0.00  0.00    +0.119 A 
BRANCH  25   8
ATOM      8  N   UNL     1      -5.008  -9.177   8.080  0.00  0.00    -0.327 N 
ATOM     29  H   UNL     1      -4.553  -8.330   7.759  0.00  0.00    +0.148 HD
BRANCH   8  26
ATOM     26  C   UNL     1      -5.808  -9.958   7.194  0.00  0.00    +0.131 C 
BRANCH  26  27
ATOM     27  C   UNL     1      -6.885  -9.091   6.564  0.00  0.00    +0.178 C 
BRANCH  27   2
ATOM      2  O   UNL     1      -7.848  -8.741   7.549  0.00  0.00    -0.381 OA
ATOM     28  C   UNL     1      -8.066  -7.339   7.590  0.00  0.00    +0.194 C 
ENDBRANCH  27   2
ENDBRANCH  26  27
ENDBRANCH   8  26
ENDBRANCH  25   8
ENDBRANCH  20  21
BRANCH  18  10
ATOM      3  N   UNL     1      -6.242 -11.598  17.054  0.00  0.00    -0.288 NA
ATOM     10  C   UNL     1      -5.047 -10.749  16.879  0.00  0.00    +0.146 C 
ATOM     11  C   UNL     1      -6.202 -12.090  18.431  0.00  0.00    +0.085 C 
ATOM     14  C   UNL     1      -4.013 -11.320  17.869  0.00  0.00    +0.030 C 
ATOM     15  C   UNL     1      -4.738 -12.445  18.595  0.00  0.00    +0.017 C 
BRANCH   3   9
ATOM      4  N   UNL     1      -9.883  -9.500  17.696  0.00  0.00    -0.305 NA
ATOM      9  C   UNL     1      -7.491 -10.902  16.755  0.00  0.00    +0.060 C 
ATOM     12  C   UNL     1      -8.690 -11.642  17.359  0.00  0.00    +0.034 C 
ATOM     13  C   UNL     1      -7.440  -9.469  17.292  0.00  0.00    +0.034 C 
ATOM     16  C   UNL     1      -9.985 -10.857  17.142  0.00  0.00    +0.085 C 
ATOM     17  C   UNL     1      -8.778  -8.756  17.077  0.00  0.00    +0.085 C 
ATOM     19  C   UNL     1     -11.144  -8.781  17.527  0.00  0.00    +0.104 C 
ENDBRANCH   3   9
ENDBRANCH  18  10
TORSDOF 7
ENDMDL
MODEL 6
REMARK VINA RESULT:      -5.9      1.775      2.116
REMARK  Name = 45783482
REMARK  9 active torsions:
REMARK  status: ('A' for Active; 'I' for Inactive)
REMARK    1  A    between atoms: O_2  and  C_27
REMARK    2  A    between atoms: O_2  and  C_28
REMARK    3  A    between atoms: N_3  and  C_9
REMARK    4  A    between atoms: N_4  and  C_19
REMARK    5  A    between atoms: N_8  and  C_25
REMARK    6  A    between atoms: N_8  and  C_26
REMARK    7  A    between atoms: C_10  and  C_18
REMARK    8  A    between atoms: C_20  and  C_21
REMARK    9  A    between atoms: C_26  and  C_27
REMARK                            x       y       z     vdW  Elec       q    Type
REMARK                         _______ _______ _______ _____ _____    ______ ____
ROOT
ATOM      1  O   UNL     1      15.389   9.650  21.818  0.00  0.00    -0.336 OA
ATOM      5  N   UNL     1      15.303   7.657  20.799  0.00  0.00    -0.190 NA
ATOM      6  N   UNL     1      16.708   9.181  21.768  0.00  0.00    -0.056 NA
ATOM     18  C   UNL     1      14.627   8.693  21.227  0.00  0.00    +0.245 A 
ATOM     20  C   UNL     1      16.576   8.002  21.153  0.00  0.00    +0.204 A 
ENDROOT
BRANCH  20  21
ATOM      7  N   UNL     1      19.947   6.456  21.413  0.00  0.00    -0.240 NA
ATOM     21  C   UNL     1      17.691   7.144  20.879  0.00  0.00    +0.041 A 
ATOM     22  C   UNL     1      17.635   6.198  19.862  0.00  0.00    +0.016 A 
ATOM     23  C   UNL     1      18.859   7.232  21.619  0.00  0.00    +0.124 A 
ATOM     24  C   UNL     1      18.734   5.380  19.619  0.00  0.00    +0.044 A 
ATOM     25  C   UNL     1      19.855   5.548  20.416  0.00  0.00    +0.119 A 
BRANCH  25   8
ATOM      8  N   UNL     1      20.966   4.707  20.157  0.00  0.00    -0.327 N 
ATOM     29  H   UNL     1      20.763   3.807  19.738  0.00  0.00    +0.148 HD
BRANCH   8  26
ATOM     26  C   UNL     1      22.307   5.084  20.464  0.00  0.00    +0.131 C 
BRANCH  26  27
ATOM     27  C   UNL     1      23.119   3.858  20.841  0.00  0.00    +0.178 C 
BRANCH  27   2
ATOM      2  O   UNL     1      24.254   3.760  19.991  0.00  0.00    -0.381 OA
ATOM     28  C   UNL     1      25.084   4.908  20.095  0.00  0.00    +0.194 C 
ENDBRANCH  27   2
ENDBRANCH  26  27
ENDBRANCH   8  26
ENDBRANCH  25   8
ENDBRANCH  20  21
BRANCH  18  10
ATOM      3  N   UNL     1      12.612   8.869  19.779  0.00  0.00    -0.288 NA
ATOM     10  C   UNL     1      13.139   8.966  21.154  0.00  0.00    +0.146 C 
ATOM     11  C   UNL     1      11.216   8.448  19.900  0.00  0.00    +0.085 C 
ATOM     14  C   UNL     1      12.308   7.953  21.964  0.00  0.00    +0.030 C 
ATOM     15  C   UNL     1      11.302   7.382  20.974  0.00  0.00    +0.017 C 
BRANCH   3   9
ATOM      4  N   UNL     1      14.342  12.451  18.280  0.00  0.00    -0.305 NA
ATOM      9  C   UNL     1      12.747  10.112  19.022  0.00  0.00    +0.060 C 
ATOM     12  C   UNL     1      12.929  11.309  19.961  0.00  0.00    +0.034 C 
ATOM     13  C   UNL     1      13.933  10.020  18.058  0.00  0.00    +0.034 C 
ATOM     16  C   UNL     1      13.180  12.594  19.169  0.00  0.00    +0.085 C 
ATOM     17  C   UNL     1      14.151  11.348  17.329  0.00  0.00    +0.085 C 
ATOM     19  C   UNL     1      14.600  13.702  17.569  0.00  0.00    +0.104 C 
ENDBRANCH   3   9
ENDBRANCH  18  10
TORSDOF 7
ENDMDL
MODEL 7
REMARK VINA RESULT:      -5.9     28.196     31.686
REMARK  Name = 45783482
REMARK  9 active torsions:
REMARK  status: ('A' for Active; 'I' for Inactive)
REMARK    1  A    between atoms: O_2  and  C_27
REMARK    2  A    between atoms: O_2  and  C_28
REMARK    3  A    between atoms: N_3  and  C_9
REMARK    4  A    between atoms: N_4  and  C_19
REMARK    5  A    between atoms: N_8  and  C_25
REMARK    6  A    between atoms: N_8  and  C_26
REMARK    7  A    between atoms: C_10  and  C_18
REMARK    8  A    between atoms: C_20  and  C_21
REMARK    9  A    between atoms: C_26  and  C_27
REMARK                            x       y       z     vdW  Elec       q    Type
REMARK                         _______ _______ _______ _____ _____    ______ ____
ROOT
ATOM      1  O   UNL     1      -8.980 -11.740  16.247  0.00  0.00    -0.336 OA
ATOM      5  N   UNL     1      -8.375  -9.643  16.753  0.00  0.00    -0.190 NA
ATOM      6  N   UNL     1      -9.954 -10.907  15.682  0.00  0.00    -0.056 NA
ATOM     18  C   UNL     1      -8.088 -10.916  16.858  0.00  0.00    +0.245 A 
ATOM     20  C   UNL     1      -9.528  -9.686  16.023  0.00  0.00    +0.204 A 
ENDROOT
BRANCH  20  21
ATOM      7  N   UNL     1     -11.746  -7.374  14.138  0.00  0.00    -0.240 NA
ATOM     21  C   UNL     1     -10.230  -8.492  15.654  0.00  0.00    +0.041 A 
ATOM     22  C   UNL     1     -10.102  -7.326  16.398  0.00  0.00    +0.016 A 
ATOM     23  C   UNL     1     -11.057  -8.464  14.542  0.00  0.00    +0.124 A 
ATOM     24  C   UNL     1     -10.795  -6.183  16.015  0.00  0.00    +0.044 A 
ATOM     25  C   UNL     1     -11.597  -6.258  14.887  0.00  0.00    +0.119 A 
BRANCH  25   8
ATOM      8  N   UNL     1     -12.296  -5.086  14.509  0.00  0.00    -0.327 N 
ATOM     29  H   UNL     1     -12.406  -4.376  15.224  0.00  0.00    +0.148 HD
BRANCH   8  26
ATOM     26  C   UNL     1     -12.830  -4.894  13.200  0.00  0.00    +0.131 C 
BRANCH  26  27
ATOM     27  C   UNL     1     -14.309  -4.560  13.285  0.00  0.00    +0.178 C 
BRANCH  27   2
ATOM      2  O   UNL     1     -14.491  -3.163  13.100  0.00  0.00    -0.381 OA
ATOM     28  C   UNL     1     -15.049  -2.873  11.826  0.00  0.00    +0.194 C 
ENDBRANCH  27   2
ENDBRANCH  26  27
ENDBRANCH   8  26
ENDBRANCH  25   8
ENDBRANCH  20  21
BRANCH  18  10
ATOM      3  N   UNL     1      -5.669 -10.811  17.428  0.00  0.00    -0.288 NA
ATOM     10  C   UNL     1      -6.921 -11.583  17.553  0.00  0.00    +0.146 C 
ATOM     11  C   UNL     1      -4.878 -11.108  18.623  0.00  0.00    +0.085 C 
ATOM     14  C   UNL     1      -7.138 -11.732  19.072  0.00  0.00    +0.030 C 
ATOM     15  C   UNL     1      -5.929 -11.065  19.714  0.00  0.00    +0.017 C 
BRANCH   3   9
ATOM      4  N   UNL     1      -2.636 -12.323  14.863  0.00  0.00    -0.305 NA
ATOM      9  C   UNL     1      -4.935 -11.099  16.198  0.00  0.00    +0.060 C 
ATOM     12  C   UNL     1      -3.538 -10.470  16.232  0.00  0.00    +0.034 C 
ATOM     13  C   UNL     1      -4.820 -12.612  15.992  0.00  0.00    +0.034 C 
ATOM     16  C   UNL     1      -2.730 -10.862  14.994  0.00  0.00    +0.085 C 
ATOM     17  C   UNL     1      -3.968 -12.934  14.761  0.00  0.00    +0.085 C 
ATOM     19  C   UNL     1      -1.818 -12.682  13.705  0.00  0.00    +0.104 C 
ENDBRANCH   3   9
ENDBRANCH  18  10
TORSDOF 7
ENDMDL
MODEL 8
REMARK VINA RESULT:      -5.8      2.367      9.396
REMARK  Name = 45783482
REMARK  9 active torsions:
REMARK  status: ('A' for Active; 'I' for Inactive)
REMARK    1  A    between atoms: O_2  and  C_27
REMARK    2  A    between atoms: O_2  and  C_28
REMARK    3  A    between atoms: N_3  and  C_9
REMARK    4  A    between atoms: N_4  and  C_19
REMARK    5  A    between atoms: N_8  and  C_25
REMARK    6  A    between atoms: N_8  and  C_26
REMARK    7  A    between atoms: C_10  and  C_18
REMARK    8  A    between atoms: C_20  and  C_21
REMARK    9  A    between atoms: C_26  and  C_27
REMARK                            x       y       z     vdW  Elec       q    Type
REMARK                         _______ _______ _______ _____ _____    ______ ____
ROOT
ATOM      1  O   UNL     1      19.938   8.964  22.494  0.00  0.00    -0.336 OA
ATOM      5  N   UNL     1      18.906   7.025  22.052  0.00  0.00    -0.190 NA
ATOM      6  N   UNL     1      18.827   9.285  21.704  0.00  0.00    -0.056 NA
ATOM     18  C   UNL     1      19.910   7.614  22.650  0.00  0.00    +0.245 A 
ATOM     20  C   UNL     1      18.268   8.091  21.485  0.00  0.00    +0.204 A 
ENDROOT
BRANCH  20  21
ATOM      7  N   UNL     1      15.098   8.911  19.724  0.00  0.00    -0.240 NA
ATOM     21  C   UNL     1      17.077   7.926  20.703  0.00  0.00    +0.041 A 
ATOM     22  C   UNL     1      16.732   6.688  20.175  0.00  0.00    +0.016 A 
ATOM     23  C   UNL     1      16.235   8.997  20.452  0.00  0.00    +0.124 A 
ATOM     24  C   UNL     1      15.570   6.559  19.422  0.00  0.00    +0.044 A 
ATOM     25  C   UNL     1      14.795   7.692  19.227  0.00  0.00    +0.119 A 
BRANCH  25   8
ATOM      8  N   UNL     1      13.614   7.544  18.457  0.00  0.00    -0.327 N 
ATOM     29  H   UNL     1      13.600   6.777  17.796  0.00  0.00    +0.148 HD
BRANCH   8  26
ATOM     26  C   UNL     1      12.496   8.420  18.586  0.00  0.00    +0.131 C 
BRANCH  26  27
ATOM     27  C   UNL     1      11.678   8.043  19.809  0.00  0.00    +0.178 C 
BRANCH  27   2
ATOM      2  O   UNL     1      11.718   6.634  19.990  0.00  0.00    -0.381 OA
ATOM     28  C   UNL     1      11.533   6.278  21.352  0.00  0.00    +0.194 C 
ENDBRANCH  27   2
ENDBRANCH  26  27
ENDBRANCH   8  26
ENDBRANCH  25   8
ENDBRANCH  20  21
BRANCH  18  10
ATOM      3  N   UNL     1      22.311   6.970  22.758  0.00  0.00    -0.288 NA
ATOM     10  C   UNL     1      21.023   7.009  23.479  0.00  0.00    +0.146 C 
ATOM     11  C   UNL     1      23.358   7.064  23.776  0.00  0.00    +0.085 C 
ATOM     14  C   UNL     1      21.316   7.813  24.760  0.00  0.00    +0.030 C 
ATOM     15  C   UNL     1      22.804   8.131  24.698  0.00  0.00    +0.017 C 
BRANCH   3   9
ATOM      4  N   UNL     1      23.755   3.207  21.411  0.00  0.00    -0.305 NA
ATOM      9  C   UNL     1      22.466   5.785  21.918  0.00  0.00    +0.060 C 
ATOM     12  C   UNL     1      23.896   5.678  21.379  0.00  0.00    +0.034 C 
ATOM     13  C   UNL     1      22.112   4.524  22.712  0.00  0.00    +0.034 C 
ATOM     16  C   UNL     1      24.088   4.380  20.591  0.00  0.00    +0.085 C 
ATOM     17  C   UNL     1      22.364   3.264  21.879  0.00  0.00    +0.085 C 
ATOM     19  C   UNL     1      23.993   1.974  20.661  0.00  0.00    +0.104 C 
ENDBRANCH   3   9
ENDBRANCH  18  10
TORSDOF 7
ENDMDL
MODEL 9
REMARK VINA RESULT:      -5.7      2.317     10.208
REMARK  Name = 45783482
REMARK  9 active torsions:
REMARK  status: ('A' for Active; 'I' for Inactive)
REMARK    1  A    between atoms: O_2  and  C_27
REMARK    2  A    between atoms: O_2  and  C_28
REMARK    3  A    between atoms: N_3  and  C_9
REMARK    4  A    between atoms: N_4  and  C_19
REMARK    5  A    between atoms: N_8  and  C_25
REMARK    6  A    between atoms: N_8  and  C_26
REMARK    7  A    between atoms: C_10  and  C_18
REMARK    8  A    between atoms: C_20  and  C_21
REMARK    9  A    between atoms: C_26  and  C_27
REMARK                            x       y       z     vdW  Elec       q    Type
REMARK                         _______ _______ _______ _____ _____    ______ ____
ROOT
ATOM      1  O   UNL     1      20.746   4.743  20.366  0.00  0.00    -0.336 OA
ATOM      5  N   UNL     1      19.940   6.715  21.059  0.00  0.00    -0.190 NA
ATOM      6  N   UNL     1      19.438   4.826  19.870  0.00  0.00    -0.056 NA
ATOM     18  C   UNL     1      20.961   5.895  21.054  0.00  0.00    +0.245 A 
ATOM     20  C   UNL     1      19.030   6.016  20.320  0.00  0.00    +0.204 A 
ENDROOT
BRANCH  20  21
ATOM      7  N   UNL     1      15.634   6.352  18.845  0.00  0.00    -0.240 NA
ATOM     21  C   UNL     1      17.721   6.536  20.052  0.00  0.00    +0.041 A 
ATOM     22  C   UNL     1      17.257   7.678  20.695  0.00  0.00    +0.016 A 
ATOM     23  C   UNL     1      16.878   5.915  19.144  0.00  0.00    +0.124 A 
ATOM     24  C   UNL     1      15.983   8.158  20.414  0.00  0.00    +0.044 A 
ATOM     25  C   UNL     1      15.217   7.465  19.490  0.00  0.00    +0.119 A 
BRANCH  25   8
ATOM      8  N   UNL     1      13.921   7.967  19.214  0.00  0.00    -0.327 N 
ATOM     29  H   UNL     1      13.514   7.701  18.325  0.00  0.00    +0.148 HD
BRANCH   8  26
ATOM     26  C   UNL     1      13.210   8.805  20.124  0.00  0.00    +0.131 C 
BRANCH  26  27
ATOM     27  C   UNL     1      11.983   8.080  20.649  0.00  0.00    +0.178 C 
BRANCH  27   2
ATOM      2  O   UNL     1      12.386   6.901  21.333  0.00  0.00    -0.381 OA
ATOM     28  C   UNL     1      11.301   6.001  21.504  0.00  0.00    +0.194 C 
ENDBRANCH  27   2
ENDBRANCH  26  27
ENDBRANCH   8  26
ENDBRANCH  25   8
ENDBRANCH  20  21
BRANCH  18  10
ATOM      3  N   UNL     1      22.985   4.757  21.946  0.00  0.00    -0.288 NA
ATOM     10  C   UNL     1      22.323   6.052  21.696  0.00  0.00    +0.146 C 
ATOM     11  C   UNL     1      24.425   5.007  21.871  0.00  0.00    +0.085 C 
ATOM     14  C   UNL     1      23.312   6.833  20.809  0.00  0.00    +0.030 C 
ATOM     15  C   UNL     1      24.522   5.920  20.666  0.00  0.00    +0.017 C 
BRANCH   3   9
ATOM      4  N   UNL     1      23.346   2.702  25.649  0.00  0.00    -0.305 NA
ATOM      9  C   UNL     1      22.599   4.149  23.217  0.00  0.00    +0.060 C 
ATOM     12  C   UNL     1      22.893   2.645  23.217  0.00  0.00    +0.034 C 
ATOM     13  C   UNL     1      23.339   4.824  24.375  0.00  0.00    +0.034 C 
ATOM     16  C   UNL     1      22.591   2.027  24.584  0.00  0.00    +0.085 C 
ATOM     17  C   UNL     1      23.022   4.134  25.704  0.00  0.00    +0.085 C 
ATOM     19  C   UNL     1      23.087   2.068  26.942  0.00  0.00    +0.104 C 
ENDBRANCH   3   9
ENDBRANCH  18  10
TORSDOF 7
ENDMDL
MODEL 10
REMARK VINA RESULT:      -5.7      3.635      9.551
REMARK  Name = 45783482
REMARK  9 active torsions:
REMARK  status: ('A' for Active; 'I' for Inactive)
REMARK    1  A    between atoms: O_2  and  C_27
REMARK    2  A    between atoms: O_2  and  C_28
REMARK    3  A    between atoms: N_3  and  C_9
REMARK    4  A    between atoms: N_4  and  C_19
REMARK    5  A    between atoms: N_8  and  C_25
REMARK    6  A    between atoms: N_8  and  C_26
REMARK    7  A    between atoms: C_10  and  C_18
REMARK    8  A    between atoms: C_20  and  C_21
REMARK    9  A    between atoms: C_26  and  C_27
REMARK                            x       y       z     vdW  Elec       q    Type
REMARK                         _______ _______ _______ _____ _____    ______ ____
ROOT
ATOM      1  O   UNL     1      14.020  10.129  18.306  0.00  0.00    -0.336 OA
ATOM      5  N   UNL     1      14.240   9.092  16.332  0.00  0.00    -0.190 NA
ATOM      6  N   UNL     1      14.080  11.141  17.339  0.00  0.00    -0.056 NA
ATOM     18  C   UNL     1      14.121   8.955  17.629  0.00  0.00    +0.245 A 
ATOM     20  C   UNL     1      14.209  10.451  16.202  0.00  0.00    +0.204 A 
ENDROOT
BRANCH  20  21
ATOM      7  N   UNL     1      13.227  12.248  13.099  0.00  0.00    -0.240 NA
ATOM     21  C   UNL     1      14.312  11.086  14.920  0.00  0.00    +0.041 A 
ATOM     22  C   UNL     1      15.530  11.169  14.257  0.00  0.00    +0.016 A 
ATOM     23  C   UNL     1      13.199  11.636  14.304  0.00  0.00    +0.124 A 
ATOM     24  C   UNL     1      15.599  11.790  13.015  0.00  0.00    +0.044 A 
ATOM     25  C   UNL     1      14.429  12.309  12.484  0.00  0.00    +0.119 A 
BRANCH  25   8
ATOM      8  N   UNL     1      14.515  12.940  11.218  0.00  0.00    -0.327 N 
ATOM     29  H   UNL     1      15.447  13.073  10.843  0.00  0.00    +0.148 HD
BRANCH   8  26
ATOM     26  C   UNL     1      13.366  13.376  10.494  0.00  0.00    +0.131 C 
BRANCH  26  27
ATOM     27  C   UNL     1      13.210  12.557   9.224  0.00  0.00    +0.178 C 
BRANCH  27   2
ATOM      2  O   UNL     1      12.221  11.556   9.423  0.00  0.00    -0.381 OA
ATOM     28  C   UNL     1      11.152  12.031  10.228  0.00  0.00    +0.194 C 
ENDBRANCH  27   2
ENDBRANCH  26  27
ENDBRANCH   8  26
ENDBRANCH  25   8
ENDBRANCH  20  21
BRANCH  18  10
ATOM      3  N   UNL     1      14.692   7.870  19.794  0.00  0.00    -0.288 NA
ATOM     10  C   UNL     1      14.081   7.691  18.461  0.00  0.00    +0.146 C 
ATOM     11  C   UNL     1      14.008   6.938  20.690  0.00  0.00    +0.085 C 
ATOM     14  C   UNL     1      12.645   7.215  18.750  0.00  0.00    +0.030 C 
ATOM     15  C   UNL     1      12.562   7.098  20.266  0.00  0.00    +0.017 C 
BRANCH   3   9
ATOM      4  N   UNL     1      18.488   6.252  20.813  0.00  0.00    -0.305 NA
ATOM      9  C   UNL     1      16.139   7.671  19.795  0.00  0.00    +0.060 C 
ATOM     12  C   UNL     1      16.731   7.956  21.179  0.00  0.00    +0.034 C 
ATOM     13  C   UNL     1      16.478   6.241  19.367  0.00  0.00    +0.034 C 
ATOM     16  C   UNL     1      18.229   7.642  21.210  0.00  0.00    +0.085 C 
ATOM     17  C   UNL     1      17.985   5.984  19.459  0.00  0.00    +0.085 C 
ATOM     19  C   UNL     1      19.917   5.953  20.897  0.00  0.00    +0.104 C 
ENDBRANCH   3   9
ENDBRANCH  18  10
TORSDOF 7
ENDMDL
