MODEL 1
REMARK VINA RESULT:      -7.5      0.000      0.000
REMARK  Name = 11941367
REMARK  4 active torsions:
REMARK  status: ('A' for Active; 'I' for Inactive)
REMARK    1  A    between atoms: N_4  and  C_13
REMARK    2  A    between atoms: N_6  and  C_26
REMARK    3  A    between atoms: C_21  and  C_23
REMARK    4  A    between atoms: C_24  and  C_26
REMARK                            x       y       z     vdW  Elec       q    Type
REMARK                         _______ _______ _______ _____ _____    ______ ____
ROOT
ATOM      2  O   UNL     1      10.543   9.954  22.491  0.00  0.00    -0.267 OA
ATOM      4  N   UNL     1      14.341   7.867  19.969  0.00  0.00    -0.298 NA
ATOM      5  N   UNL     1      11.884   9.803  20.590  0.00  0.00    -0.311 N 
ATOM      7  C   UNL     1      11.985   7.698  19.130  0.00  0.00    +0.024 C 
ATOM      8  C   UNL     1      13.336   9.652  18.539  0.00  0.00    +0.050 C 
ATOM      9  C   UNL     1      12.294   8.674  18.003  0.00  0.00    +0.017 C 
ATOM     10  C   UNL     1      13.269   6.954  19.555  0.00  0.00    +0.090 C 
ATOM     11  C   UNL     1      14.614   8.879  18.938  0.00  0.00    +0.094 C 
ATOM     12  C   UNL     1      11.340   8.471  20.290  0.00  0.00    +0.130 C 
ATOM     14  C   UNL     1      12.790  10.423  19.727  0.00  0.00    +0.026 A 
ATOM     17  C   UNL     1      13.187  11.684  19.960  0.00  0.00    +0.022 A 
ATOM     18  C   UNL     1      11.369  10.456  21.727  0.00  0.00    +0.259 A 
ATOM     21  C   UNL     1      11.859  11.856  21.981  0.00  0.00    +0.047 A 
ATOM     22  C   UNL     1      12.717  12.405  21.108  0.00  0.00    +0.015 A 
ENDROOT
BRANCH   4  13
ATOM      1  O   UNL     1      18.393   6.765  19.988  0.00  0.00    -0.380 OA
ATOM     13  C   UNL     1      15.555   7.129  20.311  0.00  0.00    +0.061 C 
ATOM     15  C   UNL     1      16.163   6.493  19.058  0.00  0.00    +0.047 C 
ATOM     16  C   UNL     1      16.584   8.043  20.987  0.00  0.00    +0.047 C 
ATOM     19  C   UNL     1      17.494   5.828  19.394  0.00  0.00    +0.161 C 
ATOM     20  C   UNL     1      17.890   7.292  21.216  0.00  0.00    +0.161 C 
ENDBRANCH   4  13
BRANCH  21  23
ATOM     23  C   UNL     1      11.419  12.615  23.165  0.00  0.00    -0.008 A 
ATOM     24  C   UNL     1      12.025  12.438  24.411  0.00  0.00    -0.025 A 
ATOM     25  C   UNL     1      10.374  13.531  23.028  0.00  0.00    +0.009 A 
ATOM     27  C   UNL     1      11.587  13.171  25.514  0.00  0.00    +0.005 A 
ATOM     30  C   UNL     1       9.936  14.265  24.130  0.00  0.00    +0.001 A 
ATOM     31  C   UNL     1      10.543  14.085  25.373  0.00  0.00    +0.000 A 
BRANCH  24  26
ATOM     26  C   UNL     1      13.147  11.467  24.598  0.00  0.00    +0.120 C 
BRANCH  26   6
ATOM      3  O   UNL     1      17.244  12.223  25.109  0.00  0.00    -0.377 OA
ATOM      6  N   UNL     1      14.420  12.168  24.760  0.00  0.00    -0.294 NA
ATOM     28  C   UNL     1      15.337  11.846  23.657  0.00  0.00    +0.113 C 
ATOM     29  C   UNL     1      15.042  11.828  26.047  0.00  0.00    +0.113 C 
ATOM     32  C   UNL     1      16.661  12.580  23.855  0.00  0.00    +0.175 C 
ATOM     33  C   UNL     1      16.372  12.562  26.188  0.00  0.00    +0.175 C 
ENDBRANCH  26   6
ENDBRANCH  24  26
ENDBRANCH  21  23
TORSDOF 4
ENDMDL
MODEL 2
REMARK VINA RESULT:      -7.2     17.005     20.617
REMARK  Name = 11941367
REMARK  4 active torsions:
REMARK  status: ('A' for Active; 'I' for Inactive)
REMARK    1  A    between atoms: N_4  and  C_13
REMARK    2  A    between atoms: N_6  and  C_26
REMARK    3  A    between atoms: C_21  and  C_23
REMARK    4  A    between atoms: C_24  and  C_26
REMARK                            x       y       z     vdW  Elec       q    Type
REMARK                         _______ _______ _______ _____ _____    ______ ____
ROOT
ATOM      2  O   UNL     1      12.256   7.811   2.806  0.00  0.00    -0.267 OA
ATOM      4  N   UNL     1      13.280   4.474  -0.794  0.00  0.00    -0.298 NA
ATOM      5  N   UNL     1      12.714   5.629   2.125  0.00  0.00    -0.311 N 
ATOM      7  C   UNL     1      14.932   4.957   1.029  0.00  0.00    +0.024 C 
ATOM      8  C   UNL     1      13.196   3.269   1.393  0.00  0.00    +0.050 C 
ATOM      9  C   UNL     1      14.663   3.598   1.661  0.00  0.00    +0.017 C 
ATOM     10  C   UNL     1      14.651   4.901  -0.488  0.00  0.00    +0.090 C 
ATOM     11  C   UNL     1      12.952   3.203  -0.132  0.00  0.00    +0.094 C 
ATOM     12  C   UNL     1      14.081   6.014   1.748  0.00  0.00    +0.130 C 
ATOM     14  C   UNL     1      12.287   4.303   2.031  0.00  0.00    +0.026 A 
ATOM     17  C   UNL     1      11.073   3.952   2.486  0.00  0.00    +0.022 A 
ATOM     18  C   UNL     1      11.901   6.639   2.677  0.00  0.00    +0.259 A 
ATOM     21  C   UNL     1      10.533   6.223   3.146  0.00  0.00    +0.047 A 
ATOM     22  C   UNL     1      10.184   4.931   3.045  0.00  0.00    +0.015 A 
ENDROOT
BRANCH   4  13
ATOM      1  O   UNL     1      11.347   3.692  -4.438  0.00  0.00    -0.380 OA
ATOM     13  C   UNL     1      13.069   4.382  -2.237  0.00  0.00    +0.061 C 
ATOM     15  C   UNL     1      12.800   2.931  -2.644  0.00  0.00    +0.047 C 
ATOM     16  C   UNL     1      11.907   5.276  -2.683  0.00  0.00    +0.047 C 
ATOM     19  C   UNL     1      12.458   2.852  -4.129  0.00  0.00    +0.161 C 
ATOM     20  C   UNL     1      11.616   5.067  -4.164  0.00  0.00    +0.161 C 
ENDBRANCH   4  13
BRANCH  21  23
ATOM     23  C   UNL     1       9.584   7.205   3.699  0.00  0.00    -0.008 A 
ATOM     24  C   UNL     1       9.593   7.543   5.054  0.00  0.00    -0.025 A 
ATOM     25  C   UNL     1       8.662   7.807   2.841  0.00  0.00    +0.009 A 
ATOM     27  C   UNL     1       8.682   8.477   5.549  0.00  0.00    +0.005 A 
ATOM     30  C   UNL     1       7.751   8.741   3.335  0.00  0.00    +0.001 A 
ATOM     31  C   UNL     1       7.762   9.076   4.688  0.00  0.00    +0.000 A 
BRANCH  24  26
ATOM     26  C   UNL     1      10.566   6.921   6.004  0.00  0.00    +0.120 C 
BRANCH  26   6
ATOM      3  O   UNL     1       9.867   4.045   8.981  0.00  0.00    -0.377 OA
ATOM      6  N   UNL     1       9.883   6.025   6.936  0.00  0.00    -0.294 NA
ATOM     28  C   UNL     1      10.232   6.354   8.326  0.00  0.00    +0.113 C 
ATOM     29  C   UNL     1      10.217   4.623   6.651  0.00  0.00    +0.113 C 
ATOM     32  C   UNL     1       9.517   5.398   9.278  0.00  0.00    +0.175 C 
ATOM     33  C   UNL     1       9.502   3.710   7.642  0.00  0.00    +0.175 C 
ENDBRANCH  26   6
ENDBRANCH  24  26
ENDBRANCH  21  23
TORSDOF 4
ENDMDL
MODEL 3
REMARK VINA RESULT:      -6.9     29.649     31.875
REMARK  Name = 11941367
REMARK  4 active torsions:
REMARK  status: ('A' for Active; 'I' for Inactive)
REMARK    1  A    between atoms: N_4  and  C_13
REMARK    2  A    between atoms: N_6  and  C_26
REMARK    3  A    between atoms: C_21  and  C_23
REMARK    4  A    between atoms: C_24  and  C_26
REMARK                            x       y       z     vdW  Elec       q    Type
REMARK                         _______ _______ _______ _____ _____    ______ ____
ROOT
ATOM      2  O   UNL     1     -13.060  -6.770   9.557  0.00  0.00    -0.267 OA
ATOM      4  N   UNL     1      -8.263  -8.219   9.354  0.00  0.00    -0.298 NA
ATOM      5  N   UNL     1     -10.939  -6.658   8.594  0.00  0.00    -0.311 N 
ATOM      7  C   UNL     1      -9.830  -8.666   7.449  0.00  0.00    +0.024 C 
ATOM      8  C   UNL     1      -8.648  -6.525   7.559  0.00  0.00    +0.050 C 
ATOM      9  C   UNL     1      -9.134  -7.610   6.602  0.00  0.00    +0.017 C 
ATOM     10  C   UNL     1      -8.846  -9.249   8.485  0.00  0.00    +0.090 C 
ATOM     11  C   UNL     1      -7.652  -7.136   8.570  0.00  0.00    +0.094 C 
ATOM     12  C   UNL     1     -11.069  -8.037   8.103  0.00  0.00    +0.130 C 
ATOM     14  C   UNL     1      -9.817  -5.886   8.286  0.00  0.00    +0.026 A 
ATOM     17  C   UNL     1      -9.768  -4.594   8.649  0.00  0.00    +0.022 A 
ATOM     18  C   UNL     1     -12.040  -6.129   9.297  0.00  0.00    +0.259 A 
ATOM     21  C   UNL     1     -11.942  -4.689   9.720  0.00  0.00    +0.047 A 
ATOM     22  C   UNL     1     -10.846  -3.992   9.382  0.00  0.00    +0.015 A 
ENDROOT
BRANCH   4  13
ATOM      1  O   UNL     1      -5.001 -10.482  10.720  0.00  0.00    -0.380 OA
ATOM     13  C   UNL     1      -7.298  -8.801  10.283  0.00  0.00    +0.061 C 
ATOM     15  C   UNL     1      -7.381 -10.330  10.250  0.00  0.00    +0.047 C 
ATOM     16  C   UNL     1      -5.872  -8.347   9.954  0.00  0.00    +0.047 C 
ATOM     19  C   UNL     1      -6.291 -10.940  11.125  0.00  0.00    +0.161 C 
ATOM     20  C   UNL     1      -4.867  -9.066  10.845  0.00  0.00    +0.161 C 
ENDBRANCH   4  13
BRANCH  21  23
ATOM     23  C   UNL     1     -13.016  -4.047  10.498  0.00  0.00    -0.008 A 
ATOM     24  C   UNL     1     -13.066  -4.146  11.890  0.00  0.00    -0.025 A 
ATOM     25  C   UNL     1     -13.999  -3.324   9.819  0.00  0.00    +0.009 A 
ATOM     27  C   UNL     1     -14.096  -3.527  12.600  0.00  0.00    +0.005 A 
ATOM     30  C   UNL     1     -15.029  -2.704  10.528  0.00  0.00    +0.001 A 
ATOM     31  C   UNL     1     -15.076  -2.807  11.918  0.00  0.00    +0.000 A 
BRANCH  24  26
ATOM     26  C   UNL     1     -12.032  -4.910  12.653  0.00  0.00    +0.120 C 
BRANCH  26   6
ATOM      3  O   UNL     1     -12.684  -8.013  15.404  0.00  0.00    -0.377 OA
ATOM      6  N   UNL     1     -12.654  -5.755  13.671  0.00  0.00    -0.294 NA
ATOM     28  C   UNL     1     -11.829  -5.801  14.886  0.00  0.00    +0.113 C 
ATOM     29  C   UNL     1     -12.873  -7.115  13.158  0.00  0.00    +0.113 C 
ATOM     32  C   UNL     1     -12.492  -6.698  15.928  0.00  0.00    +0.175 C 
ATOM     33  C   UNL     1     -13.512  -7.979  14.241  0.00  0.00    +0.175 C 
ENDBRANCH  26   6
ENDBRANCH  24  26
ENDBRANCH  21  23
TORSDOF 4
ENDMDL
MODEL 4
REMARK VINA RESULT:      -6.9     28.067     30.714
REMARK  Name = 11941367
REMARK  4 active torsions:
REMARK  status: ('A' for Active; 'I' for Inactive)
REMARK    1  A    between atoms: N_4  and  C_13
REMARK    2  A    between atoms: N_6  and  C_26
REMARK    3  A    between atoms: C_21  and  C_23
REMARK    4  A    between atoms: C_24  and  C_26
REMARK                            x       y       z     vdW  Elec       q    Type
REMARK                         _______ _______ _______ _____ _____    ______ ____
ROOT
ATOM      2  O   UNL     1      -5.417 -12.565  10.151  0.00  0.00    -0.267 OA
ATOM      4  N   UNL     1      -3.898 -11.064  14.688  0.00  0.00    -0.298 NA
ATOM      5  N   UNL     1      -3.729 -11.893  11.613  0.00  0.00    -0.311 N 
ATOM      7  C   UNL     1      -3.099 -13.229  13.708  0.00  0.00    +0.024 C 
ATOM      8  C   UNL     1      -1.905 -11.157  13.184  0.00  0.00    +0.050 C 
ATOM      9  C   UNL     1      -1.713 -12.641  13.487  0.00  0.00    +0.017 C 
ATOM     10  C   UNL     1      -3.796 -12.515  14.887  0.00  0.00    +0.090 C 
ATOM     11  C   UNL     1      -2.588 -10.468  14.388  0.00  0.00    +0.094 C 
ATOM     12  C   UNL     1      -3.896 -13.123  12.400  0.00  0.00    +0.130 C 
ATOM     14  C   UNL     1      -2.732 -10.966  11.926  0.00  0.00    +0.026 A 
ATOM     17  C   UNL     1      -2.523  -9.907  11.128  0.00  0.00    +0.022 A 
ATOM     18  C   UNL     1      -4.551 -11.752  10.477  0.00  0.00    +0.259 A 
ATOM     21  C   UNL     1      -4.315 -10.536   9.621  0.00  0.00    +0.047 A 
ATOM     22  C   UNL     1      -3.333  -9.689   9.964  0.00  0.00    +0.015 A 
ENDROOT
BRANCH   4  13
ATOM      1  O   UNL     1      -6.522 -10.450  17.908  0.00  0.00    -0.380 OA
ATOM     13  C   UNL     1      -4.513 -10.419  15.846  0.00  0.00    +0.061 C 
ATOM     15  C   UNL     1      -5.985 -10.106  15.562  0.00  0.00    +0.047 C 
ATOM     16  C   UNL     1      -4.395 -11.299  17.095  0.00  0.00    +0.047 C 
ATOM     19  C   UNL     1      -6.658  -9.547  16.811  0.00  0.00    +0.161 C 
ATOM     20  C   UNL     1      -5.156 -10.673  18.258  0.00  0.00    +0.161 C 
ENDBRANCH   4  13
BRANCH  21  23
ATOM     23  C   UNL     1      -5.146 -10.266   8.434  0.00  0.00    -0.008 A 
ATOM     24  C   UNL     1      -6.247  -9.408   8.496  0.00  0.00    -0.025 A 
ATOM     25  C   UNL     1      -4.816 -10.885   7.227  0.00  0.00    +0.009 A 
ATOM     27  C   UNL     1      -7.014  -9.172   7.355  0.00  0.00    +0.005 A 
ATOM     30  C   UNL     1      -5.583 -10.648   6.086  0.00  0.00    +0.001 A 
ATOM     31  C   UNL     1      -6.682  -9.792   6.151  0.00  0.00    +0.000 A 
BRANCH  24  26
ATOM     26  C   UNL     1      -6.631  -8.727   9.770  0.00  0.00    +0.120 C 
BRANCH  26   6
ATOM      3  O   UNL     1      -9.581  -9.874  12.527  0.00  0.00    -0.377 OA
ATOM      6  N   UNL     1      -7.586  -9.536  10.525  0.00  0.00    -0.294 NA
ATOM     28  C   UNL     1      -8.956  -9.038  10.336  0.00  0.00    +0.113 C 
ATOM     29  C   UNL     1      -7.246  -9.546  11.954  0.00  0.00    +0.113 C 
ATOM     32  C   UNL     1      -9.932  -9.890  11.143  0.00  0.00    +0.175 C 
ATOM     33  C   UNL     1      -8.263 -10.387  12.721  0.00  0.00    +0.175 C 
ENDBRANCH  26   6
ENDBRANCH  24  26
ENDBRANCH  21  23
TORSDOF 4
ENDMDL
MODEL 5
REMARK VINA RESULT:      -6.8     17.008     20.473
REMARK  Name = 11941367
REMARK  4 active torsions:
REMARK  status: ('A' for Active; 'I' for Inactive)
REMARK    1  A    between atoms: N_4  and  C_13
REMARK    2  A    between atoms: N_6  and  C_26
REMARK    3  A    between atoms: C_21  and  C_23
REMARK    4  A    between atoms: C_24  and  C_26
REMARK                            x       y       z     vdW  Elec       q    Type
REMARK                         _______ _______ _______ _____ _____    ______ ____
ROOT
ATOM      2  O   UNL     1      12.322   7.786   2.844  0.00  0.00    -0.267 OA
ATOM      4  N   UNL     1      12.984   4.443  -0.834  0.00  0.00    -0.298 NA
ATOM      5  N   UNL     1      12.800   5.620   2.125  0.00  0.00    -0.311 N 
ATOM      7  C   UNL     1      14.862   5.054   0.711  0.00  0.00    +0.024 C 
ATOM      8  C   UNL     1      13.304   3.277   1.353  0.00  0.00    +0.050 C 
ATOM      9  C   UNL     1      14.772   3.695   1.391  0.00  0.00    +0.017 C 
ATOM     10  C   UNL     1      14.358   4.953  -0.745  0.00  0.00    +0.090 C 
ATOM     11  C   UNL     1      12.836   3.168  -0.117  0.00  0.00    +0.094 C 
ATOM     12  C   UNL     1      14.069   6.075   1.540  0.00  0.00    +0.130 C 
ATOM     14  C   UNL     1      12.442   4.270   2.111  0.00  0.00    +0.026 A 
ATOM     17  C   UNL     1      11.334   3.860   2.749  0.00  0.00    +0.022 A 
ATOM     18  C   UNL     1      12.021   6.593   2.783  0.00  0.00    +0.259 A 
ATOM     21  C   UNL     1      10.767   6.109   3.459  0.00  0.00    +0.047 A 
ATOM     22  C   UNL     1      10.484   4.797   3.427  0.00  0.00    +0.015 A 
ENDROOT
BRANCH   4  13
ATOM      1  O   UNL     1      12.638   2.830  -4.695  0.00  0.00    -0.380 OA
ATOM     13  C   UNL     1      12.564   4.311  -2.227  0.00  0.00    +0.061 C 
ATOM     15  C   UNL     1      13.781   4.323  -3.155  0.00  0.00    +0.047 C 
ATOM     16  C   UNL     1      11.755   3.026  -2.440  0.00  0.00    +0.047 C 
ATOM     19  C   UNL     1      13.353   4.061  -4.595  0.00  0.00    +0.161 C 
ATOM     20  C   UNL     1      11.439   2.837  -3.918  0.00  0.00    +0.161 C 
ENDBRANCH   4  13
BRANCH  21  23
ATOM     23  C   UNL     1       9.856   7.046   4.140  0.00  0.00    -0.008 A 
ATOM     24  C   UNL     1      10.093   7.470   5.450  0.00  0.00    -0.025 A 
ATOM     25  C   UNL     1       8.737   7.517   3.451  0.00  0.00    +0.009 A 
ATOM     27  C   UNL     1       9.213   8.359   6.068  0.00  0.00    +0.005 A 
ATOM     30  C   UNL     1       7.856   8.406   4.068  0.00  0.00    +0.001 A 
ATOM     31  C   UNL     1       8.095   8.826   5.376  0.00  0.00    +0.000 A 
BRANCH  24  26
ATOM     26  C   UNL     1      11.281   6.989   6.219  0.00  0.00    +0.120 C 
BRANCH  26   6
ATOM      3  O   UNL     1      14.931   9.004   6.711  0.00  0.00    -0.377 OA
ATOM      6  N   UNL     1      12.444   7.837   5.963  0.00  0.00    -0.294 NA
ATOM     28  C   UNL     1      13.684   7.046   6.001  0.00  0.00    +0.113 C 
ATOM     29  C   UNL     1      12.517   8.933   6.939  0.00  0.00    +0.113 C 
ATOM     32  C   UNL     1      14.884   7.954   5.743  0.00  0.00    +0.175 C 
ATOM     33  C   UNL     1      13.744   9.795   6.658  0.00  0.00    +0.175 C 
ENDBRANCH  26   6
ENDBRANCH  24  26
ENDBRANCH  21  23
TORSDOF 4
ENDMDL
MODEL 6
REMARK VINA RESULT:      -6.7     28.220     31.459
REMARK  Name = 11941367
REMARK  4 active torsions:
REMARK  status: ('A' for Active; 'I' for Inactive)
REMARK    1  A    between atoms: N_4  and  C_13
REMARK    2  A    between atoms: N_6  and  C_26
REMARK    3  A    between atoms: C_21  and  C_23
REMARK    4  A    between atoms: C_24  and  C_26
REMARK                            x       y       z     vdW  Elec       q    Type
REMARK                         _______ _______ _______ _____ _____    ______ ____
ROOT
ATOM      2  O   UNL     1      -5.845 -12.230   9.812  0.00  0.00    -0.267 OA
ATOM      4  N   UNL     1      -3.966 -11.056  14.311  0.00  0.00    -0.298 NA
ATOM      5  N   UNL     1      -4.036 -11.714  11.191  0.00  0.00    -0.311 N 
ATOM      7  C   UNL     1      -3.333 -13.193  13.163  0.00  0.00    +0.024 C 
ATOM      8  C   UNL     1      -2.082 -11.146  12.673  0.00  0.00    +0.050 C 
ATOM      9  C   UNL     1      -1.939 -12.652  12.880  0.00  0.00    +0.017 C 
ATOM     10  C   UNL     1      -3.918 -12.520  14.423  0.00  0.00    +0.090 C 
ATOM     11  C   UNL     1      -2.653 -10.500  13.956  0.00  0.00    +0.094 C 
ATOM     12  C   UNL     1      -4.208 -12.979  11.920  0.00  0.00    +0.130 C 
ATOM     14  C   UNL     1      -2.981 -10.849  11.486  0.00  0.00    +0.026 A 
ATOM     17  C   UNL     1      -2.775  -9.756  10.735  0.00  0.00    +0.022 A 
ATOM     18  C   UNL     1      -4.923 -11.473  10.123  0.00  0.00    +0.259 A 
ATOM     21  C   UNL     1      -4.690 -10.222   9.321  0.00  0.00    +0.047 A 
ATOM     22  C   UNL     1      -3.649  -9.438   9.641  0.00  0.00    +0.015 A 
ENDROOT
BRANCH   4  13
ATOM      1  O   UNL     1      -6.351 -10.513  17.724  0.00  0.00    -0.380 OA
ATOM     13  C   UNL     1      -4.475 -10.453  15.541  0.00  0.00    +0.061 C 
ATOM     15  C   UNL     1      -5.943 -10.055  15.372  0.00  0.00    +0.047 C 
ATOM     16  C   UNL     1      -4.325 -11.412  16.728  0.00  0.00    +0.047 C 
ATOM     19  C   UNL     1      -6.508  -9.540  16.692  0.00  0.00    +0.161 C 
ATOM     20  C   UNL     1      -4.978 -10.822  17.971  0.00  0.00    +0.161 C 
ENDBRANCH   4  13
BRANCH  21  23
ATOM     23  C   UNL     1      -5.583  -9.850   8.209  0.00  0.00    -0.008 A 
ATOM     24  C   UNL     1      -5.453 -10.430   6.945  0.00  0.00    -0.025 A 
ATOM     25  C   UNL     1      -6.578  -8.897   8.436  0.00  0.00    +0.009 A 
ATOM     27  C   UNL     1      -6.314 -10.057   5.913  0.00  0.00    +0.005 A 
ATOM     30  C   UNL     1      -7.439  -8.524   7.404  0.00  0.00    +0.001 A 
ATOM     31  C   UNL     1      -7.307  -9.104   6.143  0.00  0.00    +0.000 A 
BRANCH  24  26
ATOM     26  C   UNL     1      -4.401 -11.454   6.664  0.00  0.00    +0.120 C 
BRANCH  26   6
ATOM      3  O   UNL     1      -4.170 -14.154   3.459  0.00  0.00    -0.377 OA
ATOM      6  N   UNL     1      -4.637 -12.101   5.375  0.00  0.00    -0.294 NA
ATOM     28  C   UNL     1      -5.161 -13.462   5.563  0.00  0.00    +0.113 C 
ATOM     29  C   UNL     1      -3.403 -12.143   4.578  0.00  0.00    +0.113 C 
ATOM     32  C   UNL     1      -5.387 -14.122   4.205  0.00  0.00    +0.175 C 
ATOM     33  C   UNL     1      -3.672 -12.833   3.244  0.00  0.00    +0.175 C 
ENDBRANCH  26   6
ENDBRANCH  24  26
ENDBRANCH  21  23
TORSDOF 4
ENDMDL
MODEL 7
REMARK VINA RESULT:      -6.6     17.002     20.755
REMARK  Name = 11941367
REMARK  4 active torsions:
REMARK  status: ('A' for Active; 'I' for Inactive)
REMARK    1  A    between atoms: N_4  and  C_13
REMARK    2  A    between atoms: N_6  and  C_26
REMARK    3  A    between atoms: C_21  and  C_23
REMARK    4  A    between atoms: C_24  and  C_26
REMARK                            x       y       z     vdW  Elec       q    Type
REMARK                         _______ _______ _______ _____ _____    ______ ____
ROOT
ATOM      2  O   UNL     1      12.135   7.386   4.218  0.00  0.00    -0.267 OA
ATOM      4  N   UNL     1      11.727   5.475  -0.400  0.00  0.00    -0.298 NA
ATOM      5  N   UNL     1      12.314   5.597   2.733  0.00  0.00    -0.311 N 
ATOM      7  C   UNL     1      13.947   5.597   0.757  0.00  0.00    +0.024 C 
ATOM      8  C   UNL     1      12.498   3.661   1.135  0.00  0.00    +0.050 C 
ATOM      9  C   UNL     1      13.952   4.088   0.952  0.00  0.00    +0.017 C 
ATOM     10  C   UNL     1      13.107   5.969  -0.483  0.00  0.00    +0.090 C 
ATOM     11  C   UNL     1      11.688   4.031  -0.129  0.00  0.00    +0.094 C 
ATOM     12  C   UNL     1      13.429   6.260   2.041  0.00  0.00    +0.130 C 
ATOM     14  C   UNL     1      11.894   4.318   2.362  0.00  0.00    +0.026 A 
ATOM     17  C   UNL     1      10.951   3.685   3.078  0.00  0.00    +0.022 A 
ATOM     18  C   UNL     1      11.767   6.272   3.842  0.00  0.00    +0.259 A 
ATOM     21  C   UNL     1      10.687   5.552   4.604  0.00  0.00    +0.047 A 
ATOM     22  C   UNL     1      10.337   4.317   4.211  0.00  0.00    +0.015 A 
ENDROOT
BRANCH   4  13
ATOM      1  O   UNL     1       9.010   5.043  -3.573  0.00  0.00    -0.380 OA
ATOM     13  C   UNL     1      10.980   5.799  -1.613  0.00  0.00    +0.061 C 
ATOM     15  C   UNL     1      11.265   4.767  -2.707  0.00  0.00    +0.047 C 
ATOM     16  C   UNL     1       9.474   5.864  -1.333  0.00  0.00    +0.047 C 
ATOM     19  C   UNL     1      10.392   5.034  -3.929  0.00  0.00    +0.161 C 
ATOM     20  C   UNL     1       8.702   6.071  -2.630  0.00  0.00    +0.161 C 
ENDBRANCH   4  13
BRANCH  21  23
ATOM     23  C   UNL     1      10.015   6.182   5.754  0.00  0.00    -0.008 A 
ATOM     24  C   UNL     1       8.957   7.076   5.579  0.00  0.00    -0.025 A 
ATOM     25  C   UNL     1      10.451   5.868   7.043  0.00  0.00    +0.009 A 
ATOM     27  C   UNL     1       8.340   7.657   6.687  0.00  0.00    +0.005 A 
ATOM     30  C   UNL     1       9.834   6.448   8.152  0.00  0.00    +0.001 A 
ATOM     31  C   UNL     1       8.779   7.342   7.973  0.00  0.00    +0.000 A 
BRANCH  24  26
ATOM     26  C   UNL     1       8.461   7.436   4.215  0.00  0.00    +0.120 C 
BRANCH  26   6
ATOM      3  O   UNL     1       8.143  11.251   2.494  0.00  0.00    -0.377 OA
ATOM      6  N   UNL     1       8.361   8.886   4.063  0.00  0.00    -0.294 NA
ATOM     28  C   UNL     1       7.101   9.257   3.402  0.00  0.00    +0.113 C 
ATOM     29  C   UNL     1       9.503   9.411   3.301  0.00  0.00    +0.113 C 
ATOM     32  C   UNL     1       7.026  10.773   3.245  0.00  0.00    +0.175 C 
ATOM     33  C   UNL     1       9.370  10.923   3.147  0.00  0.00    +0.175 C 
ENDBRANCH  26   6
ENDBRANCH  24  26
ENDBRANCH  21  23
TORSDOF 4
ENDMDL
MODEL 8
REMARK VINA RESULT:      -6.6     28.534     30.409
REMARK  Name = 11941367
REMARK  4 active torsions:
REMARK  status: ('A' for Active; 'I' for Inactive)
REMARK    1  A    between atoms: N_4  and  C_13
REMARK    2  A    between atoms: N_6  and  C_26
REMARK    3  A    between atoms: C_21  and  C_23
REMARK    4  A    between atoms: C_24  and  C_26
REMARK                            x       y       z     vdW  Elec       q    Type
REMARK                         _______ _______ _______ _____ _____    ______ ____
ROOT
ATOM      2  O   UNL     1      -3.303 -10.250  15.499  0.00  0.00    -0.267 OA
ATOM      4  N   UNL     1      -5.289 -10.091  10.897  0.00  0.00    -0.298 NA
ATOM      5  N   UNL     1      -4.007 -11.316  13.548  0.00  0.00    -0.311 N 
ATOM      7  C   UNL     1      -2.935 -10.871  11.263  0.00  0.00    +0.024 C 
ATOM      8  C   UNL     1      -4.777 -12.473  11.449  0.00  0.00    +0.050 C 
ATOM      9  C   UNL     1      -3.341 -12.306  10.958  0.00  0.00    +0.017 C 
ATOM     10  C   UNL     1      -3.879  -9.887  10.540  0.00  0.00    +0.090 C 
ATOM     11  C   UNL     1      -5.699 -11.488  10.694  0.00  0.00    +0.094 C 
ATOM     12  C   UNL     1      -2.929 -10.672  12.785  0.00  0.00    +0.130 C 
ATOM     14  C   UNL     1      -4.864 -12.240  12.946  0.00  0.00    +0.026 A 
ATOM     17  C   UNL     1      -5.769 -12.901  13.685  0.00  0.00    +0.022 A 
ATOM     18  C   UNL     1      -4.064 -11.033  14.927  0.00  0.00    +0.259 A 
ATOM     21  C   UNL     1      -5.111 -11.763  15.724  0.00  0.00    +0.047 A 
ATOM     22  C   UNL     1      -5.895 -12.651  15.093  0.00  0.00    +0.015 A 
ENDROOT
BRANCH   4  13
ATOM      1  O   UNL     1      -8.400  -8.796   8.392  0.00  0.00    -0.380 OA
ATOM     13  C   UNL     1      -6.155  -9.179  10.153  0.00  0.00    +0.061 C 
ATOM     15  C   UNL     1      -6.081  -9.478   8.654  0.00  0.00    +0.047 C 
ATOM     16  C   UNL     1      -7.606  -9.278  10.637  0.00  0.00    +0.047 C 
ATOM     19  C   UNL     1      -7.077  -8.610   7.891  0.00  0.00    +0.161 C 
ATOM     20  C   UNL     1      -8.515  -8.422   9.765  0.00  0.00    +0.161 C 
ENDBRANCH   4  13
BRANCH  21  23
ATOM     23  C   UNL     1      -5.288 -11.511  17.165  0.00  0.00    -0.008 A 
ATOM     24  C   UNL     1      -6.146 -10.512  17.629  0.00  0.00    -0.025 A 
ATOM     25  C   UNL     1      -4.580 -12.296  18.077  0.00  0.00    +0.009 A 
ATOM     27  C   UNL     1      -6.293 -10.297  19.000  0.00  0.00    +0.005 A 
ATOM     30  C   UNL     1      -4.726 -12.082  19.448  0.00  0.00    +0.001 A 
ATOM     31  C   UNL     1      -5.583 -11.082  19.908  0.00  0.00    +0.000 A 
BRANCH  24  26
ATOM     26  C   UNL     1      -6.922  -9.652  16.684  0.00  0.00    +0.120 C 
BRANCH  26   6
ATOM      3  O   UNL     1     -11.083  -9.272  16.285  0.00  0.00    -0.377 OA
ATOM      6  N   UNL     1      -8.356  -9.755  16.945  0.00  0.00    -0.294 NA
ATOM     28  C   UNL     1      -9.030 -10.498  15.871  0.00  0.00    +0.113 C 
ATOM     29  C   UNL     1      -8.958  -8.422  17.088  0.00  0.00    +0.113 C 
ATOM     32  C   UNL     1     -10.527 -10.582  16.159  0.00  0.00    +0.175 C 
ATOM     33  C   UNL     1     -10.455  -8.556  17.348  0.00  0.00    +0.175 C 
ENDBRANCH  26   6
ENDBRANCH  24  26
ENDBRANCH  21  23
TORSDOF 4
ENDMDL
MODEL 9
REMARK VINA RESULT:      -6.4     28.867     31.209
REMARK  Name = 11941367
REMARK  4 active torsions:
REMARK  status: ('A' for Active; 'I' for Inactive)
REMARK    1  A    between atoms: N_4  and  C_13
REMARK    2  A    between atoms: N_6  and  C_26
REMARK    3  A    between atoms: C_21  and  C_23
REMARK    4  A    between atoms: C_24  and  C_26
REMARK                            x       y       z     vdW  Elec       q    Type
REMARK                         _______ _______ _______ _____ _____    ______ ____
ROOT
ATOM      2  O   UNL     1      -5.967 -13.181  14.939  0.00  0.00    -0.267 OA
ATOM      4  N   UNL     1      -9.037 -10.724  18.050  0.00  0.00    -0.298 NA
ATOM      5  N   UNL     1      -6.485 -12.360  17.059  0.00  0.00    -0.311 N 
ATOM      7  C   UNL     1      -8.526 -13.155  18.390  0.00  0.00    +0.024 C 
ATOM      8  C   UNL     1      -7.035 -11.465  19.347  0.00  0.00    +0.050 C 
ATOM      9  C   UNL     1      -7.675 -12.827  19.609  0.00  0.00    +0.017 C 
ATOM     10  C   UNL     1      -9.607 -12.070  18.190  0.00  0.00    +0.090 C 
ATOM     11  C   UNL     1      -8.140 -10.400  19.169  0.00  0.00    +0.094 C 
ATOM     12  C   UNL     1      -7.607 -13.303  17.170  0.00  0.00    +0.130 C 
ATOM     14  C   UNL     1      -6.145 -11.516  18.118  0.00  0.00    +0.026 A 
ATOM     17  C   UNL     1      -5.050 -10.744  18.040  0.00  0.00    +0.022 A 
ATOM     18  C   UNL     1      -5.717 -12.426  15.880  0.00  0.00    +0.259 A 
ATOM     21  C   UNL     1      -4.515 -11.523  15.806  0.00  0.00    +0.047 A 
ATOM     22  C   UNL     1      -4.229 -10.746  16.862  0.00  0.00    +0.015 A 
ENDROOT
BRANCH   4  13
ATOM      1  O   UNL     1     -11.684  -8.028  16.218  0.00  0.00    -0.380 OA
ATOM     13  C   UNL     1     -10.091  -9.721  17.917  0.00  0.00    +0.061 C 
ATOM     15  C   UNL     1      -9.535  -8.446  17.276  0.00  0.00    +0.047 C 
ATOM     16  C   UNL     1     -11.262 -10.258  17.087  0.00  0.00    +0.047 C 
ATOM     19  C   UNL     1     -10.659  -7.446  17.024  0.00  0.00    +0.161 C 
ATOM     20  C   UNL     1     -12.289  -9.158  16.847  0.00  0.00    +0.161 C 
ENDBRANCH   4  13
BRANCH  21  23
ATOM     23  C   UNL     1      -3.666 -11.478  14.602  0.00  0.00    -0.008 A 
ATOM     24  C   UNL     1      -4.048 -10.757  13.469  0.00  0.00    -0.025 A 
ATOM     25  C   UNL     1      -2.455 -12.173  14.606  0.00  0.00    +0.009 A 
ATOM     27  C   UNL     1      -3.224 -10.733  12.344  0.00  0.00    +0.005 A 
ATOM     30  C   UNL     1      -1.630 -12.150  13.481  0.00  0.00    +0.001 A 
ATOM     31  C   UNL     1      -2.015 -11.429  12.351  0.00  0.00    +0.000 A 
BRANCH  24  26
ATOM     26  C   UNL     1      -5.337 -10.000  13.427  0.00  0.00    +0.120 C 
BRANCH  26   6
ATOM      3  O   UNL     1      -8.329 -10.159  10.488  0.00  0.00    -0.377 OA
ATOM      6  N   UNL     1      -6.019 -10.204  12.151  0.00  0.00    -0.294 NA
ATOM     28  C   UNL     1      -6.582  -8.941  11.652  0.00  0.00    +0.113 C 
ATOM     29  C   UNL     1      -7.082 -11.211  12.282  0.00  0.00    +0.113 C 
ATOM     32  C   UNL     1      -7.299  -9.183  10.326  0.00  0.00    +0.175 C 
ATOM     33  C   UNL     1      -7.786 -11.398  10.942  0.00  0.00    +0.175 C 
ENDBRANCH  26   6
ENDBRANCH  24  26
ENDBRANCH  21  23
TORSDOF 4
ENDMDL
MODEL 10
REMARK VINA RESULT:      -6.4     22.575     24.648
REMARK  Name = 11941367
REMARK  4 active torsions:
REMARK  status: ('A' for Active; 'I' for Inactive)
REMARK    1  A    between atoms: N_4  and  C_13
REMARK    2  A    between atoms: N_6  and  C_26
REMARK    3  A    between atoms: C_21  and  C_23
REMARK    4  A    between atoms: C_24  and  C_26
REMARK                            x       y       z     vdW  Elec       q    Type
REMARK                         _______ _______ _______ _____ _____    ______ ____
ROOT
ATOM      2  O   UNL     1       9.387  -9.458  32.741  0.00  0.00    -0.267 OA
ATOM      4  N   UNL     1       8.430  -5.963  36.206  0.00  0.00    -0.298 NA
ATOM      5  N   UNL     1       8.658  -7.323  33.331  0.00  0.00    -0.311 N 
ATOM      7  C   UNL     1      10.187  -5.600  34.455  0.00  0.00    +0.024 C 
ATOM      8  C   UNL     1       7.859  -5.022  33.963  0.00  0.00    +0.050 C 
ATOM      9  C   UNL     1       9.305  -4.578  33.752  0.00  0.00    +0.017 C 
ATOM     10  C   UNL     1       9.844  -5.652  35.959  0.00  0.00    +0.090 C 
ATOM     11  C   UNL     1       7.542  -5.046  35.476  0.00  0.00    +0.094 C 
ATOM     12  C   UNL     1      10.015  -6.960  33.764  0.00  0.00    +0.130 C 
ATOM     14  C   UNL     1       7.621  -6.389  33.350  0.00  0.00    +0.026 A 
ATOM     17  C   UNL     1       6.418  -6.707  32.845  0.00  0.00    +0.022 A 
ATOM     18  C   UNL     1       8.487  -8.619  32.805  0.00  0.00    +0.259 A 
ATOM     21  C   UNL     1       7.119  -8.959  32.278  0.00  0.00    +0.047 A 
ATOM     22  C   UNL     1       6.166  -8.014  32.308  0.00  0.00    +0.015 A 
ENDROOT
BRANCH   4  13
ATOM      1  O   UNL     1       6.577  -4.904  39.823  0.00  0.00    -0.380 OA
ATOM     13  C   UNL     1       8.132  -5.950  37.637  0.00  0.00    +0.061 C 
ATOM     15  C   UNL     1       8.369  -4.553  38.218  0.00  0.00    +0.047 C 
ATOM     16  C   UNL     1       6.689  -6.392  37.904  0.00  0.00    +0.047 C 
ATOM     19  C   UNL     1       7.941  -4.508  39.681  0.00  0.00    +0.161 C 
ATOM     20  C   UNL     1       6.356  -6.245  39.384  0.00  0.00    +0.161 C 
ENDBRANCH   4  13
BRANCH  21  23
ATOM     23  C   UNL     1       6.817 -10.299  31.746  0.00  0.00    -0.008 A 
ATOM     24  C   UNL     1       6.413 -11.341  32.583  0.00  0.00    -0.025 A 
ATOM     25  C   UNL     1       6.937 -10.521  30.372  0.00  0.00    +0.009 A 
ATOM     27  C   UNL     1       6.133 -12.600  32.050  0.00  0.00    +0.005 A 
ATOM     30  C   UNL     1       6.658 -11.779  29.839  0.00  0.00    +0.001 A 
ATOM     31  C   UNL     1       6.256 -12.818  30.678  0.00  0.00    +0.000 A 
BRANCH  24  26
ATOM     26  C   UNL     1       6.271 -11.142  34.058  0.00  0.00    +0.120 C 
BRANCH  26   6
ATOM      3  O   UNL     1       2.783 -11.014  36.390  0.00  0.00    -0.377 OA
ATOM      6  N   UNL     1       4.864 -11.153  34.452  0.00  0.00    -0.294 NA
ATOM     28  C   UNL     1       4.490  -9.882  35.089  0.00  0.00    +0.113 C 
ATOM     29  C   UNL     1       4.584 -12.273  35.362  0.00  0.00    +0.113 C 
ATOM     32  C   UNL     1       3.021  -9.922  35.501  0.00  0.00    +0.175 C 
ATOM     33  C   UNL     1       3.113 -12.255  35.766  0.00  0.00    +0.175 C 
ENDBRANCH  26   6
ENDBRANCH  24  26
ENDBRANCH  21  23
TORSDOF 4
ENDMDL
