MODEL 1
REMARK VINA RESULT:      -6.7      0.000      0.000
REMARK  Name = 11886090
REMARK  8 active torsions:
REMARK  status: ('A' for Active; 'I' for Inactive)
REMARK    1  A    between atoms: O_3  and  C_16
REMARK    2  A    between atoms: O_3  and  C_21
REMARK    3  A    between atoms: N_6  and  C_15
REMARK    4  A    between atoms: N_10  and  C_32
REMARK    5  A    between atoms: N_11  and  C_25
REMARK    6  A    between atoms: C_19  and  C_20
REMARK    7  A    between atoms: C_24  and  C_25
REMARK    8  A    between atoms: C_35  and  C_38
REMARK                            x       y       z     vdW  Elec       q    Type
REMARK                         _______ _______ _______ _____ _____    ______ ____
ROOT
ATOM      1  O   UNL     1      -3.919 -10.705  15.486  0.00  0.00    -0.368 OA
ATOM      2  O   UNL     1      -4.968 -13.760  16.804  0.00  0.00    -0.368 OA
ATOM     13  C   UNL     1      -4.457 -12.444  17.041  0.00  0.00    +0.177 C 
ATOM     14  C   UNL     1      -3.616 -12.052  15.840  0.00  0.00    +0.192 C 
ATOM     15  C   UNL     1      -5.558 -11.395  17.054  0.00  0.00    +0.168 C 
ATOM     16  C   UNL     1      -4.011 -13.054  14.774  0.00  0.00    +0.235 C 
ATOM     17  C   UNL     1      -4.863 -10.187  16.437  0.00  0.00    +0.190 C 
ATOM     18  C   UNL     1      -4.344 -14.271  15.611  0.00  0.00    +0.207 C 
ENDROOT
BRANCH  15   6
ATOM      6  N   UNL     1      -6.167 -11.156  18.355  0.00  0.00    -0.217 N 
ATOM      7  N   UNL     1      -5.499 -11.424  19.485  0.00  0.00    -0.043 NA
ATOM      8  N   UNL     1      -7.523 -10.622  19.961  0.00  0.00    -0.108 NA
ATOM      9  N   UNL     1      -6.332 -11.095  20.464  0.00  0.00    -0.023 NA
ATOM     19  C   UNL     1      -7.399 -10.668  18.654  0.00  0.00    +0.182 A 
BRANCH  19  20
ATOM     20  C   UNL     1      -8.382 -10.276  17.676  0.00  0.00    +0.021 A 
ATOM     22  C   UNL     1      -8.387  -8.974  17.177  0.00  0.00    +0.012 A 
ATOM     23  C   UNL     1      -9.329 -11.198  17.230  0.00  0.00    +0.012 A 
ATOM     24  C   UNL     1     -10.285  -9.516  15.784  0.00  0.00    -0.033 A 
ATOM     26  C   UNL     1      -9.338  -8.593  16.230  0.00  0.00    +0.005 A 
ATOM     27  C   UNL     1     -10.280 -10.817  16.284  0.00  0.00    +0.005 A 
BRANCH  24  25
ATOM     25  C   UNL     1     -11.302  -9.109  14.772  0.00  0.00    +0.119 C 
BRANCH  25  11
ATOM      5  O   UNL     1     -14.288  -6.173  15.052  0.00  0.00    -0.377 OA
ATOM     11  N   UNL     1     -12.037  -7.911  15.171  0.00  0.00    -0.294 NA
ATOM     28  C   UNL     1     -13.317  -8.267  15.798  0.00  0.00    +0.113 C 
ATOM     29  C   UNL     1     -12.270  -7.032  14.016  0.00  0.00    +0.113 C 
ATOM     30  C   UNL     1     -14.071  -7.002  16.195  0.00  0.00    +0.175 C 
ATOM     31  C   UNL     1     -13.047  -5.795  14.456  0.00  0.00    +0.175 C 
ENDBRANCH  25  11
ENDBRANCH  24  25
ENDBRANCH  19  20
ENDBRANCH  15   6
BRANCH  16   3
ATOM      3  O   UNL     1      -5.182 -12.627  14.085  0.00  0.00    -0.442 OA
BRANCH   3  21
ATOM      4  O   UNL     1      -5.000 -13.091  11.853  0.00  0.00    -0.226 OA
ATOM     10  N   UNL     1      -4.930 -10.895  12.663  0.00  0.00    -0.251 N 
ATOM     21  C   UNL     1      -5.031 -12.270  12.761  0.00  0.00    +0.405 C 
ATOM     39  H   UNL     1      -4.979 -10.377  13.536  0.00  0.00    +0.158 HD
BRANCH  10  32
ATOM     32  C   UNL     1      -4.766 -10.116  11.494  0.00  0.00    +0.038 A 
ATOM     33  C   UNL     1      -5.874  -9.526  10.888  0.00  0.00    +0.042 A 
ATOM     34  C   UNL     1      -3.494  -9.940  10.948  0.00  0.00    +0.023 A 
ATOM     35  C   UNL     1      -5.712  -8.757   9.735  0.00  0.00    +0.054 A 
ATOM     36  C   UNL     1      -3.332  -9.171   9.795  0.00  0.00    +0.003 A 
ATOM     37  C   UNL     1      -4.441  -8.581   9.188  0.00  0.00    +0.019 A 
BRANCH  35  38
ATOM     12  N   UNL     1      -7.770  -7.663   8.607  0.00  0.00    -0.191 NA
ATOM     38  C   UNL     1      -6.847  -8.154   9.113  0.00  0.00    +0.099 C 
ENDBRANCH  35  38
ENDBRANCH  10  32
ENDBRANCH   3  21
ENDBRANCH  16   3
TORSDOF 8
ENDMDL
MODEL 2
REMARK VINA RESULT:      -6.7     19.346     23.562
REMARK  Name = 11886090
REMARK  8 active torsions:
REMARK  status: ('A' for Active; 'I' for Inactive)
REMARK    1  A    between atoms: O_3  and  C_16
REMARK    2  A    between atoms: O_3  and  C_21
REMARK    3  A    between atoms: N_6  and  C_15
REMARK    4  A    between atoms: N_10  and  C_32
REMARK    5  A    between atoms: N_11  and  C_25
REMARK    6  A    between atoms: C_19  and  C_20
REMARK    7  A    between atoms: C_24  and  C_25
REMARK    8  A    between atoms: C_35  and  C_38
REMARK                            x       y       z     vdW  Elec       q    Type
REMARK                         _______ _______ _______ _____ _____    ______ ____
ROOT
ATOM      1  O   UNL     1     -14.043   3.033  30.714  0.00  0.00    -0.368 OA
ATOM      2  O   UNL     1     -16.929   4.330  32.183  0.00  0.00    -0.368 OA
ATOM     13  C   UNL     1     -15.646   3.721  32.354  0.00  0.00    +0.177 C 
ATOM     14  C   UNL     1     -15.388   2.839  31.146  0.00  0.00    +0.192 C 
ATOM     15  C   UNL     1     -14.515   4.737  32.294  0.00  0.00    +0.168 C 
ATOM     16  C   UNL     1     -16.414   3.300  30.131  0.00  0.00    +0.235 C 
ATOM     17  C   UNL     1     -13.401   3.943  31.621  0.00  0.00    +0.190 C 
ATOM     18  C   UNL     1     -17.553   3.736  31.029  0.00  0.00    +0.207 C 
ENDROOT
BRANCH  15   6
ATOM      6  N   UNL     1     -14.157   5.339  33.571  0.00  0.00    -0.217 N 
ATOM      7  N   UNL     1     -14.203   4.624  34.702  0.00  0.00    -0.043 NA
ATOM      8  N   UNL     1     -13.537   6.706  35.135  0.00  0.00    -0.108 NA
ATOM      9  N   UNL     1     -13.822   5.464  35.656  0.00  0.00    -0.023 NA
ATOM     19  C   UNL     1     -13.751   6.606  33.843  0.00  0.00    +0.182 A 
BRANCH  19  20
ATOM     20  C   UNL     1     -13.591   7.642  32.855  0.00  0.00    +0.021 A 
ATOM     22  C   UNL     1     -12.313   8.070  32.494  0.00  0.00    +0.012 A 
ATOM     23  C   UNL     1     -14.713   8.219  32.262  0.00  0.00    +0.012 A 
ATOM     24  C   UNL     1     -13.281   9.650  30.944  0.00  0.00    -0.033 A 
ATOM     26  C   UNL     1     -12.158   9.074  31.538  0.00  0.00    +0.005 A 
ATOM     27  C   UNL     1     -14.558   9.223  31.307  0.00  0.00    +0.005 A 
BRANCH  24  25
ATOM     25  C   UNL     1     -13.115  10.724  29.922  0.00  0.00    +0.119 C 
BRANCH  25  11
ATOM      5  O   UNL     1     -11.572  10.510  26.025  0.00  0.00    -0.377 OA
ATOM     11  N   UNL     1     -12.674  10.200  28.631  0.00  0.00    -0.294 NA
ATOM     28  C   UNL     1     -11.241  10.454  28.428  0.00  0.00    +0.113 C 
ATOM     29  C   UNL     1     -13.450  10.793  27.533  0.00  0.00    +0.113 C 
ATOM     30  C   UNL     1     -10.805   9.911  27.070  0.00  0.00    +0.175 C 
ATOM     31  C   UNL     1     -12.963  10.241  26.197  0.00  0.00    +0.175 C 
ENDBRANCH  25  11
ENDBRANCH  24  25
ENDBRANCH  19  20
ENDBRANCH  15   6
BRANCH  16   3
ATOM      3  O   UNL     1     -15.938   4.427  29.403  0.00  0.00    -0.442 OA
BRANCH   3  21
ATOM      4  O   UNL     1     -17.113   5.572  27.809  0.00  0.00    -0.226 OA
ATOM     10  N   UNL     1     -16.048   3.541  27.332  0.00  0.00    -0.251 N 
ATOM     21  C   UNL     1     -16.436   4.602  28.129  0.00  0.00    +0.405 C 
ATOM     39  H   UNL     1     -15.482   2.826  27.780  0.00  0.00    +0.158 HD
BRANCH  10  32
ATOM     32  C   UNL     1     -16.342   3.327  25.965  0.00  0.00    +0.038 A 
ATOM     33  C   UNL     1     -15.614   3.996  24.982  0.00  0.00    +0.042 A 
ATOM     34  C   UNL     1     -17.361   2.445  25.603  0.00  0.00    +0.023 A 
ATOM     35  C   UNL     1     -15.905   3.783  23.634  0.00  0.00    +0.054 A 
ATOM     36  C   UNL     1     -17.650   2.233  24.255  0.00  0.00    +0.003 A 
ATOM     37  C   UNL     1     -16.923   2.903  23.271  0.00  0.00    +0.019 A 
BRANCH  35  38
ATOM     12  N   UNL     1     -14.555   5.026  21.806  0.00  0.00    -0.191 NA
ATOM     38  C   UNL     1     -15.160   4.470  22.626  0.00  0.00    +0.099 C 
ENDBRANCH  35  38
ENDBRANCH  10  32
ENDBRANCH   3  21
ENDBRANCH  16   3
TORSDOF 8
ENDMDL
MODEL 3
REMARK VINA RESULT:      -6.7     25.938     29.906
REMARK  Name = 11886090
REMARK  8 active torsions:
REMARK  status: ('A' for Active; 'I' for Inactive)
REMARK    1  A    between atoms: O_3  and  C_16
REMARK    2  A    between atoms: O_3  and  C_21
REMARK    3  A    between atoms: N_6  and  C_15
REMARK    4  A    between atoms: N_10  and  C_32
REMARK    5  A    between atoms: N_11  and  C_25
REMARK    6  A    between atoms: C_19  and  C_20
REMARK    7  A    between atoms: C_24  and  C_25
REMARK    8  A    between atoms: C_35  and  C_38
REMARK                            x       y       z     vdW  Elec       q    Type
REMARK                         _______ _______ _______ _____ _____    ______ ____
ROOT
ATOM      1  O   UNL     1      12.699  10.225   6.218  0.00  0.00    -0.368 OA
ATOM      2  O   UNL     1      12.919   6.765   6.608  0.00  0.00    -0.368 OA
ATOM     13  C   UNL     1      12.251   7.987   6.941  0.00  0.00    +0.177 C 
ATOM     14  C   UNL     1      13.276   9.104   6.883  0.00  0.00    +0.192 C 
ATOM     15  C   UNL     1      11.234   8.391   5.884  0.00  0.00    +0.168 C 
ATOM     16  C   UNL     1      14.439   8.495   6.127  0.00  0.00    +0.235 C 
ATOM     17  C   UNL     1      11.333   9.912   5.903  0.00  0.00    +0.190 C 
ATOM     18  C   UNL     1      14.330   7.038   6.527  0.00  0.00    +0.207 C 
ENDROOT
BRANCH  15   6
ATOM      6  N   UNL     1       9.892   7.859   6.083  0.00  0.00    -0.217 N 
ATOM      7  N   UNL     1       9.108   8.326   7.064  0.00  0.00    -0.043 NA
ATOM      8  N   UNL     1       8.046   6.733   5.923  0.00  0.00    -0.108 NA
ATOM      9  N   UNL     1       7.980   7.635   6.960  0.00  0.00    -0.023 NA
ATOM     19  C   UNL     1       9.239   6.889   5.393  0.00  0.00    +0.182 A 
BRANCH  19  20
ATOM     20  C   UNL     1       9.789   6.170   4.273  0.00  0.00    +0.021 A 
ATOM     22  C   UNL     1      10.366   4.915   4.465  0.00  0.00    +0.012 A 
ATOM     23  C   UNL     1       9.747   6.730   2.996  0.00  0.00    +0.012 A 
ATOM     24  C   UNL     1      10.857   4.779   2.103  0.00  0.00    -0.033 A 
ATOM     26  C   UNL     1      10.899   4.219   3.380  0.00  0.00    +0.005 A 
ATOM     27  C   UNL     1      10.281   6.035   1.912  0.00  0.00    +0.005 A 
BRANCH  24  25
ATOM     25  C   UNL     1      11.427   4.035   0.943  0.00  0.00    +0.119 C 
BRANCH  25  11
ATOM      5  O   UNL     1      15.378   3.959  -0.470  0.00  0.00    -0.377 OA
ATOM     11  N   UNL     1      12.806   4.425   0.656  0.00  0.00    -0.294 NA
ATOM     28  C   UNL     1      13.036   4.500  -0.794  0.00  0.00    +0.113 C 
ATOM     29  C   UNL     1      13.754   3.482   1.267  0.00  0.00    +0.113 C 
ATOM     30  C   UNL     1      14.483   4.896  -1.069  0.00  0.00    +0.175 C 
ATOM     31  C   UNL     1      15.184   3.903   0.944  0.00  0.00    +0.175 C 
ENDBRANCH  25  11
ENDBRANCH  24  25
ENDBRANCH  19  20
ENDBRANCH  15   6
BRANCH  16   3
ATOM      3  O   UNL     1      14.246   8.608   4.721  0.00  0.00    -0.442 OA
BRANCH   3  21
ATOM      4  O   UNL     1      14.986   7.074   3.195  0.00  0.00    -0.226 OA
ATOM     10  N   UNL     1      16.397   8.733   4.054  0.00  0.00    -0.251 N 
ATOM     21  C   UNL     1      15.209   8.042   3.911  0.00  0.00    +0.405 C 
ATOM     39  H   UNL     1      16.386   9.517   4.701  0.00  0.00    +0.158 HD
BRANCH  10  32
ATOM     32  C   UNL     1      17.631   8.485   3.410  0.00  0.00    +0.038 A 
ATOM     33  C   UNL     1      18.683   7.903   4.116  0.00  0.00    +0.042 A 
ATOM     34  C   UNL     1      17.795   8.824   2.066  0.00  0.00    +0.023 A 
ATOM     35  C   UNL     1      19.900   7.659   3.480  0.00  0.00    +0.054 A 
ATOM     36  C   UNL     1      19.012   8.580   1.430  0.00  0.00    +0.003 A 
ATOM     37  C   UNL     1      20.064   7.998   2.137  0.00  0.00    +0.019 A 
BRANCH  35  38
ATOM     12  N   UNL     1      21.854   6.579   4.792  0.00  0.00    -0.191 NA
ATOM     38  C   UNL     1      20.978   7.063   4.204  0.00  0.00    +0.099 C 
ENDBRANCH  35  38
ENDBRANCH  10  32
ENDBRANCH   3  21
ENDBRANCH  16   3
TORSDOF 8
ENDMDL
MODEL 4
REMARK VINA RESULT:      -6.6      2.780      6.868
REMARK  Name = 11886090
REMARK  8 active torsions:
REMARK  status: ('A' for Active; 'I' for Inactive)
REMARK    1  A    between atoms: O_3  and  C_16
REMARK    2  A    between atoms: O_3  and  C_21
REMARK    3  A    between atoms: N_6  and  C_15
REMARK    4  A    between atoms: N_10  and  C_32
REMARK    5  A    between atoms: N_11  and  C_25
REMARK    6  A    between atoms: C_19  and  C_20
REMARK    7  A    between atoms: C_24  and  C_25
REMARK    8  A    between atoms: C_35  and  C_38
REMARK                            x       y       z     vdW  Elec       q    Type
REMARK                         _______ _______ _______ _____ _____    ______ ____
ROOT
ATOM      1  O   UNL     1      -5.030 -10.839  11.616  0.00  0.00    -0.368 OA
ATOM      2  O   UNL     1      -5.806 -12.410  14.633  0.00  0.00    -0.368 OA
ATOM     13  C   UNL     1      -4.819 -12.091  13.646  0.00  0.00    +0.177 C 
ATOM     14  C   UNL     1      -5.524 -11.984  12.306  0.00  0.00    +0.192 C 
ATOM     15  C   UNL     1      -4.236 -10.701  13.846  0.00  0.00    +0.168 C 
ATOM     16  C   UNL     1      -6.990 -11.875  12.672  0.00  0.00    +0.235 C 
ATOM     17  C   UNL     1      -3.996 -10.240  12.413  0.00  0.00    +0.190 C 
ATOM     18  C   UNL     1      -7.044 -12.684  13.951  0.00  0.00    +0.207 C 
ENDROOT
BRANCH  15   6
ATOM      6  N   UNL     1      -3.069 -10.640  14.716  0.00  0.00    -0.217 N 
ATOM      7  N   UNL     1      -1.849 -10.412  14.211  0.00  0.00    -0.043 NA
ATOM      8  N   UNL     1      -1.734 -10.654  16.424  0.00  0.00    -0.108 NA
ATOM      9  N   UNL     1      -1.037 -10.421  15.260  0.00  0.00    -0.023 NA
ATOM     19  C   UNL     1      -2.990 -10.786  16.064  0.00  0.00    +0.182 A 
BRANCH  19  20
ATOM     20  C   UNL     1      -4.116 -11.043  16.925  0.00  0.00    +0.021 A 
ATOM     22  C   UNL     1      -5.127 -10.089  17.053  0.00  0.00    +0.012 A 
ATOM     23  C   UNL     1      -4.195 -12.242  17.631  0.00  0.00    +0.012 A 
ATOM     24  C   UNL     1      -6.296 -11.537  18.593  0.00  0.00    -0.033 A 
ATOM     26  C   UNL     1      -6.217 -10.337  17.887  0.00  0.00    +0.005 A 
ATOM     27  C   UNL     1      -5.285 -12.489  18.466  0.00  0.00    +0.005 A 
BRANCH  24  25
ATOM     25  C   UNL     1      -7.462 -11.802  19.486  0.00  0.00    +0.119 C 
BRANCH  25  11
ATOM      5  O   UNL     1     -10.296 -14.853  18.963  0.00  0.00    -0.377 OA
ATOM     11  N   UNL     1      -8.061 -13.113  19.244  0.00  0.00    -0.294 NA
ATOM     28  C   UNL     1      -8.912 -13.084  18.046  0.00  0.00    +0.113 C 
ATOM     29  C   UNL     1      -8.845 -13.552  20.407  0.00  0.00    +0.113 C 
ATOM     30  C   UNL     1      -9.537 -14.458  17.820  0.00  0.00    +0.175 C 
ATOM     31  C   UNL     1      -9.470 -14.915  20.126  0.00  0.00    +0.175 C 
ENDBRANCH  25  11
ENDBRANCH  24  25
ENDBRANCH  19  20
ENDBRANCH  15   6
BRANCH  16   3
ATOM      3  O   UNL     1      -7.344 -10.526  12.958  0.00  0.00    -0.442 OA
BRANCH   3  21
ATOM      4  O   UNL     1      -9.609 -10.785  13.129  0.00  0.00    -0.226 OA
ATOM     10  N   UNL     1      -8.393  -9.526  14.685  0.00  0.00    -0.251 N 
ATOM     21  C   UNL     1      -8.565 -10.316  13.564  0.00  0.00    +0.405 C 
ATOM     39  H   UNL     1      -7.441  -9.233  14.887  0.00  0.00    +0.158 HD
BRANCH  10  32
ATOM     32  C   UNL     1      -9.381  -9.074  15.590  0.00  0.00    +0.038 A 
ATOM     33  C   UNL     1      -9.532  -9.699  16.828  0.00  0.00    +0.042 A 
ATOM     34  C   UNL     1     -10.205  -8.003  15.244  0.00  0.00    +0.023 A 
ATOM     35  C   UNL     1     -10.507  -9.253  17.720  0.00  0.00    +0.054 A 
ATOM     36  C   UNL     1     -11.179  -7.557  16.137  0.00  0.00    +0.003 A 
ATOM     37  C   UNL     1     -11.331  -8.183  17.374  0.00  0.00    +0.019 A 
BRANCH  35  38
ATOM     12  N   UNL     1     -10.787 -10.415  20.018  0.00  0.00    -0.191 NA
ATOM     38  C   UNL     1     -10.662  -9.894  18.988  0.00  0.00    +0.099 C 
ENDBRANCH  35  38
ENDBRANCH  10  32
ENDBRANCH   3  21
ENDBRANCH  16   3
TORSDOF 8
ENDMDL
MODEL 5
REMARK VINA RESULT:      -6.5     25.410     29.991
REMARK  Name = 11886090
REMARK  8 active torsions:
REMARK  status: ('A' for Active; 'I' for Inactive)
REMARK    1  A    between atoms: O_3  and  C_16
REMARK    2  A    between atoms: O_3  and  C_21
REMARK    3  A    between atoms: N_6  and  C_15
REMARK    4  A    between atoms: N_10  and  C_32
REMARK    5  A    between atoms: N_11  and  C_25
REMARK    6  A    between atoms: C_19  and  C_20
REMARK    7  A    between atoms: C_24  and  C_25
REMARK    8  A    between atoms: C_35  and  C_38
REMARK                            x       y       z     vdW  Elec       q    Type
REMARK                         _______ _______ _______ _____ _____    ______ ____
ROOT
ATOM      1  O   UNL     1      15.792   3.945   0.819  0.00  0.00    -0.368 OA
ATOM      2  O   UNL     1      14.946   5.967  -1.896  0.00  0.00    -0.368 OA
ATOM     13  C   UNL     1      14.944   4.665  -1.301  0.00  0.00    +0.177 C 
ATOM     14  C   UNL     1      16.168   4.562  -0.410  0.00  0.00    +0.192 C 
ATOM     15  C   UNL     1      13.787   4.479  -0.331  0.00  0.00    +0.168 C 
ATOM     16  C   UNL     1      16.622   5.998  -0.245  0.00  0.00    +0.235 C 
ATOM     17  C   UNL     1      14.403   3.586   0.740  0.00  0.00    +0.190 C 
ATOM     18  C   UNL     1      16.194   6.604  -1.565  0.00  0.00    +0.207 C 
ENDROOT
BRANCH  15   6
ATOM      6  N   UNL     1      12.558   3.971  -0.924  0.00  0.00    -0.217 N 
ATOM      7  N   UNL     1      12.580   3.327  -2.099  0.00  0.00    -0.043 NA
ATOM      8  N   UNL     1      10.493   3.448  -1.326  0.00  0.00    -0.108 NA
ATOM      9  N   UNL     1      11.314   3.008  -2.339  0.00  0.00    -0.023 NA
ATOM     19  C   UNL     1      11.284   4.041  -0.461  0.00  0.00    +0.182 A 
BRANCH  19  20
ATOM     20  C   UNL     1      10.898   4.667   0.778  0.00  0.00    +0.021 A 
ATOM     22  C   UNL     1      10.448   5.987   0.781  0.00  0.00    +0.012 A 
ATOM     23  C   UNL     1      10.976   3.954   1.974  0.00  0.00    +0.012 A 
ATOM     24  C   UNL     1      10.152   5.881   3.176  0.00  0.00    -0.033 A 
ATOM     26  C   UNL     1      10.074   6.594   1.980  0.00  0.00    +0.005 A 
ATOM     27  C   UNL     1      10.603   4.561   3.173  0.00  0.00    +0.005 A 
BRANCH  24  25
ATOM     25  C   UNL     1       9.753   6.529   4.458  0.00  0.00    +0.119 C 
BRANCH  25  11
ATOM      5  O   UNL     1      11.053   5.826   8.386  0.00  0.00    -0.377 OA
ATOM     11  N   UNL     1      10.408   5.924   5.616  0.00  0.00    -0.294 NA
ATOM     28  C   UNL     1       9.418   5.515   6.622  0.00  0.00    +0.113 C 
ATOM     29  C   UNL     1      11.377   6.854   6.213  0.00  0.00    +0.113 C 
ATOM     30  C   UNL     1      10.125   4.898   7.825  0.00  0.00    +0.175 C 
ATOM     31  C   UNL     1      12.039   6.204   7.425  0.00  0.00    +0.175 C 
ENDBRANCH  25  11
ENDBRANCH  24  25
ENDBRANCH  19  20
ENDBRANCH  15   6
BRANCH  16   3
ATOM      3  O   UNL     1      15.913   6.636   0.813  0.00  0.00    -0.442 OA
BRANCH   3  21
ATOM      4  O   UNL     1      17.259   8.476   0.990  0.00  0.00    -0.226 OA
ATOM     10  N   UNL     1      16.393   7.398   2.880  0.00  0.00    -0.251 N 
ATOM     21  C   UNL     1      16.594   7.599   1.528  0.00  0.00    +0.405 C 
ATOM     39  H   UNL     1      15.803   6.610   3.135  0.00  0.00    +0.158 HD
BRANCH  10  32
ATOM     32  C   UNL     1      16.908   8.155   3.958  0.00  0.00    +0.038 A 
ATOM     33  C   UNL     1      16.061   8.978   4.700  0.00  0.00    +0.042 A 
ATOM     34  C   UNL     1      18.263   8.078   4.278  0.00  0.00    +0.023 A 
ATOM     35  C   UNL     1      16.570   9.724   5.764  0.00  0.00    +0.054 A 
ATOM     36  C   UNL     1      18.771   8.824   5.342  0.00  0.00    +0.003 A 
ATOM     37  C   UNL     1      17.925   9.648   6.083  0.00  0.00    +0.019 A 
BRANCH  35  38
ATOM     12  N   UNL     1      14.998  11.255   7.140  0.00  0.00    -0.191 NA
ATOM     38  C   UNL     1      15.702  10.568   6.523  0.00  0.00    +0.099 C 
ENDBRANCH  35  38
ENDBRANCH  10  32
ENDBRANCH   3  21
ENDBRANCH  16   3
TORSDOF 8
ENDMDL
MODEL 6
REMARK VINA RESULT:      -6.4     29.730     32.087
REMARK  Name = 11886090
REMARK  8 active torsions:
REMARK  status: ('A' for Active; 'I' for Inactive)
REMARK    1  A    between atoms: O_3  and  C_16
REMARK    2  A    between atoms: O_3  and  C_21
REMARK    3  A    between atoms: N_6  and  C_15
REMARK    4  A    between atoms: N_10  and  C_32
REMARK    5  A    between atoms: N_11  and  C_25
REMARK    6  A    between atoms: C_19  and  C_20
REMARK    7  A    between atoms: C_24  and  C_25
REMARK    8  A    between atoms: C_35  and  C_38
REMARK                            x       y       z     vdW  Elec       q    Type
REMARK                         _______ _______ _______ _____ _____    ______ ____
ROOT
ATOM      1  O   UNL     1      10.785   9.186  22.579  0.00  0.00    -0.368 OA
ATOM      2  O   UNL     1      12.554  11.840  21.166  0.00  0.00    -0.368 OA
ATOM     13  C   UNL     1      11.408  11.395  21.898  0.00  0.00    +0.177 C 
ATOM     14  C   UNL     1      11.084   9.986  21.438  0.00  0.00    +0.192 C 
ATOM     15  C   UNL     1      11.706  11.219  23.380  0.00  0.00    +0.168 C 
ATOM     16  C   UNL     1      12.335   9.543  20.707  0.00  0.00    +0.235 C 
ATOM     17  C   UNL     1      10.835  10.023  23.745  0.00  0.00    +0.190 C 
ATOM     18  C   UNL     1      12.844  10.857  20.154  0.00  0.00    +0.207 C 
ENDROOT
BRANCH  15   6
ATOM      6  N   UNL     1      11.496  12.406  24.197  0.00  0.00    -0.217 N 
ATOM      7  N   UNL     1      10.266  12.753  24.598  0.00  0.00    -0.043 NA
ATOM      8  N   UNL     1      11.764  14.216  25.360  0.00  0.00    -0.108 NA
ATOM      9  N   UNL     1      10.436  13.860  25.310  0.00  0.00    -0.023 NA
ATOM     19  C   UNL     1      12.403  13.302  24.665  0.00  0.00    +0.182 A 
BRANCH  19  20
ATOM     20  C   UNL     1      13.821  13.233  24.421  0.00  0.00    +0.021 A 
ATOM     22  C   UNL     1      14.375  13.909  23.333  0.00  0.00    +0.012 A 
ATOM     23  C   UNL     1      14.639  12.490  25.270  0.00  0.00    +0.012 A 
ATOM     24  C   UNL     1      16.566  13.099  23.947  0.00  0.00    -0.033 A 
ATOM     26  C   UNL     1      15.748  13.842  23.096  0.00  0.00    +0.005 A 
ATOM     27  C   UNL     1      16.012  12.423  25.033  0.00  0.00    +0.005 A 
BRANCH  24  25
ATOM     25  C   UNL     1      18.035  13.027  23.694  0.00  0.00    +0.119 C 
BRANCH  25  11
ATOM      5  O   UNL     1      20.259  10.154  21.595  0.00  0.00    -0.377 OA
ATOM     11  N   UNL     1      18.427  11.777  23.048  0.00  0.00    -0.294 NA
ATOM     28  C   UNL     1      19.628  11.215  23.683  0.00  0.00    +0.113 C 
ATOM     29  C   UNL     1      18.669  11.984  21.612  0.00  0.00    +0.113 C 
ATOM     30  C   UNL     1      20.026   9.918  22.984  0.00  0.00    +0.175 C 
ATOM     31  C   UNL     1      19.088  10.669  20.963  0.00  0.00    +0.175 C 
ENDBRANCH  25  11
ENDBRANCH  24  25
ENDBRANCH  19  20
ENDBRANCH  15   6
BRANCH  16   3
ATOM      3  O   UNL     1      13.295   9.017  21.618  0.00  0.00    -0.442 OA
BRANCH   3  21
ATOM      4  O   UNL     1      13.462   6.795  21.105  0.00  0.00    -0.226 OA
ATOM     10  N   UNL     1      15.307   8.230  20.971  0.00  0.00    -0.251 N 
ATOM     21  C   UNL     1      13.989   7.896  21.214  0.00  0.00    +0.405 C 
ATOM     39  H   UNL     1      15.558   9.205  21.118  0.00  0.00    +0.158 HD
BRANCH  10  32
ATOM     32  C   UNL     1      16.356   7.384  20.543  0.00  0.00    +0.038 A 
ATOM     33  C   UNL     1      17.532   7.297  21.288  0.00  0.00    +0.042 A 
ATOM     34  C   UNL     1      16.212   6.636  19.374  0.00  0.00    +0.023 A 
ATOM     35  C   UNL     1      18.565   6.462  20.864  0.00  0.00    +0.054 A 
ATOM     36  C   UNL     1      17.246   5.801  18.951  0.00  0.00    +0.003 A 
ATOM     37  C   UNL     1      18.423   5.715  19.695  0.00  0.00    +0.019 A 
BRANCH  35  38
ATOM     12  N   UNL     1      20.749   6.303  22.246  0.00  0.00    -0.191 NA
ATOM     38  C   UNL     1      19.770   6.374  21.626  0.00  0.00    +0.099 C 
ENDBRANCH  35  38
ENDBRANCH  10  32
ENDBRANCH   3  21
ENDBRANCH  16   3
TORSDOF 8
ENDMDL
MODEL 7
REMARK VINA RESULT:      -6.3     18.602     22.281
REMARK  Name = 11886090
REMARK  8 active torsions:
REMARK  status: ('A' for Active; 'I' for Inactive)
REMARK    1  A    between atoms: O_3  and  C_16
REMARK    2  A    between atoms: O_3  and  C_21
REMARK    3  A    between atoms: N_6  and  C_15
REMARK    4  A    between atoms: N_10  and  C_32
REMARK    5  A    between atoms: N_11  and  C_25
REMARK    6  A    between atoms: C_19  and  C_20
REMARK    7  A    between atoms: C_24  and  C_25
REMARK    8  A    between atoms: C_35  and  C_38
REMARK                            x       y       z     vdW  Elec       q    Type
REMARK                         _______ _______ _______ _____ _____    ______ ____
ROOT
ATOM      1  O   UNL     1     -18.179   3.707  27.722  0.00  0.00    -0.368 OA
ATOM      2  O   UNL     1     -16.637   0.579  27.631  0.00  0.00    -0.368 OA
ATOM     13  C   UNL     1     -17.668   1.442  27.140  0.00  0.00    +0.177 C 
ATOM     14  C   UNL     1     -18.047   2.394  28.260  0.00  0.00    +0.192 C 
ATOM     15  C   UNL     1     -17.166   2.371  26.046  0.00  0.00    +0.168 C 
ATOM     16  C   UNL     1     -16.907   2.265  29.250  0.00  0.00    +0.235 C 
ATOM     17  C   UNL     1     -17.971   3.640  26.303  0.00  0.00    +0.190 C 
ATOM     18  C   UNL     1     -16.486   0.825  29.042  0.00  0.00    +0.207 C 
ENDROOT
BRANCH  15   6
ATOM      6  N   UNL     1     -17.266   1.842  24.692  0.00  0.00    -0.217 N 
ATOM      7  N   UNL     1     -17.709   0.597  24.474  0.00  0.00    -0.043 NA
ATOM      8  N   UNL     1     -17.207   1.585  22.540  0.00  0.00    -0.108 NA
ATOM      9  N   UNL     1     -17.672   0.445  23.156  0.00  0.00    -0.023 NA
ATOM     19  C   UNL     1     -16.962   2.437  23.510  0.00  0.00    +0.182 A 
BRANCH  19  20
ATOM     20  C   UNL     1     -16.457   3.779  23.376  0.00  0.00    +0.021 A 
ATOM     22  C   UNL     1     -17.321   4.817  23.028  0.00  0.00    +0.012 A 
ATOM     23  C   UNL     1     -15.105   4.041  23.594  0.00  0.00    +0.012 A 
ATOM     24  C   UNL     1     -15.480   6.379  23.116  0.00  0.00    -0.033 A 
ATOM     26  C   UNL     1     -16.833   6.118  22.898  0.00  0.00    +0.005 A 
ATOM     27  C   UNL     1     -14.617   5.341  23.463  0.00  0.00    +0.005 A 
BRANCH  24  25
ATOM     25  C   UNL     1     -14.958   7.769  22.977  0.00  0.00    +0.119 C 
BRANCH  25  11
ATOM      5  O   UNL     1     -12.864   9.020  19.562  0.00  0.00    -0.377 OA
ATOM     11  N   UNL     1     -13.936   7.878  21.939  0.00  0.00    -0.294 NA
ATOM     28  C   UNL     1     -13.339   9.221  21.932  0.00  0.00    +0.113 C 
ATOM     29  C   UNL     1     -14.499   7.572  20.616  0.00  0.00    +0.113 C 
ATOM     30  C   UNL     1     -12.285   9.316  20.833  0.00  0.00    +0.175 C 
ATOM     31  C   UNL     1     -13.417   7.704  19.549  0.00  0.00    +0.175 C 
ENDBRANCH  25  11
ENDBRANCH  24  25
ENDBRANCH  19  20
ENDBRANCH  15   6
BRANCH  16   3
ATOM      3  O   UNL     1     -15.827   3.122  28.895  0.00  0.00    -0.442 OA
BRANCH   3  21
ATOM      4  O   UNL     1     -13.760   3.125  29.874  0.00  0.00    -0.226 OA
ATOM     10  N   UNL     1     -15.594   4.186  30.870  0.00  0.00    -0.251 N 
ATOM     21  C   UNL     1     -14.940   3.455  29.897  0.00  0.00    +0.405 C 
ATOM     39  H   UNL     1     -16.583   4.362  30.711  0.00  0.00    +0.158 HD
BRANCH  10  32
ATOM     32  C   UNL     1     -15.059   4.722  32.064  0.00  0.00    +0.038 A 
ATOM     33  C   UNL     1     -14.586   6.034  32.089  0.00  0.00    +0.042 A 
ATOM     34  C   UNL     1     -15.004   3.938  33.216  0.00  0.00    +0.023 A 
ATOM     35  C   UNL     1     -14.057   6.562  33.267  0.00  0.00    +0.054 A 
ATOM     36  C   UNL     1     -14.476   4.467  34.394  0.00  0.00    +0.003 A 
ATOM     37  C   UNL     1     -14.002   5.778  34.419  0.00  0.00    +0.019 A 
BRANCH  35  38
ATOM     12  N   UNL     1     -13.177   8.997  33.314  0.00  0.00    -0.191 NA
ATOM     38  C   UNL     1     -13.572   7.905  33.292  0.00  0.00    +0.099 C 
ENDBRANCH  35  38
ENDBRANCH  10  32
ENDBRANCH   3  21
ENDBRANCH  16   3
TORSDOF 8
ENDMDL
MODEL 8
REMARK VINA RESULT:      -6.2      4.014     10.864
REMARK  Name = 11886090
REMARK  8 active torsions:
REMARK  status: ('A' for Active; 'I' for Inactive)
REMARK    1  A    between atoms: O_3  and  C_16
REMARK    2  A    between atoms: O_3  and  C_21
REMARK    3  A    between atoms: N_6  and  C_15
REMARK    4  A    between atoms: N_10  and  C_32
REMARK    5  A    between atoms: N_11  and  C_25
REMARK    6  A    between atoms: C_19  and  C_20
REMARK    7  A    between atoms: C_24  and  C_25
REMARK    8  A    between atoms: C_35  and  C_38
REMARK                            x       y       z     vdW  Elec       q    Type
REMARK                         _______ _______ _______ _____ _____    ______ ____
ROOT
ATOM      1  O   UNL     1     -14.416  -4.850  13.820  0.00  0.00    -0.368 OA
ATOM      2  O   UNL     1     -13.906  -6.849  11.007  0.00  0.00    -0.368 OA
ATOM     13  C   UNL     1     -14.645  -5.795  11.632  0.00  0.00    +0.177 C 
ATOM     14  C   UNL     1     -14.667  -6.068  13.125  0.00  0.00    +0.192 C 
ATOM     15  C   UNL     1     -13.930  -4.456  11.533  0.00  0.00    +0.168 C 
ATOM     16  C   UNL     1     -13.581  -7.105  13.323  0.00  0.00    +0.235 C 
ATOM     17  C   UNL     1     -14.299  -3.792  12.855  0.00  0.00    +0.190 C 
ATOM     18  C   UNL     1     -13.628  -7.849  12.005  0.00  0.00    +0.207 C 
ENDROOT
BRANCH  15   6
ATOM      6  N   UNL     1     -14.243  -3.675  10.344  0.00  0.00    -0.217 N 
ATOM      7  N   UNL     1     -15.363  -2.944  10.280  0.00  0.00    -0.043 NA
ATOM      8  N   UNL     1     -14.203  -2.740   8.388  0.00  0.00    -0.108 NA
ATOM      9  N   UNL     1     -15.333  -2.373   9.082  0.00  0.00    -0.023 NA
ATOM     19  C   UNL     1     -13.542  -3.546   9.188  0.00  0.00    +0.182 A 
BRANCH  19  20
ATOM     20  C   UNL     1     -12.287  -4.198   8.916  0.00  0.00    +0.021 A 
ATOM     22  C   UNL     1     -12.272  -5.482   8.370  0.00  0.00    +0.012 A 
ATOM     23  C   UNL     1     -11.087  -3.547   9.199  0.00  0.00    +0.012 A 
ATOM     24  C   UNL     1      -9.856  -5.462   8.391  0.00  0.00    -0.033 A 
ATOM     26  C   UNL     1     -11.056  -6.114   8.107  0.00  0.00    +0.005 A 
ATOM     27  C   UNL     1      -9.872  -4.179   8.937  0.00  0.00    +0.005 A 
BRANCH  24  25
ATOM     25  C   UNL     1      -8.556  -6.137   8.110  0.00  0.00    +0.119 C 
BRANCH  25  11
ATOM      5  O   UNL     1      -7.609 -10.219   7.878  0.00  0.00    -0.377 OA
ATOM     11  N   UNL     1      -8.689  -7.590   8.033  0.00  0.00    -0.294 NA
ATOM     28  C   UNL     1      -8.063  -8.234   9.196  0.00  0.00    +0.113 C 
ATOM     29  C   UNL     1      -8.092  -8.105   6.792  0.00  0.00    +0.113 C 
ATOM     30  C   UNL     1      -8.203  -9.750   9.089  0.00  0.00    +0.175 C 
ATOM     31  C   UNL     1      -8.233  -9.623   6.741  0.00  0.00    +0.175 C 
ENDBRANCH  25  11
ENDBRANCH  24  25
ENDBRANCH  19  20
ENDBRANCH  15   6
BRANCH  16   3
ATOM      3  O   UNL     1     -12.307  -6.485  13.463  0.00  0.00    -0.442 OA
BRANCH   3  21
ATOM      4  O   UNL     1     -11.450  -5.711  15.437  0.00  0.00    -0.226 OA
ATOM     10  N   UNL     1     -11.332  -7.974  14.848  0.00  0.00    -0.251 N 
ATOM     21  C   UNL     1     -11.664  -6.645  14.673  0.00  0.00    +0.405 C 
ATOM     39  H   UNL     1     -11.597  -8.606  14.096  0.00  0.00    +0.158 HD
BRANCH  10  32
ATOM     32  C   UNL     1     -10.666  -8.568  15.945  0.00  0.00    +0.038 A 
ATOM     33  C   UNL     1      -9.290  -8.788  15.890  0.00  0.00    +0.042 A 
ATOM     34  C   UNL     1     -11.388  -8.934  17.081  0.00  0.00    +0.023 A 
ATOM     35  C   UNL     1      -8.634  -9.374  16.973  0.00  0.00    +0.054 A 
ATOM     36  C   UNL     1     -10.731  -9.519  18.164  0.00  0.00    +0.003 A 
ATOM     37  C   UNL     1      -9.355  -9.741  18.109  0.00  0.00    +0.019 A 
BRANCH  35  38
ATOM     12  N   UNL     1      -6.079  -9.786  16.872  0.00  0.00    -0.191 NA
ATOM     38  C   UNL     1      -7.225  -9.601  16.917  0.00  0.00    +0.099 C 
ENDBRANCH  35  38
ENDBRANCH  10  32
ENDBRANCH   3  21
ENDBRANCH  16   3
TORSDOF 8
ENDMDL
MODEL 9
REMARK VINA RESULT:      -6.0     26.016     29.981
REMARK  Name = 11886090
REMARK  8 active torsions:
REMARK  status: ('A' for Active; 'I' for Inactive)
REMARK    1  A    between atoms: O_3  and  C_16
REMARK    2  A    between atoms: O_3  and  C_21
REMARK    3  A    between atoms: N_6  and  C_15
REMARK    4  A    between atoms: N_10  and  C_32
REMARK    5  A    between atoms: N_11  and  C_25
REMARK    6  A    between atoms: C_19  and  C_20
REMARK    7  A    between atoms: C_24  and  C_25
REMARK    8  A    between atoms: C_35  and  C_38
REMARK                            x       y       z     vdW  Elec       q    Type
REMARK                         _______ _______ _______ _____ _____    ______ ____
ROOT
ATOM      1  O   UNL     1      15.368   4.589   1.535  0.00  0.00    -0.368 OA
ATOM      2  O   UNL     1      13.841   7.378   0.099  0.00  0.00    -0.368 OA
ATOM     13  C   UNL     1      14.066   5.965   0.071  0.00  0.00    +0.177 C 
ATOM     14  C   UNL     1      15.444   5.704   0.651  0.00  0.00    +0.192 C 
ATOM     15  C   UNL     1      13.140   5.217   1.018  0.00  0.00    +0.168 C 
ATOM     16  C   UNL     1      15.797   7.000   1.352  0.00  0.00    +0.235 C 
ATOM     17  C   UNL     1      14.026   4.075   1.503  0.00  0.00    +0.190 C 
ATOM     18  C   UNL     1      15.070   8.016   0.495  0.00  0.00    +0.207 C 
ENDROOT
BRANCH  15   6
ATOM      6  N   UNL     1      11.868   4.806   0.441  0.00  0.00    -0.217 N 
ATOM      7  N   UNL     1      11.797   4.369  -0.823  0.00  0.00    -0.043 NA
ATOM      8  N   UNL     1       9.775   4.340   0.114  0.00  0.00    -0.108 NA
ATOM      9  N   UNL     1      10.516   4.084  -1.018  0.00  0.00    -0.023 NA
ATOM     19  C   UNL     1      10.632   4.786   1.005  0.00  0.00    +0.182 A 
BRANCH  19  20
ATOM     20  C   UNL     1      10.344   5.191   2.357  0.00  0.00    +0.021 A 
ATOM     22  C   UNL     1      10.614   4.325   3.417  0.00  0.00    +0.012 A 
ATOM     23  C   UNL     1       9.794   6.448   2.606  0.00  0.00    +0.012 A 
ATOM     24  C   UNL     1       9.786   5.975   4.975  0.00  0.00    -0.033 A 
ATOM     26  C   UNL     1      10.335   4.718   4.726  0.00  0.00    +0.005 A 
ATOM     27  C   UNL     1       9.515   6.840   3.915  0.00  0.00    +0.005 A 
BRANCH  24  25
ATOM     25  C   UNL     1       9.487   6.395   6.374  0.00  0.00    +0.119 C 
BRANCH  25  11
ATOM      5  O   UNL     1      10.842   9.870   8.299  0.00  0.00    -0.377 OA
ATOM     11  N   UNL     1       9.857   7.786   6.630  0.00  0.00    -0.294 NA
ATOM     28  C   UNL     1      11.284   7.893   6.964  0.00  0.00    +0.113 C 
ATOM     29  C   UNL     1       9.043   8.353   7.714  0.00  0.00    +0.113 C 
ATOM     30  C   UNL     1      11.644   9.350   7.238  0.00  0.00    +0.175 C 
ATOM     31  C   UNL     1       9.455   9.799   7.969  0.00  0.00    +0.175 C 
ENDBRANCH  25  11
ENDBRANCH  24  25
ENDBRANCH  19  20
ENDBRANCH  15   6
BRANCH  16   3
ATOM      3  O   UNL     1      15.255   7.029   2.668  0.00  0.00    -0.442 OA
BRANCH   3  21
ATOM      4  O   UNL     1      15.258   8.737   4.189  0.00  0.00    -0.226 OA
ATOM     10  N   UNL     1      17.210   7.558   3.660  0.00  0.00    -0.251 N 
ATOM     21  C   UNL     1      15.866   7.868   3.577  0.00  0.00    +0.405 C 
ATOM     39  H   UNL     1      17.532   6.795   3.069  0.00  0.00    +0.158 HD
BRANCH  10  32
ATOM     32  C   UNL     1      18.196   8.170   4.467  0.00  0.00    +0.038 A 
ATOM     33  C   UNL     1      17.855   9.239   5.295  0.00  0.00    +0.042 A 
ATOM     34  C   UNL     1      19.511   7.705   4.433  0.00  0.00    +0.023 A 
ATOM     35  C   UNL     1      18.829   9.843   6.091  0.00  0.00    +0.054 A 
ATOM     36  C   UNL     1      20.484   8.309   5.229  0.00  0.00    +0.003 A 
ATOM     37  C   UNL     1      20.143   9.379   6.057  0.00  0.00    +0.019 A 
BRANCH  35  38
ATOM     12  N   UNL     1      18.196  11.830   7.626  0.00  0.00    -0.191 NA
ATOM     38  C   UNL     1      18.480  10.939   6.938  0.00  0.00    +0.099 C 
ENDBRANCH  35  38
ENDBRANCH  10  32
ENDBRANCH   3  21
ENDBRANCH  16   3
TORSDOF 8
ENDMDL
MODEL 10
REMARK VINA RESULT:      -6.0      1.833      2.132
REMARK  Name = 11886090
REMARK  8 active torsions:
REMARK  status: ('A' for Active; 'I' for Inactive)
REMARK    1  A    between atoms: O_3  and  C_16
REMARK    2  A    between atoms: O_3  and  C_21
REMARK    3  A    between atoms: N_6  and  C_15
REMARK    4  A    between atoms: N_10  and  C_32
REMARK    5  A    between atoms: N_11  and  C_25
REMARK    6  A    between atoms: C_19  and  C_20
REMARK    7  A    between atoms: C_24  and  C_25
REMARK    8  A    between atoms: C_35  and  C_38
REMARK                            x       y       z     vdW  Elec       q    Type
REMARK                         _______ _______ _______ _____ _____    ______ ____
ROOT
ATOM      1  O   UNL     1      -3.051 -11.429  15.977  0.00  0.00    -0.368 OA
ATOM      2  O   UNL     1      -6.299 -12.663  15.661  0.00  0.00    -0.368 OA
ATOM     13  C   UNL     1      -5.128 -12.515  16.469  0.00  0.00    +0.177 C 
ATOM     14  C   UNL     1      -3.929 -12.464  15.540  0.00  0.00    +0.192 C 
ATOM     15  C   UNL     1      -5.082 -11.168  17.173  0.00  0.00    +0.168 C 
ATOM     16  C   UNL     1      -4.533 -12.200  14.177  0.00  0.00    +0.235 C 
ATOM     17  C   UNL     1      -3.591 -10.855  17.179  0.00  0.00    +0.190 C 
ATOM     18  C   UNL     1      -5.877 -12.888  14.303  0.00  0.00    +0.207 C 
ENDROOT
BRANCH  15   6
ATOM      6  N   UNL     1      -5.723 -11.132  18.481  0.00  0.00    -0.217 N 
ATOM      7  N   UNL     1      -5.036 -11.437  19.589  0.00  0.00    -0.043 NA
ATOM      8  N   UNL     1      -7.142 -10.920  20.107  0.00  0.00    -0.108 NA
ATOM      9  N   UNL     1      -5.908 -11.305  20.581  0.00  0.00    -0.023 NA
ATOM     19  C   UNL     1      -7.005 -10.818  18.804  0.00  0.00    +0.182 A 
BRANCH  19  20
ATOM     20  C   UNL     1      -8.019 -10.441  17.853  0.00  0.00    +0.021 A 
ATOM     22  C   UNL     1      -8.974 -11.373  17.447  0.00  0.00    +0.012 A 
ATOM     23  C   UNL     1      -8.045  -9.146  17.338  0.00  0.00    +0.012 A 
ATOM     24  C   UNL     1      -9.983  -9.713  16.011  0.00  0.00    -0.033 A 
ATOM     26  C   UNL     1      -9.957 -11.009  16.527  0.00  0.00    +0.005 A 
ATOM     27  C   UNL     1      -9.027  -8.782  16.417  0.00  0.00    +0.005 A 
BRANCH  24  25
ATOM     25  C   UNL     1     -11.033  -9.323  15.027  0.00  0.00    +0.119 C 
BRANCH  25  11
ATOM      5  O   UNL     1     -14.012  -6.374  15.230  0.00  0.00    -0.377 OA
ATOM     11  N   UNL     1     -11.865  -8.222  15.507  0.00  0.00    -0.294 NA
ATOM     28  C   UNL     1     -13.265  -8.645  15.641  0.00  0.00    +0.113 C 
ATOM     29  C   UNL     1     -11.774  -7.066  14.603  0.00  0.00    +0.113 C 
ATOM     30  C   UNL     1     -14.116  -7.477  16.131  0.00  0.00    +0.175 C 
ATOM     31  C   UNL     1     -12.658  -5.935  15.118  0.00  0.00    +0.175 C 
ENDBRANCH  25  11
ENDBRANCH  24  25
ENDBRANCH  19  20
ENDBRANCH  15   6
BRANCH  16   3
ATOM      3  O   UNL     1      -4.740 -10.806  13.975  0.00  0.00    -0.442 OA
BRANCH   3  21
ATOM      4  O   UNL     1      -6.321  -9.806  12.659  0.00  0.00    -0.226 OA
ATOM     10  N   UNL     1      -4.432 -10.841  11.741  0.00  0.00    -0.251 N 
ATOM     21  C   UNL     1      -5.268 -10.423  12.759  0.00  0.00    +0.405 C 
ATOM     39  H   UNL     1      -3.594 -11.343  12.025  0.00  0.00    +0.158 HD
BRANCH  10  32
ATOM     32  C   UNL     1      -4.596 -10.657  10.349  0.00  0.00    +0.038 A 
ATOM     33  C   UNL     1      -4.761 -11.762   9.514  0.00  0.00    +0.042 A 
ATOM     34  C   UNL     1      -4.594  -9.370   9.812  0.00  0.00    +0.023 A 
ATOM     35  C   UNL     1      -4.923 -11.579   8.140  0.00  0.00    +0.054 A 
ATOM     36  C   UNL     1      -4.757  -9.188   8.439  0.00  0.00    +0.003 A 
ATOM     37  C   UNL     1      -4.920 -10.292   7.603  0.00  0.00    +0.019 A 
BRANCH  35  38
ATOM     12  N   UNL     1      -5.228 -13.630   6.589  0.00  0.00    -0.191 NA
ATOM     38  C   UNL     1      -5.091 -12.711   7.284  0.00  0.00    +0.099 C 
ENDBRANCH  35  38
ENDBRANCH  10  32
ENDBRANCH   3  21
ENDBRANCH  16   3
TORSDOF 8
ENDMDL
