REMARK  Name = 75536508
REMARK  7 active torsions:
REMARK  status: ('A' for Active; 'I' for Inactive)
REMARK    1  A    between atoms: O_2  and  C_8
REMARK    2  A    between atoms: N_4  and  C_7
REMARK    3  A    between atoms: N_4  and  C_12
REMARK    4  A    between atoms: N_5  and  C_11
REMARK    5  A    between atoms: C_9  and  C_11
REMARK    6  A    between atoms: C_12  and  C_13
REMARK    7  A    between atoms: C_14  and  C_17
REMARK                            x       y       z     vdW  Elec       q    Type
REMARK                         _______ _______ _______ _____ _____    ______ ____
ROOT
ATOM      1  O   UNL     1       2.011   1.283   0.358  0.00  0.00    -0.371 OA
ATOM      7  C   UNL     1       0.058  -0.068   0.390  0.00  0.00    +0.111 C 
ATOM      8  C   UNL     1       1.086  -0.706  -0.527  0.00  0.00    +0.164 C 
ATOM      9  C   UNL     1       2.369  -0.055  -0.026  0.00  0.00    +0.165 C 
ATOM     10  C   UNL     1       0.580   1.356   0.482  0.00  0.00    +0.181 C 
ENDROOT
BRANCH   8   2
ATOM      2  O   UNL     1       1.127  -2.114  -0.406  0.00  0.00    -0.388 OA
ATOM     21  H   UNL     1       1.296  -2.336   0.526  0.00  0.00    +0.210 HD
ENDBRANCH   8   2
BRANCH   7   4
ATOM      4  N   UNL     1      -1.302  -0.141  -0.119  0.00  0.00    -0.305 NA
ATOM     20  H   UNL     1      -1.479  -1.085  -0.463  0.00  0.00    +0.123 HD
BRANCH   4  12
ATOM     12  C   UNL     1      -2.271   0.171   0.925  0.00  0.00    +0.118 C 
BRANCH  12  13
ATOM      6  N   UNL     1      -5.787  -1.069   0.271  0.00  0.00    -0.263 NA
ATOM     13  C   UNL     1      -3.685   0.117   0.411  0.00  0.00    -0.015 A 
ATOM     15  C   UNL     1      -4.204   1.145  -0.368  0.00  0.00    +0.008 A 
ATOM     16  C   UNL     1      -4.510  -0.958   0.700  0.00  0.00    +0.115 A 
ATOM     18  C   UNL     1      -5.513   1.067  -0.829  0.00  0.00    +0.020 A 
ATOM     19  C   UNL     1      -6.257  -0.050  -0.485  0.00  0.00    +0.111 A 
ENDBRANCH  12  13
ENDBRANCH   4  12
ENDBRANCH   7   4
BRANCH   9  11
ATOM     11  C   UNL     1       3.468  -0.012  -1.073  0.00  0.00    +0.138 C 
BRANCH  11   5
ATOM      3  O   UNL     1       5.692  -1.297   0.280  0.00  0.00    -0.276 OA
ATOM      5  N   UNL     1       4.653   0.611  -0.559  0.00  0.00    -0.313 N 
ATOM     14  C   UNL     1       5.673  -0.086   0.079  0.00  0.00    +0.210 C 
ATOM     17  C   UNL     1       6.811   0.807   0.496  0.00  0.00    +0.109 C 
ATOM     22  H   UNL     1       4.742   1.617  -0.669  0.00  0.00    +0.149 HD
ENDBRANCH  11   5
ENDBRANCH   9  11
TORSDOF 6
