MODEL 1
REMARK VINA RESULT:      -6.7      0.000      0.000
REMARK  Name = 40778215
REMARK  12 active torsions:
REMARK  status: ('A' for Active; 'I' for Inactive)
REMARK    1  A    between atoms: O_2  and  C_12
REMARK    2  A    between atoms: O_3  and  C_13
REMARK    3  A    between atoms: O_5  and  C_24
REMARK    4  A    between atoms: O_5  and  C_32
REMARK    5  A    between atoms: N_8  and  C_22
REMARK    6  A    between atoms: N_9  and  C_16
REMARK    7  A    between atoms: N_10  and  C_26
REMARK    8  A    between atoms: C_11  and  C_15
REMARK    9  A    between atoms: C_14  and  C_16
REMARK   10  A    between atoms: C_15  and  C_17
REMARK   11  A    between atoms: C_26  and  C_30
REMARK   12  A    between atoms: C_26  and  C_31
REMARK                            x       y       z     vdW  Elec       q    Type
REMARK                         _______ _______ _______ _____ _____    ______ ____
ROOT
ATOM      1  O   UNL     1      -6.914 -11.893  17.470  0.00  0.00    -0.366 OA
ATOM     11  C   UNL     1      -6.173 -12.314  18.629  0.00  0.00    +0.159 C 
ATOM     12  C   UNL     1      -6.111 -11.101  19.541  0.00  0.00    +0.175 C 
ATOM     13  C   UNL     1      -7.463 -10.465  19.291  0.00  0.00    +0.176 C 
ATOM     14  C   UNL     1      -7.649 -10.690  17.795  0.00  0.00    +0.167 C 
ENDROOT
BRANCH  12   2
ATOM      2  O   UNL     1      -5.903 -11.462  20.890  0.00  0.00    -0.387 OA
ATOM     33  H   UNL     1      -5.257 -12.188  20.900  0.00  0.00    +0.210 HD
ENDBRANCH  12   2
BRANCH  13   3
ATOM      3  O   UNL     1      -8.485 -11.186  19.978  0.00  0.00    -0.387 OA
ATOM     34  H   UNL     1      -8.087 -11.560  20.782  0.00  0.00    +0.210 HD
ENDBRANCH  13   3
BRANCH  11  15
ATOM     15  C   UNL     1      -4.806 -12.820  18.205  0.00  0.00    +0.130 C 
BRANCH  15  17
ATOM      4  O   UNL     1      -5.484 -14.578  16.769  0.00  0.00    -0.276 OA
ATOM      7  N   UNL     1      -4.311 -12.831  15.787  0.00  0.00    -0.298 N 
ATOM      8  N   UNL     1      -4.301 -11.142  13.527  0.00  0.00    -0.324 N 
ATOM     17  C   UNL     1      -4.901 -13.495  16.860  0.00  0.00    +0.218 C 
ATOM     18  C   UNL     1      -3.611 -11.547  15.856  0.00  0.00    +0.126 C 
ATOM     19  C   UNL     1      -4.335 -13.423  14.453  0.00  0.00    +0.126 C 
ATOM     20  C   UNL     1      -4.217 -10.549  14.869  0.00  0.00    +0.124 C 
ATOM     21  C   UNL     1      -4.955 -12.459  13.445  0.00  0.00    +0.124 C 
BRANCH   8  22
ATOM     22  C   UNL     1      -4.377 -10.308  12.406  0.00  0.00    +0.072 A 
ATOM     24  C   UNL     1      -5.504  -9.515  12.185  0.00  0.00    +0.141 A 
ATOM     25  C   UNL     1      -3.313 -10.272  11.506  0.00  0.00    +0.027 A 
ATOM     27  C   UNL     1      -5.565  -8.687  11.065  0.00  0.00    +0.047 A 
ATOM     28  C   UNL     1      -3.375  -9.445  10.385  0.00  0.00    +0.002 A 
ATOM     29  C   UNL     1      -4.501  -8.652  10.164  0.00  0.00    +0.004 A 
BRANCH  24   5
ATOM      5  O   UNL     1      -6.555  -9.536  13.053  0.00  0.00    -0.493 OA
ATOM     32  C   UNL     1      -7.817  -9.947  12.530  0.00  0.00    +0.277 C 
ENDBRANCH  24   5
ENDBRANCH   8  22
ENDBRANCH  15  17
ENDBRANCH  11  15
BRANCH  14  16
ATOM     16  C   UNL     1      -7.088  -9.557  16.947  0.00  0.00    +0.140 C 
BRANCH  16   9
ATOM      6  O   UNL     1      -9.576  -8.201  17.495  0.00  0.00    -0.253 OA
ATOM      9  N   UNL     1      -8.052  -9.100  15.990  0.00  0.00    -0.297 N 
ATOM     10  N   UNL     1      -9.989  -8.113  15.214  0.00  0.00    -0.297 N 
ATOM     23  C   UNL     1      -9.239  -8.448  16.338  0.00  0.00    +0.300 C 
ATOM     35  H   UNL     1      -7.856  -9.249  15.005  0.00  0.00    +0.150 HD
ATOM     36  H   UNL     1      -9.591  -8.291  14.297  0.00  0.00    +0.150 HD
BRANCH  10  26
ATOM     26  C   UNL     1     -11.260  -7.432  15.295  0.00  0.00    +0.068 C 
ATOM     30  C   UNL     1     -12.143  -7.814  14.115  0.00  0.00    +0.027 C 
ATOM     31  C   UNL     1     -11.055  -5.924  15.364  0.00  0.00    +0.027 C 
ENDBRANCH  10  26
ENDBRANCH  16   9
ENDBRANCH  14  16
TORSDOF 9
ENDMDL
MODEL 2
REMARK VINA RESULT:      -6.6      2.296      6.710
REMARK  Name = 40778215
REMARK  12 active torsions:
REMARK  status: ('A' for Active; 'I' for Inactive)
REMARK    1  A    between atoms: O_2  and  C_12
REMARK    2  A    between atoms: O_3  and  C_13
REMARK    3  A    between atoms: O_5  and  C_24
REMARK    4  A    between atoms: O_5  and  C_32
REMARK    5  A    between atoms: N_8  and  C_22
REMARK    6  A    between atoms: N_9  and  C_16
REMARK    7  A    between atoms: N_10  and  C_26
REMARK    8  A    between atoms: C_11  and  C_15
REMARK    9  A    between atoms: C_14  and  C_16
REMARK   10  A    between atoms: C_15  and  C_17
REMARK   11  A    between atoms: C_26  and  C_30
REMARK   12  A    between atoms: C_26  and  C_31
REMARK                            x       y       z     vdW  Elec       q    Type
REMARK                         _______ _______ _______ _____ _____    ______ ____
ROOT
ATOM      1  O   UNL     1      -4.714  -9.229  11.507  0.00  0.00    -0.366 OA
ATOM     11  C   UNL     1      -4.100  -9.686  10.289  0.00  0.00    +0.159 C 
ATOM     12  C   UNL     1      -5.242  -9.914   9.312  0.00  0.00    +0.175 C 
ATOM     13  C   UNL     1      -6.193  -8.798   9.694  0.00  0.00    +0.176 C 
ATOM     14  C   UNL     1      -6.052  -8.764  11.211  0.00  0.00    +0.167 C 
ENDROOT
BRANCH  12   2
ATOM      2  O   UNL     1      -4.812  -9.848   7.970  0.00  0.00    -0.387 OA
ATOM     33  H   UNL     1      -4.027  -9.277   7.944  0.00  0.00    +0.210 HD
ENDBRANCH  12   2
BRANCH  13   3
ATOM      3  O   UNL     1      -5.727  -7.551   9.178  0.00  0.00    -0.387 OA
ATOM     34  H   UNL     1      -5.770  -6.903   9.900  0.00  0.00    +0.210 HD
ENDBRANCH  13   3
BRANCH  11  15
ATOM     15  C   UNL     1      -3.287 -10.938  10.566  0.00  0.00    +0.130 C 
BRANCH  15  17
ATOM      4  O   UNL     1      -1.422  -9.982  11.674  0.00  0.00    -0.276 OA
ATOM      7  N   UNL     1      -2.773 -11.387  12.937  0.00  0.00    -0.298 N 
ATOM      8  N   UNL     1      -4.012 -11.612  15.462  0.00  0.00    -0.324 N 
ATOM     17  C   UNL     1      -2.405 -10.722  11.770  0.00  0.00    +0.218 C 
ATOM     18  C   UNL     1      -3.929 -12.272  13.091  0.00  0.00    +0.126 C 
ATOM     19  C   UNL     1      -1.963 -11.255  14.146  0.00  0.00    +0.126 C 
ATOM     20  C   UNL     1      -4.815 -11.805  14.247  0.00  0.00    +0.124 C 
ATOM     21  C   UNL     1      -2.814 -10.769  15.316  0.00  0.00    +0.124 C 
BRANCH   8  22
ATOM     22  C   UNL     1      -4.635 -11.644  16.715  0.00  0.00    +0.072 A 
ATOM     24  C   UNL     1      -5.039 -12.855  17.277  0.00  0.00    +0.141 A 
ATOM     25  C   UNL     1      -4.851 -10.450  17.403  0.00  0.00    +0.027 A 
ATOM     27  C   UNL     1      -5.658 -12.872  18.526  0.00  0.00    +0.047 A 
ATOM     28  C   UNL     1      -5.470 -10.467  18.652  0.00  0.00    +0.002 A 
ATOM     29  C   UNL     1      -5.874 -11.678  19.214  0.00  0.00    +0.004 A 
BRANCH  24   5
ATOM      5  O   UNL     1      -4.839 -14.032  16.621  0.00  0.00    -0.493 OA
ATOM     32  C   UNL     1      -5.935 -14.944  16.577  0.00  0.00    +0.277 C 
ENDBRANCH  24   5
ENDBRANCH   8  22
ENDBRANCH  15  17
ENDBRANCH  11  15
BRANCH  14  16
ATOM     16  C   UNL     1      -7.033  -9.687  11.922  0.00  0.00    +0.140 C 
BRANCH  16   9
ATOM      6  O   UNL     1      -9.219 -10.442  13.649  0.00  0.00    -0.253 OA
ATOM      9  N   UNL     1      -7.246  -9.272  13.277  0.00  0.00    -0.297 N 
ATOM     10  N   UNL     1      -8.296  -9.135  15.328  0.00  0.00    -0.297 N 
ATOM     23  C   UNL     1      -8.336  -9.685  14.050  0.00  0.00    +0.300 C 
ATOM     35  H   UNL     1      -6.562  -8.654  13.702  0.00  0.00    +0.150 HD
ATOM     36  H   UNL     1      -7.486  -8.582  15.591  0.00  0.00    +0.150 HD
BRANCH  10  26
ATOM     26  C   UNL     1      -9.305  -9.400  16.328  0.00  0.00    +0.068 C 
ATOM     30  C   UNL     1      -9.549  -8.160  17.177  0.00  0.00    +0.027 C 
ATOM     31  C   UNL     1      -8.903 -10.589  17.190  0.00  0.00    +0.027 C 
ENDBRANCH  10  26
ENDBRANCH  16   9
ENDBRANCH  14  16
TORSDOF 9
ENDMDL
MODEL 3
REMARK VINA RESULT:      -6.5      2.965      7.667
REMARK  Name = 40778215
REMARK  12 active torsions:
REMARK  status: ('A' for Active; 'I' for Inactive)
REMARK    1  A    between atoms: O_2  and  C_12
REMARK    2  A    between atoms: O_3  and  C_13
REMARK    3  A    between atoms: O_5  and  C_24
REMARK    4  A    between atoms: O_5  and  C_32
REMARK    5  A    between atoms: N_8  and  C_22
REMARK    6  A    between atoms: N_9  and  C_16
REMARK    7  A    between atoms: N_10  and  C_26
REMARK    8  A    between atoms: C_11  and  C_15
REMARK    9  A    between atoms: C_14  and  C_16
REMARK   10  A    between atoms: C_15  and  C_17
REMARK   11  A    between atoms: C_26  and  C_30
REMARK   12  A    between atoms: C_26  and  C_31
REMARK                            x       y       z     vdW  Elec       q    Type
REMARK                         _______ _______ _______ _____ _____    ______ ____
ROOT
ATOM      1  O   UNL     1      -3.566 -10.564  14.119  0.00  0.00    -0.366 OA
ATOM     11  C   UNL     1      -3.282 -10.880  15.493  0.00  0.00    +0.159 C 
ATOM     12  C   UNL     1      -1.806 -11.239  15.536  0.00  0.00    +0.175 C 
ATOM     13  C   UNL     1      -1.234 -10.292  14.501  0.00  0.00    +0.176 C 
ATOM     14  C   UNL     1      -2.321 -10.294  13.433  0.00  0.00    +0.167 C 
ENDROOT
BRANCH  12   2
ATOM      2  O   UNL     1      -1.254 -11.061  16.823  0.00  0.00    -0.387 OA
ATOM     33  H   UNL     1      -0.874 -11.912  17.097  0.00  0.00    +0.210 HD
ENDBRANCH  12   2
BRANCH  13   3
ATOM      3  O   UNL     1      -1.140  -8.972  15.036  0.00  0.00    -0.387 OA
ATOM     34  H   UNL     1      -0.206  -8.810  15.248  0.00  0.00    +0.210 HD
ENDBRANCH  13   3
BRANCH  11  15
ATOM     15  C   UNL     1      -4.189 -12.006  15.957  0.00  0.00    +0.130 C 
BRANCH  15  17
ATOM      4  O   UNL     1      -3.656 -11.518  18.214  0.00  0.00    -0.276 OA
ATOM      7  N   UNL     1      -5.883 -11.988  17.752  0.00  0.00    -0.298 N 
ATOM      8  N   UNL     1      -8.508 -11.113  18.302  0.00  0.00    -0.324 N 
ATOM     17  C   UNL     1      -4.543 -11.814  17.410  0.00  0.00    +0.218 C 
ATOM     18  C   UNL     1      -6.963 -12.340  16.828  0.00  0.00    +0.126 C 
ATOM     19  C   UNL     1      -6.312 -11.845  19.140  0.00  0.00    +0.126 C 
ATOM     20  C   UNL     1      -8.094 -11.315  16.907  0.00  0.00    +0.124 C 
ATOM     21  C   UNL     1      -7.429 -10.811  19.257  0.00  0.00    +0.124 C 
BRANCH   8  22
ATOM     22  C   UNL     1      -9.782 -10.604  18.579  0.00  0.00    +0.072 A 
ATOM     24  C   UNL     1     -10.482 -11.019  19.712  0.00  0.00    +0.141 A 
ATOM     25  C   UNL     1     -10.351  -9.672  17.711  0.00  0.00    +0.027 A 
ATOM     27  C   UNL     1     -11.750 -10.503  19.976  0.00  0.00    +0.047 A 
ATOM     28  C   UNL     1     -11.619  -9.156  17.976  0.00  0.00    +0.002 A 
ATOM     29  C   UNL     1     -12.319  -9.571  19.108  0.00  0.00    +0.004 A 
BRANCH  24   5
ATOM      5  O   UNL     1      -9.945 -11.930  20.572  0.00  0.00    -0.493 OA
ATOM     32  C   UNL     1     -10.442 -13.264  20.495  0.00  0.00    +0.277 C 
ENDBRANCH  24   5
ENDBRANCH   8  22
ENDBRANCH  15  17
ENDBRANCH  11  15
BRANCH  14  16
ATOM     16  C   UNL     1      -2.123 -11.378  12.382  0.00  0.00    +0.140 C 
BRANCH  16   9
ATOM      6  O   UNL     1      -2.590  -9.293  10.442  0.00  0.00    -0.253 OA
ATOM      9  N   UNL     1      -3.159 -11.336  11.392  0.00  0.00    -0.297 N 
ATOM     10  N   UNL     1      -4.400 -10.499   9.635  0.00  0.00    -0.297 N 
ATOM     23  C   UNL     1      -3.318 -10.284  10.484  0.00  0.00    +0.300 C 
ATOM     35  H   UNL     1      -3.805 -12.117  11.341  0.00  0.00    +0.150 HD
ATOM     36  H   UNL     1      -4.895 -11.383   9.698  0.00  0.00    +0.150 HD
BRANCH  10  26
ATOM     26  C   UNL     1      -4.784  -9.564   8.603  0.00  0.00    +0.068 C 
ATOM     30  C   UNL     1      -5.862  -8.620   9.118  0.00  0.00    +0.027 C 
ATOM     31  C   UNL     1      -5.249 -10.305   7.357  0.00  0.00    +0.027 C 
ENDBRANCH  10  26
ENDBRANCH  16   9
ENDBRANCH  14  16
TORSDOF 9
ENDMDL
MODEL 4
REMARK VINA RESULT:      -6.5      2.596      7.171
REMARK  Name = 40778215
REMARK  12 active torsions:
REMARK  status: ('A' for Active; 'I' for Inactive)
REMARK    1  A    between atoms: O_2  and  C_12
REMARK    2  A    between atoms: O_3  and  C_13
REMARK    3  A    between atoms: O_5  and  C_24
REMARK    4  A    between atoms: O_5  and  C_32
REMARK    5  A    between atoms: N_8  and  C_22
REMARK    6  A    between atoms: N_9  and  C_16
REMARK    7  A    between atoms: N_10  and  C_26
REMARK    8  A    between atoms: C_11  and  C_15
REMARK    9  A    between atoms: C_14  and  C_16
REMARK   10  A    between atoms: C_15  and  C_17
REMARK   11  A    between atoms: C_26  and  C_30
REMARK   12  A    between atoms: C_26  and  C_31
REMARK                            x       y       z     vdW  Elec       q    Type
REMARK                         _______ _______ _______ _____ _____    ______ ____
ROOT
ATOM      1  O   UNL     1      -3.680 -10.319  13.909  0.00  0.00    -0.366 OA
ATOM     11  C   UNL     1      -3.658 -10.653  15.308  0.00  0.00    +0.159 C 
ATOM     12  C   UNL     1      -2.303 -11.294  15.557  0.00  0.00    +0.175 C 
ATOM     13  C   UNL     1      -1.417 -10.502  14.619  0.00  0.00    +0.176 C 
ATOM     14  C   UNL     1      -2.323 -10.314  13.408  0.00  0.00    +0.167 C 
ENDROOT
BRANCH  12   2
ATOM      2  O   UNL     1      -1.913 -11.199  16.910  0.00  0.00    -0.387 OA
ATOM     33  H   UNL     1      -2.549 -11.715  17.433  0.00  0.00    +0.210 HD
ENDBRANCH  12   2
BRANCH  13   3
ATOM      3  O   UNL     1      -1.139  -9.214  15.168  0.00  0.00    -0.387 OA
ATOM     34  H   UNL     1      -1.849  -9.008  15.799  0.00  0.00    +0.210 HD
ENDBRANCH  13   3
BRANCH  11  15
ATOM     15  C   UNL     1      -4.826 -11.568  15.633  0.00  0.00    +0.130 C 
BRANCH  15  17
ATOM      4  O   UNL     1      -4.861 -10.932  17.916  0.00  0.00    -0.276 OA
ATOM      7  N   UNL     1      -6.889 -10.858  16.787  0.00  0.00    -0.298 N 
ATOM      8  N   UNL     1      -9.183  -9.256  16.424  0.00  0.00    -0.324 N 
ATOM     17  C   UNL     1      -5.519 -11.092  16.885  0.00  0.00    +0.218 C 
ATOM     18  C   UNL     1      -7.704 -11.036  15.584  0.00  0.00    +0.126 C 
ATOM     19  C   UNL     1      -7.645 -10.418  17.956  0.00  0.00    +0.126 C 
ATOM     20  C   UNL     1      -8.456  -9.749  15.246  0.00  0.00    +0.124 C 
ATOM     21  C   UNL     1      -8.393  -9.120  17.659  0.00  0.00    +0.124 C 
BRANCH   8  22
ATOM     22  C   UNL     1     -10.274  -8.396  16.254  0.00  0.00    +0.072 A 
ATOM     24  C   UNL     1     -11.578  -8.864  16.410  0.00  0.00    +0.141 A 
ATOM     25  C   UNL     1     -10.048  -7.060  15.925  0.00  0.00    +0.027 A 
ATOM     27  C   UNL     1     -12.656  -7.997  16.238  0.00  0.00    +0.047 A 
ATOM     28  C   UNL     1     -11.126  -6.192  15.753  0.00  0.00    +0.002 A 
ATOM     29  C   UNL     1     -12.431  -6.660  15.910  0.00  0.00    +0.004 A 
BRANCH  24   5
ATOM      5  O   UNL     1     -11.821 -10.167  16.730  0.00  0.00    -0.493 OA
ATOM     32  C   UNL     1     -13.179 -10.534  16.962  0.00  0.00    +0.277 C 
ENDBRANCH  24   5
ENDBRANCH   8  22
ENDBRANCH  15  17
ENDBRANCH  11  15
BRANCH  14  16
ATOM     16  C   UNL     1      -2.199 -11.439  12.389  0.00  0.00    +0.140 C 
BRANCH  16   9
ATOM      6  O   UNL     1      -2.586  -9.424  10.360  0.00  0.00    -0.253 OA
ATOM      9  N   UNL     1      -3.254 -11.380  11.420  0.00  0.00    -0.297 N 
ATOM     10  N   UNL     1      -4.484 -10.552   9.651  0.00  0.00    -0.297 N 
ATOM     23  C   UNL     1      -3.371 -10.364  10.465  0.00  0.00    +0.300 C 
ATOM     35  H   UNL     1      -3.947 -12.121  11.421  0.00  0.00    +0.150 HD
ATOM     36  H   UNL     1      -5.030 -11.401   9.767  0.00  0.00    +0.150 HD
BRANCH  10  26
ATOM     26  C   UNL     1      -4.835  -9.646   8.583  0.00  0.00    +0.068 C 
ATOM     30  C   UNL     1      -5.981  -8.738   9.012  0.00  0.00    +0.027 C 
ATOM     31  C   UNL     1      -5.188 -10.419   7.319  0.00  0.00    +0.027 C 
ENDBRANCH  10  26
ENDBRANCH  16   9
ENDBRANCH  14  16
TORSDOF 9
ENDMDL
MODEL 5
REMARK VINA RESULT:      -6.5      2.189      3.259
REMARK  Name = 40778215
REMARK  12 active torsions:
REMARK  status: ('A' for Active; 'I' for Inactive)
REMARK    1  A    between atoms: O_2  and  C_12
REMARK    2  A    between atoms: O_3  and  C_13
REMARK    3  A    between atoms: O_5  and  C_24
REMARK    4  A    between atoms: O_5  and  C_32
REMARK    5  A    between atoms: N_8  and  C_22
REMARK    6  A    between atoms: N_9  and  C_16
REMARK    7  A    between atoms: N_10  and  C_26
REMARK    8  A    between atoms: C_11  and  C_15
REMARK    9  A    between atoms: C_14  and  C_16
REMARK   10  A    between atoms: C_15  and  C_17
REMARK   11  A    between atoms: C_26  and  C_30
REMARK   12  A    between atoms: C_26  and  C_31
REMARK                            x       y       z     vdW  Elec       q    Type
REMARK                         _______ _______ _______ _____ _____    ______ ____
ROOT
ATOM      1  O   UNL     1      -9.183 -10.550  17.168  0.00  0.00    -0.366 OA
ATOM     11  C   UNL     1      -9.041 -10.912  18.553  0.00  0.00    +0.159 C 
ATOM     12  C   UNL     1      -9.803  -9.854  19.334  0.00  0.00    +0.175 C 
ATOM     13  C   UNL     1     -10.962  -9.567  18.403  0.00  0.00    +0.176 C 
ATOM     14  C   UNL     1     -10.295  -9.635  17.034  0.00  0.00    +0.167 C 
ENDROOT
BRANCH  12   2
ATOM      2  O   UNL     1     -10.207 -10.322  20.603  0.00  0.00    -0.387 OA
ATOM     33  H   UNL     1      -9.601 -11.038  20.856  0.00  0.00    +0.210 HD
ENDBRANCH  12   2
BRANCH  13   3
ATOM      3  O   UNL     1     -11.929 -10.614  18.477  0.00  0.00    -0.387 OA
ATOM     34  H   UNL     1     -11.905 -11.093  17.633  0.00  0.00    +0.210 HD
ENDBRANCH  13   3
BRANCH  11  15
ATOM     15  C   UNL     1      -7.568 -10.982  18.914  0.00  0.00    +0.130 C 
BRANCH  15  17
ATOM      4  O   UNL     1      -7.374 -13.248  18.245  0.00  0.00    -0.276 OA
ATOM      7  N   UNL     1      -5.789 -11.776  17.399  0.00  0.00    -0.298 N 
ATOM      8  N   UNL     1      -4.436 -11.079  15.024  0.00  0.00    -0.324 N 
ATOM     17  C   UNL     1      -6.908 -12.109  18.160  0.00  0.00    +0.218 C 
ATOM     18  C   UNL     1      -5.205 -10.440  17.274  0.00  0.00    +0.126 C 
ATOM     19  C   UNL     1      -5.072 -12.809  16.655  0.00  0.00    +0.126 C 
ATOM     20  C   UNL     1      -5.107 -10.030  15.804  0.00  0.00    +0.124 C 
ATOM     21  C   UNL     1      -4.974 -12.440  15.177  0.00  0.00    +0.124 C 
BRANCH   8  22
ATOM     22  C   UNL     1      -3.832 -10.753  13.804  0.00  0.00    +0.072 A 
ATOM     24  C   UNL     1      -2.444 -10.790  13.667  0.00  0.00    +0.141 A 
ATOM     25  C   UNL     1      -4.630 -10.390  12.719  0.00  0.00    +0.027 A 
ATOM     27  C   UNL     1      -1.855 -10.464  12.446  0.00  0.00    +0.047 A 
ATOM     28  C   UNL     1      -4.041 -10.064  11.498  0.00  0.00    +0.002 A 
ATOM     29  C   UNL     1      -2.653 -10.101  11.361  0.00  0.00    +0.004 A 
BRANCH  24   5
ATOM      5  O   UNL     1      -1.646 -11.141  14.715  0.00  0.00    -0.493 OA
ATOM     32  C   UNL     1      -1.093 -10.079  15.490  0.00  0.00    +0.277 C 
ENDBRANCH  24   5
ENDBRANCH   8  22
ENDBRANCH  15  17
ENDBRANCH  11  15
BRANCH  14  16
ATOM     16  C   UNL     1      -9.742  -8.294  16.573  0.00  0.00    +0.140 C 
BRANCH  16   9
ATOM      6  O   UNL     1     -11.368  -5.910  16.501  0.00  0.00    -0.253 OA
ATOM      9  N   UNL     1     -10.481  -7.785  15.455  0.00  0.00    -0.297 N 
ATOM     10  N   UNL     1     -11.858  -6.354  14.278  0.00  0.00    -0.297 N 
ATOM     23  C   UNL     1     -11.249  -6.617  15.501  0.00  0.00    +0.300 C 
ATOM     35  H   UNL     1     -10.435  -8.295  14.578  0.00  0.00    +0.150 HD
ATOM     36  H   UNL     1     -11.638  -6.956  13.489  0.00  0.00    +0.150 HD
BRANCH  10  26
ATOM     26  C   UNL     1     -12.707  -5.207  14.055  0.00  0.00    +0.068 C 
ATOM     30  C   UNL     1     -14.159  -5.642  13.910  0.00  0.00    +0.027 C 
ATOM     31  C   UNL     1     -12.241  -4.426  12.834  0.00  0.00    +0.027 C 
ENDBRANCH  10  26
ENDBRANCH  16   9
ENDBRANCH  14  16
TORSDOF 9
ENDMDL
MODEL 6
REMARK VINA RESULT:      -6.3     24.278     28.566
REMARK  Name = 40778215
REMARK  12 active torsions:
REMARK  status: ('A' for Active; 'I' for Inactive)
REMARK    1  A    between atoms: O_2  and  C_12
REMARK    2  A    between atoms: O_3  and  C_13
REMARK    3  A    between atoms: O_5  and  C_24
REMARK    4  A    between atoms: O_5  and  C_32
REMARK    5  A    between atoms: N_8  and  C_22
REMARK    6  A    between atoms: N_9  and  C_16
REMARK    7  A    between atoms: N_10  and  C_26
REMARK    8  A    between atoms: C_11  and  C_15
REMARK    9  A    between atoms: C_14  and  C_16
REMARK   10  A    between atoms: C_15  and  C_17
REMARK   11  A    between atoms: C_26  and  C_30
REMARK   12  A    between atoms: C_26  and  C_31
REMARK                            x       y       z     vdW  Elec       q    Type
REMARK                         _______ _______ _______ _____ _____    ______ ____
ROOT
ATOM      1  O   UNL     1      12.636   4.571   1.194  0.00  0.00    -0.366 OA
ATOM     11  C   UNL     1      11.937   5.333   0.194  0.00  0.00    +0.159 C 
ATOM     12  C   UNL     1      12.722   5.140  -1.093  0.00  0.00    +0.175 C 
ATOM     13  C   UNL     1      13.186   3.705  -0.952  0.00  0.00    +0.176 C 
ATOM     14  C   UNL     1      13.503   3.618   0.536  0.00  0.00    +0.167 C 
ENDROOT
BRANCH  12   2
ATOM      2  O   UNL     1      11.926   5.360  -2.238  0.00  0.00    -0.387 OA
ATOM     33  H   UNL     1      12.229   6.188  -2.648  0.00  0.00    +0.210 HD
ENDBRANCH  12   2
BRANCH  13   3
ATOM      3  O   UNL     1      12.113   2.807  -1.230  0.00  0.00    -0.387 OA
ATOM     34  H   UNL     1      11.871   2.376  -0.393  0.00  0.00    +0.210 HD
ENDBRANCH  13   3
BRANCH  11  15
ATOM     15  C   UNL     1      11.843   6.784   0.629  0.00  0.00    +0.130 C 
BRANCH  15  17
ATOM      4  O   UNL     1       9.498   7.079   0.455  0.00  0.00    -0.276 OA
ATOM      7  N   UNL     1      10.414   7.277   2.580  0.00  0.00    -0.298 N 
ATOM      8  N   UNL     1      10.002   6.517   5.266  0.00  0.00    -0.324 N 
ATOM     17  C   UNL     1      10.477   7.060   1.205  0.00  0.00    +0.218 C 
ATOM     18  C   UNL     1      11.551   7.263   3.503  0.00  0.00    +0.126 C 
ATOM     19  C   UNL     1       9.135   7.575   3.220  0.00  0.00    +0.126 C 
ATOM     20  C   UNL     1      11.309   6.271   4.640  0.00  0.00    +0.124 C 
ATOM     21  C   UNL     1       8.853   6.588   4.349  0.00  0.00    +0.124 C 
BRANCH   8  22
ATOM     22  C   UNL     1       9.766   6.071   6.571  0.00  0.00    +0.072 A 
ATOM     24  C   UNL     1       9.275   6.944   7.542  0.00  0.00    +0.141 A 
ATOM     25  C   UNL     1      10.024   4.740   6.897  0.00  0.00    +0.027 A 
ATOM     27  C   UNL     1       9.043   6.486   8.838  0.00  0.00    +0.047 A 
ATOM     28  C   UNL     1       9.792   4.282   8.194  0.00  0.00    +0.002 A 
ATOM     29  C   UNL     1       9.301   5.155   9.165  0.00  0.00    +0.004 A 
BRANCH  24   5
ATOM      5  O   UNL     1       9.017   8.248   7.244  0.00  0.00    -0.493 OA
ATOM     32  C   UNL     1       9.605   9.234   8.090  0.00  0.00    +0.277 C 
ENDBRANCH  24   5
ENDBRANCH   8  22
ENDBRANCH  15  17
ENDBRANCH  11  15
BRANCH  14  16
ATOM     16  C   UNL     1      14.942   3.995   0.863  0.00  0.00    +0.140 C 
BRANCH  16   9
ATOM      6  O   UNL     1      15.218   6.797   1.495  0.00  0.00    -0.253 OA
ATOM      9  N   UNL     1      15.041   4.580   2.167  0.00  0.00    -0.297 N 
ATOM     10  N   UNL     1      15.248   6.249   3.749  0.00  0.00    -0.297 N 
ATOM     23  C   UNL     1      15.174   5.955   2.390  0.00  0.00    +0.300 C 
ATOM     35  H   UNL     1      15.003   3.964   2.973  0.00  0.00    +0.150 HD
ATOM     36  H   UNL     1      15.126   5.492   4.415  0.00  0.00    +0.150 HD
BRANCH  10  26
ATOM     26  C   UNL     1      15.387   7.596   4.252  0.00  0.00    +0.068 C 
ATOM     30  C   UNL     1      16.858   7.978   4.345  0.00  0.00    +0.027 C 
ATOM     31  C   UNL     1      14.695   7.737   5.601  0.00  0.00    +0.027 C 
ENDBRANCH  10  26
ENDBRANCH  16   9
ENDBRANCH  14  16
TORSDOF 9
ENDMDL
MODEL 7
REMARK VINA RESULT:      -6.3      3.112      4.679
REMARK  Name = 40778215
REMARK  12 active torsions:
REMARK  status: ('A' for Active; 'I' for Inactive)
REMARK    1  A    between atoms: O_2  and  C_12
REMARK    2  A    between atoms: O_3  and  C_13
REMARK    3  A    between atoms: O_5  and  C_24
REMARK    4  A    between atoms: O_5  and  C_32
REMARK    5  A    between atoms: N_8  and  C_22
REMARK    6  A    between atoms: N_9  and  C_16
REMARK    7  A    between atoms: N_10  and  C_26
REMARK    8  A    between atoms: C_11  and  C_15
REMARK    9  A    between atoms: C_14  and  C_16
REMARK   10  A    between atoms: C_15  and  C_17
REMARK   11  A    between atoms: C_26  and  C_30
REMARK   12  A    between atoms: C_26  and  C_31
REMARK                            x       y       z     vdW  Elec       q    Type
REMARK                         _______ _______ _______ _____ _____    ______ ____
ROOT
ATOM      1  O   UNL     1      -4.256 -12.181  14.765  0.00  0.00    -0.366 OA
ATOM     11  C   UNL     1      -2.819 -12.207  14.811  0.00  0.00    +0.159 C 
ATOM     12  C   UNL     1      -2.409 -10.958  15.574  0.00  0.00    +0.175 C 
ATOM     13  C   UNL     1      -3.524 -10.847  16.593  0.00  0.00    +0.176 C 
ATOM     14  C   UNL     1      -4.741 -11.273  15.781  0.00  0.00    +0.167 C 
ENDROOT
BRANCH  12   2
ATOM      2  O   UNL     1      -1.130 -11.088  16.155  0.00  0.00    -0.387 OA
ATOM     33  H   UNL     1      -1.258 -11.309  17.093  0.00  0.00    +0.210 HD
ENDBRANCH  12   2
BRANCH  13   3
ATOM      3  O   UNL     1      -3.335 -11.798  17.640  0.00  0.00    -0.387 OA
ATOM     34  H   UNL     1      -4.100 -12.396  17.631  0.00  0.00    +0.210 HD
ENDBRANCH  13   3
BRANCH  11  15
ATOM     15  C   UNL     1      -2.263 -12.259  13.399  0.00  0.00    +0.130 C 
BRANCH  15  17
ATOM      4  O   UNL     1      -1.618 -10.006  13.046  0.00  0.00    -0.276 OA
ATOM      7  N   UNL     1      -3.432 -10.772  11.813  0.00  0.00    -0.298 N 
ATOM      8  N   UNL     1      -4.536 -10.741   9.217  0.00  0.00    -0.324 N 
ATOM     17  C   UNL     1      -2.402 -10.909  12.742  0.00  0.00    +0.218 C 
ATOM     18  C   UNL     1      -4.381 -11.817  11.427  0.00  0.00    +0.126 C 
ATOM     19  C   UNL     1      -3.655  -9.492  11.146  0.00  0.00    +0.126 C 
ATOM     20  C   UNL     1      -4.367 -12.025   9.912  0.00  0.00    +0.124 C 
ATOM     21  C   UNL     1      -3.626  -9.661   9.629  0.00  0.00    +0.124 C 
BRANCH   8  22
ATOM     22  C   UNL     1      -5.009 -10.726   7.900  0.00  0.00    +0.072 A 
ATOM     24  C   UNL     1      -6.001  -9.825   7.512  0.00  0.00    +0.141 A 
ATOM     25  C   UNL     1      -4.479 -11.621   6.971  0.00  0.00    +0.027 A 
ATOM     27  C   UNL     1      -6.462  -9.819   6.196  0.00  0.00    +0.047 A 
ATOM     28  C   UNL     1      -4.940 -11.615   5.655  0.00  0.00    +0.002 A 
ATOM     29  C   UNL     1      -5.932 -10.714   5.267  0.00  0.00    +0.004 A 
BRANCH  24   5
ATOM      5  O   UNL     1      -6.533  -8.943   8.405  0.00  0.00    -0.493 OA
ATOM     32  C   UNL     1      -7.869  -8.506   8.165  0.00  0.00    +0.277 C 
ENDBRANCH  24   5
ENDBRANCH   8  22
ENDBRANCH  15  17
ENDBRANCH  11  15
BRANCH  14  16
ATOM     16  C   UNL     1      -5.425 -10.109  15.077  0.00  0.00    +0.140 C 
BRANCH  16   9
ATOM      6  O   UNL     1      -8.288 -10.470  15.150  0.00  0.00    -0.253 OA
ATOM      9  N   UNL     1      -6.357  -9.452  15.946  0.00  0.00    -0.297 N 
ATOM     10  N   UNL     1      -8.404  -8.916  16.868  0.00  0.00    -0.297 N 
ATOM     23  C   UNL     1      -7.736  -9.684  15.919  0.00  0.00    +0.300 C 
ATOM     35  H   UNL     1      -5.994  -8.791  16.626  0.00  0.00    +0.150 HD
ATOM     36  H   UNL     1      -7.853  -8.352  17.508  0.00  0.00    +0.150 HD
BRANCH  10  26
ATOM     26  C   UNL     1      -9.836  -8.965  17.049  0.00  0.00    +0.068 C 
ATOM     30  C   UNL     1     -10.419  -7.558  17.050  0.00  0.00    +0.027 C 
ATOM     31  C   UNL     1     -10.188  -9.709  18.330  0.00  0.00    +0.027 C 
ENDBRANCH  10  26
ENDBRANCH  16   9
ENDBRANCH  14  16
TORSDOF 9
ENDMDL
MODEL 8
REMARK VINA RESULT:      -6.3      2.206      6.830
REMARK  Name = 40778215
REMARK  12 active torsions:
REMARK  status: ('A' for Active; 'I' for Inactive)
REMARK    1  A    between atoms: O_2  and  C_12
REMARK    2  A    between atoms: O_3  and  C_13
REMARK    3  A    between atoms: O_5  and  C_24
REMARK    4  A    between atoms: O_5  and  C_32
REMARK    5  A    between atoms: N_8  and  C_22
REMARK    6  A    between atoms: N_9  and  C_16
REMARK    7  A    between atoms: N_10  and  C_26
REMARK    8  A    between atoms: C_11  and  C_15
REMARK    9  A    between atoms: C_14  and  C_16
REMARK   10  A    between atoms: C_15  and  C_17
REMARK   11  A    between atoms: C_26  and  C_30
REMARK   12  A    between atoms: C_26  and  C_31
REMARK                            x       y       z     vdW  Elec       q    Type
REMARK                         _______ _______ _______ _____ _____    ______ ____
ROOT
ATOM      1  O   UNL     1      -6.351 -11.161  18.623  0.00  0.00    -0.366 OA
ATOM     11  C   UNL     1      -6.214 -12.592  18.664  0.00  0.00    +0.159 C 
ATOM     12  C   UNL     1      -5.173 -12.936  17.611  0.00  0.00    +0.175 C 
ATOM     13  C   UNL     1      -4.233 -11.754  17.718  0.00  0.00    +0.176 C 
ATOM     14  C   UNL     1      -5.199 -10.599  17.953  0.00  0.00    +0.167 C 
ENDROOT
BRANCH  12   2
ATOM      2  O   UNL     1      -4.547 -14.174  17.870  0.00  0.00    -0.387 OA
ATOM     33  H   UNL     1      -4.471 -14.644  17.022  0.00  0.00    +0.210 HD
ENDBRANCH  12   2
BRANCH  13   3
ATOM      3  O   UNL     1      -3.405 -11.881  18.873  0.00  0.00    -0.387 OA
ATOM     34  H   UNL     1      -3.290 -12.830  19.046  0.00  0.00    +0.210 HD
ENDBRANCH  13   3
BRANCH  11  15
ATOM     15  C   UNL     1      -7.562 -13.243  18.413  0.00  0.00    +0.130 C 
BRANCH  15  17
ATOM      4  O   UNL     1      -8.554 -12.618  20.473  0.00  0.00    -0.276 OA
ATOM      7  N   UNL     1      -9.631 -11.904  18.543  0.00  0.00    -0.298 N 
ATOM      8  N   UNL     1     -10.881  -9.652  17.390  0.00  0.00    -0.324 N 
ATOM     17  C   UNL     1      -8.623 -12.563  19.242  0.00  0.00    +0.218 C 
ATOM     18  C   UNL     1      -9.748 -11.817  17.086  0.00  0.00    +0.126 C 
ATOM     19  C   UNL     1     -10.712 -11.238  19.265  0.00  0.00    +0.126 C 
ATOM     20  C   UNL     1      -9.834 -10.358  16.638  0.00  0.00    +0.124 C 
ATOM     21  C   UNL     1     -10.813  -9.771  18.855  0.00  0.00    +0.124 C 
BRANCH   8  22
ATOM     22  C   UNL     1     -11.449  -8.489  16.858  0.00  0.00    +0.072 A 
ATOM     24  C   UNL     1     -12.759  -8.493  16.380  0.00  0.00    +0.141 A 
ATOM     25  C   UNL     1     -10.693  -7.318  16.810  0.00  0.00    +0.027 A 
ATOM     27  C   UNL     1     -13.313  -7.327  15.853  0.00  0.00    +0.047 A 
ATOM     28  C   UNL     1     -11.247  -6.151  16.283  0.00  0.00    +0.002 A 
ATOM     29  C   UNL     1     -12.558  -6.155  15.805  0.00  0.00    +0.004 A 
BRANCH  24   5
ATOM      5  O   UNL     1     -13.515  -9.627  16.417  0.00  0.00    -0.493 OA
ATOM     32  C   UNL     1     -13.733 -10.300  15.178  0.00  0.00    +0.277 C 
ENDBRANCH  24   5
ENDBRANCH   8  22
ENDBRANCH  15  17
ENDBRANCH  11  15
BRANCH  14  16
ATOM     16  C   UNL     1      -5.681  -9.952  16.661  0.00  0.00    +0.140 C 
BRANCH  16   9
ATOM      6  O   UNL     1      -5.650 -11.204  14.061  0.00  0.00    -0.253 OA
ATOM      9  N   UNL     1      -4.631  -9.894  15.687  0.00  0.00    -0.297 N 
ATOM     10  N   UNL     1      -3.541 -10.311  13.695  0.00  0.00    -0.297 N 
ATOM     23  C   UNL     1      -4.694 -10.532  14.443  0.00  0.00    +0.300 C 
ATOM     35  H   UNL     1      -3.802  -9.352  15.908  0.00  0.00    +0.150 HD
ATOM     36  H   UNL     1      -2.837  -9.679  14.067  0.00  0.00    +0.150 HD
BRANCH  10  26
ATOM     26  C   UNL     1      -3.348 -10.858  12.373  0.00  0.00    +0.068 C 
ATOM     30  C   UNL     1      -1.914 -11.338  12.201  0.00  0.00    +0.027 C 
ATOM     31  C   UNL     1      -3.717  -9.830  11.310  0.00  0.00    +0.027 C 
ENDBRANCH  10  26
ENDBRANCH  16   9
ENDBRANCH  14  16
TORSDOF 9
ENDMDL
MODEL 9
REMARK VINA RESULT:      -6.2     24.828     27.182
REMARK  Name = 40778215
REMARK  12 active torsions:
REMARK  status: ('A' for Active; 'I' for Inactive)
REMARK    1  A    between atoms: O_2  and  C_12
REMARK    2  A    between atoms: O_3  and  C_13
REMARK    3  A    between atoms: O_5  and  C_24
REMARK    4  A    between atoms: O_5  and  C_32
REMARK    5  A    between atoms: N_8  and  C_22
REMARK    6  A    between atoms: N_9  and  C_16
REMARK    7  A    between atoms: N_10  and  C_26
REMARK    8  A    between atoms: C_11  and  C_15
REMARK    9  A    between atoms: C_14  and  C_16
REMARK   10  A    between atoms: C_15  and  C_17
REMARK   11  A    between atoms: C_26  and  C_30
REMARK   12  A    between atoms: C_26  and  C_31
REMARK                            x       y       z     vdW  Elec       q    Type
REMARK                         _______ _______ _______ _____ _____    ______ ____
ROOT
ATOM      1  O   UNL     1       9.216   5.748   6.161  0.00  0.00    -0.366 OA
ATOM     11  C   UNL     1      10.496   5.706   5.506  0.00  0.00    +0.159 C 
ATOM     12  C   UNL     1      11.389   6.657   6.286  0.00  0.00    +0.175 C 
ATOM     13  C   UNL     1      10.888   6.450   7.701  0.00  0.00    +0.176 C 
ATOM     14  C   UNL     1       9.386   6.299   7.488  0.00  0.00    +0.167 C 
ENDROOT
BRANCH  12   2
ATOM      2  O   UNL     1      12.757   6.350   6.126  0.00  0.00    -0.387 OA
ATOM     33  H   UNL     1      12.917   6.224   5.176  0.00  0.00    +0.210 HD
ENDBRANCH  12   2
BRANCH  13   3
ATOM      3  O   UNL     1      11.386   5.221   8.229  0.00  0.00    -0.387 OA
ATOM     34  H   UNL     1      11.098   5.165   9.154  0.00  0.00    +0.210 HD
ENDBRANCH  13   3
BRANCH  11  15
ATOM     15  C   UNL     1      10.336   6.091   4.046  0.00  0.00    +0.130 C 
BRANCH  15  17
ATOM      4  O   UNL     1      11.027   3.861   3.638  0.00  0.00    -0.276 OA
ATOM      7  N   UNL     1      11.135   5.328   1.840  0.00  0.00    -0.298 N 
ATOM      8  N   UNL     1      10.550   5.529  -0.913  0.00  0.00    -0.324 N 
ATOM     17  C   UNL     1      10.864   4.988   3.163  0.00  0.00    +0.218 C 
ATOM     18  C   UNL     1      10.956   6.652   1.241  0.00  0.00    +0.126 C 
ATOM     19  C   UNL     1      11.672   4.329   0.920  0.00  0.00    +0.126 C 
ATOM     20  C   UNL     1      10.060   6.567   0.005  0.00  0.00    +0.124 C 
ATOM     21  C   UNL     1      10.788   4.204  -0.318  0.00  0.00    +0.124 C 
BRANCH   8  22
ATOM     22  C   UNL     1      10.196   5.580  -2.266  0.00  0.00    +0.072 A 
ATOM     24  C   UNL     1      11.178   5.642  -3.255  0.00  0.00    +0.141 A 
ATOM     25  C   UNL     1       8.848   5.567  -2.623  0.00  0.00    +0.027 A 
ATOM     27  C   UNL     1      10.812   5.691  -4.599  0.00  0.00    +0.047 A 
ATOM     28  C   UNL     1       8.482   5.616  -3.967  0.00  0.00    +0.002 A 
ATOM     29  C   UNL     1       9.464   5.679  -4.956  0.00  0.00    +0.004 A 
BRANCH  24   5
ATOM      5  O   UNL     1      12.501   5.657  -2.927  0.00  0.00    -0.493 OA
ATOM     32  C   UNL     1      13.243   4.465  -3.180  0.00  0.00    +0.277 C 
ENDBRANCH  24   5
ENDBRANCH   8  22
ENDBRANCH  15  17
ENDBRANCH  11  15
BRANCH  14  16
ATOM     16  C   UNL     1       8.640   7.626   7.541  0.00  0.00    +0.140 C 
BRANCH  16   9
ATOM      6  O   UNL     1       8.895   9.756   5.610  0.00  0.00    -0.253 OA
ATOM      9  N   UNL     1       7.849   7.822   6.362  0.00  0.00    -0.297 N 
ATOM     10  N   UNL     1       7.133   8.836   4.415  0.00  0.00    -0.297 N 
ATOM     23  C   UNL     1       8.036   8.886   5.473  0.00  0.00    +0.300 C 
ATOM     35  H   UNL     1       7.119   7.147   6.156  0.00  0.00    +0.150 HD
ATOM     36  H   UNL     1       6.511   8.035   4.348  0.00  0.00    +0.150 HD
BRANCH  10  26
ATOM     26  C   UNL     1       7.111   9.817   3.355  0.00  0.00    +0.068 C 
ATOM     30  C   UNL     1       5.692  10.316   3.124  0.00  0.00    +0.027 C 
ATOM     31  C   UNL     1       7.708   9.239   2.079  0.00  0.00    +0.027 C 
ENDBRANCH  10  26
ENDBRANCH  16   9
ENDBRANCH  14  16
TORSDOF 9
ENDMDL
MODEL 10
REMARK VINA RESULT:      -6.2      2.689      5.028
REMARK  Name = 40778215
REMARK  12 active torsions:
REMARK  status: ('A' for Active; 'I' for Inactive)
REMARK    1  A    between atoms: O_2  and  C_12
REMARK    2  A    between atoms: O_3  and  C_13
REMARK    3  A    between atoms: O_5  and  C_24
REMARK    4  A    between atoms: O_5  and  C_32
REMARK    5  A    between atoms: N_8  and  C_22
REMARK    6  A    between atoms: N_9  and  C_16
REMARK    7  A    between atoms: N_10  and  C_26
REMARK    8  A    between atoms: C_11  and  C_15
REMARK    9  A    between atoms: C_14  and  C_16
REMARK   10  A    between atoms: C_15  and  C_17
REMARK   11  A    between atoms: C_26  and  C_30
REMARK   12  A    between atoms: C_26  and  C_31
REMARK                            x       y       z     vdW  Elec       q    Type
REMARK                         _______ _______ _______ _____ _____    ______ ____
ROOT
ATOM      1  O   UNL     1      -6.149 -10.923  17.358  0.00  0.00    -0.366 OA
ATOM     11  C   UNL     1      -7.363 -11.527  17.839  0.00  0.00    +0.159 C 
ATOM     12  C   UNL     1      -7.033 -12.071  19.219  0.00  0.00    +0.175 C 
ATOM     13  C   UNL     1      -6.066 -11.024  19.733  0.00  0.00    +0.176 C 
ATOM     14  C   UNL     1      -5.267 -10.686  18.480  0.00  0.00    +0.167 C 
ENDROOT
BRANCH  12   2
ATOM      2  O   UNL     1      -8.185 -12.210  20.022  0.00  0.00    -0.387 OA
ATOM     33  H   UNL     1      -7.990 -11.805  20.884  0.00  0.00    +0.210 HD
ENDBRANCH  12   2
BRANCH  13   3
ATOM      3  O   UNL     1      -6.773  -9.852  20.137  0.00  0.00    -0.387 OA
ATOM     34  H   UNL     1      -7.661  -9.899  19.748  0.00  0.00    +0.210 HD
ENDBRANCH  13   3
BRANCH  11  15
ATOM     15  C   UNL     1      -7.822 -12.598  16.864  0.00  0.00    +0.130 C 
BRANCH  15  17
ATOM      4  O   UNL     1      -9.708 -11.470  15.975  0.00  0.00    -0.276 OA
ATOM      7  N   UNL     1      -8.007 -11.987  14.480  0.00  0.00    -0.298 N 
ATOM      8  N   UNL     1      -6.501 -10.906  12.354  0.00  0.00    -0.324 N 
ATOM     17  C   UNL     1      -8.603 -11.966  15.739  0.00  0.00    +0.218 C 
ATOM     18  C   UNL     1      -6.701 -12.566  14.160  0.00  0.00    +0.126 C 
ATOM     19  C   UNL     1      -8.702 -11.421  13.328  0.00  0.00    +0.126 C 
ATOM     20  C   UNL     1      -5.802 -11.530  13.486  0.00  0.00    +0.124 C 
ATOM     21  C   UNL     1      -7.839 -10.365  12.642  0.00  0.00    +0.124 C 
BRANCH   8  22
ATOM     22  C   UNL     1      -5.760 -10.297  11.334  0.00  0.00    +0.072 A 
ATOM     24  C   UNL     1      -5.248 -11.053  10.279  0.00  0.00    +0.141 A 
ATOM     25  C   UNL     1      -5.534  -8.921  11.379  0.00  0.00    +0.027 A 
ATOM     27  C   UNL     1      -4.513 -10.433   9.270  0.00  0.00    +0.047 A 
ATOM     28  C   UNL     1      -4.799  -8.302  10.370  0.00  0.00    +0.002 A 
ATOM     29  C   UNL     1      -4.287  -9.057   9.315  0.00  0.00    +0.004 A 
BRANCH  24   5
ATOM      5  O   UNL     1      -5.456 -12.398  10.217  0.00  0.00    -0.493 OA
ATOM     32  C   UNL     1      -4.307 -13.223  10.037  0.00  0.00    +0.277 C 
ENDBRANCH  24   5
ENDBRANCH   8  22
ENDBRANCH  15  17
ENDBRANCH  11  15
BRANCH  14  16
ATOM     16  C   UNL     1      -4.038 -11.568  18.300  0.00  0.00    +0.140 C 
BRANCH  16   9
ATOM      6  O   UNL     1      -1.962 -10.712  16.487  0.00  0.00    -0.253 OA
ATOM      9  N   UNL     1      -3.874 -11.956  16.930  0.00  0.00    -0.297 N 
ATOM     10  N   UNL     1      -2.914 -12.029  14.832  0.00  0.00    -0.297 N 
ATOM     23  C   UNL     1      -2.835 -11.494  16.115  0.00  0.00    +0.300 C 
ATOM     35  H   UNL     1      -4.542 -12.609  16.534  0.00  0.00    +0.150 HD
ATOM     36  H   UNL     1      -3.628 -12.726  14.642  0.00  0.00    +0.150 HD
BRANCH  10  26
ATOM     26  C   UNL     1      -1.962 -11.715  13.792  0.00  0.00    +0.068 C 
ATOM     30  C   UNL     1      -2.372 -10.441  13.066  0.00  0.00    +0.027 C 
ATOM     31  C   UNL     1      -1.823 -12.882  12.824  0.00  0.00    +0.027 C 
ENDBRANCH  10  26
ENDBRANCH  16   9
ENDBRANCH  14  16
TORSDOF 9
ENDMDL
