MODEL 1
REMARK VINA RESULT:      -7.2      0.000      0.000
REMARK  Name = 11941650
REMARK  4 active torsions:
REMARK  status: ('A' for Active; 'I' for Inactive)
REMARK    1  A    between atoms: N_5  and  C_12
REMARK    2  A    between atoms: N_6  and  C_13
REMARK    3  A    between atoms: N_7  and  C_16
REMARK    4  A    between atoms: C_24  and  C_27
REMARK                            x       y       z     vdW  Elec       q    Type
REMARK                         _______ _______ _______ _____ _____    ______ ____
ROOT
ATOM      1  O   UNL     1      13.822  12.030  23.443  0.00  0.00    -0.370 OA
ATOM      2  O   UNL     1      10.830  12.899  23.616  0.00  0.00    -0.370 OA
ATOM     10  C   UNL     1      11.714  12.224  24.526  0.00  0.00    +0.171 C 
ATOM     11  C   UNL     1      12.603  11.314  23.701  0.00  0.00    +0.171 C 
ATOM     12  C   UNL     1      12.674  13.207  25.154  0.00  0.00    +0.131 C 
ATOM     13  C   UNL     1      11.833  11.109  22.419  0.00  0.00    +0.130 C 
ATOM     14  C   UNL     1      13.772  13.300  24.109  0.00  0.00    +0.185 C 
ATOM     15  C   UNL     1      11.054  12.405  22.286  0.00  0.00    +0.185 C 
ENDROOT
BRANCH  13   6
ATOM      6  N   UNL     1      10.926   9.991  22.558  0.00  0.00    -0.306 N 
ATOM      8  N   UNL     1      12.407   8.512  21.498  0.00  0.00    -0.211 NA
ATOM      9  N   UNL     1      10.267   7.754  22.304  0.00  0.00    -0.223 NA
ATOM     23  C   UNL     1      11.208   8.715  22.107  0.00  0.00    +0.216 A 
ATOM     24  C   UNL     1      12.650   7.257  21.070  0.00  0.00    +0.111 A 
ATOM     25  C   UNL     1      10.575   6.520  21.852  0.00  0.00    +0.116 A 
ATOM     26  C   UNL     1      11.762   6.210  21.221  0.00  0.00    +0.051 A 
ATOM     32  H   UNL     1      10.052  10.119  23.057  0.00  0.00    +0.149 HD
BRANCH  24  27
ATOM      4  O   UNL     1      13.965   7.410  19.115  0.00  0.00    -0.461 OA
ATOM     27  C   UNL     1      13.924   7.074  20.429  0.00  0.00    +0.153 A 
ATOM     28  C   UNL     1      15.150   6.623  20.855  0.00  0.00    +0.051 A 
ATOM     29  C   UNL     1      16.002   6.685  19.727  0.00  0.00    +0.042 A 
ATOM     30  C   UNL     1      15.234   7.170  18.693  0.00  0.00    +0.196 A 
ENDBRANCH  24  27
ENDBRANCH  13   6
BRANCH  12   5
ATOM      3  O   UNL     1      14.025  14.730  27.185  0.00  0.00    -0.253 OA
ATOM      5  N   UNL     1      13.186  12.711  26.408  0.00  0.00    -0.292 N 
ATOM      7  N   UNL     1      14.224  12.798  28.460  0.00  0.00    -0.297 N 
ATOM     19  C   UNL     1      13.831  13.524  27.338  0.00  0.00    +0.300 C 
ATOM     31  H   UNL     1      13.133  11.713  26.597  0.00  0.00    +0.151 HD
ATOM     33  H   UNL     1      14.078  11.794  28.450  0.00  0.00    +0.151 HD
BRANCH   7  16
ATOM     16  C   UNL     1      14.914  13.391  29.583  0.00  0.00    +0.074 C 
ATOM     17  C   UNL     1      13.950  13.659  30.743  0.00  0.00    +0.022 C 
ATOM     18  C   UNL     1      16.091  12.516  30.030  0.00  0.00    +0.022 C 
ATOM     20  C   UNL     1      13.497  12.375  31.437  0.00  0.00    +0.002 C 
ATOM     21  C   UNL     1      15.635  11.233  30.725  0.00  0.00    +0.002 C 
ATOM     22  C   UNL     1      14.685  11.527  31.882  0.00  0.00    +0.000 C 
ENDBRANCH   7  16
ENDBRANCH  12   5
TORSDOF 4
ENDMDL
MODEL 2
REMARK VINA RESULT:      -7.1     26.957     29.453
REMARK  Name = 11941650
REMARK  4 active torsions:
REMARK  status: ('A' for Active; 'I' for Inactive)
REMARK    1  A    between atoms: N_5  and  C_12
REMARK    2  A    between atoms: N_6  and  C_13
REMARK    3  A    between atoms: N_7  and  C_16
REMARK    4  A    between atoms: C_24  and  C_27
REMARK                            x       y       z     vdW  Elec       q    Type
REMARK                         _______ _______ _______ _____ _____    ______ ____
ROOT
ATOM      1  O   UNL     1     -17.101   4.948  25.452  0.00  0.00    -0.370 OA
ATOM      2  O   UNL     1     -16.301   2.158  24.307  0.00  0.00    -0.370 OA
ATOM     10  C   UNL     1     -15.724   3.015  25.306  0.00  0.00    +0.171 C 
ATOM     11  C   UNL     1     -15.905   4.444  24.835  0.00  0.00    +0.171 C 
ATOM     12  C   UNL     1     -16.524   2.945  26.586  0.00  0.00    +0.131 C 
ATOM     13  C   UNL     1     -16.098   4.320  23.342  0.00  0.00    +0.130 C 
ATOM     14  C   UNL     1     -17.637   3.946  26.328  0.00  0.00    +0.185 C 
ATOM     15  C   UNL     1     -16.754   2.958  23.204  0.00  0.00    +0.185 C 
ENDROOT
BRANCH  13   6
ATOM      6  N   UNL     1     -14.816   4.328  22.674  0.00  0.00    -0.306 N 
ATOM      8  N   UNL     1     -14.839   6.661  22.418  0.00  0.00    -0.211 NA
ATOM      9  N   UNL     1     -12.989   5.345  21.610  0.00  0.00    -0.223 NA
ATOM     23  C   UNL     1     -14.196   5.478  22.220  0.00  0.00    +0.216 A 
ATOM     24  C   UNL     1     -14.207   7.762  21.964  0.00  0.00    +0.111 A 
ATOM     25  C   UNL     1     -12.413   6.487  21.180  0.00  0.00    +0.116 A 
ATOM     26  C   UNL     1     -12.981   7.736  21.331  0.00  0.00    +0.051 A 
ATOM     32  H   UNL     1     -14.304   3.459  22.568  0.00  0.00    +0.149 HD
BRANCH  24  27
ATOM      4  O   UNL     1     -14.935   9.427  23.473  0.00  0.00    -0.461 OA
ATOM     27  C   UNL     1     -14.912   8.996  22.186  0.00  0.00    +0.153 A 
ATOM     28  C   UNL     1     -15.588   9.868  21.368  0.00  0.00    +0.051 A 
ATOM     29  C   UNL     1     -16.060  10.904  22.208  0.00  0.00    +0.042 A 
ATOM     30  C   UNL     1     -15.637  10.590  23.479  0.00  0.00    +0.196 A 
ENDBRANCH  24  27
ENDBRANCH  13   6
BRANCH  12   5
ATOM      3  O   UNL     1     -15.621   1.239  28.716  0.00  0.00    -0.253 OA
ATOM      5  N   UNL     1     -15.727   3.333  27.724  0.00  0.00    -0.292 N 
ATOM      7  N   UNL     1     -14.571   3.065  29.695  0.00  0.00    -0.297 N 
ATOM     19  C   UNL     1     -15.332   2.435  28.714  0.00  0.00    +0.300 C 
ATOM     31  H   UNL     1     -15.494   4.315  27.845  0.00  0.00    +0.151 HD
ATOM     33  H   UNL     1     -14.454   4.071  29.632  0.00  0.00    +0.151 HD
BRANCH   7  16
ATOM     16  C   UNL     1     -14.030   2.371  30.842  0.00  0.00    +0.074 C 
ATOM     17  C   UNL     1     -12.939   3.203  31.525  0.00  0.00    +0.022 C 
ATOM     18  C   UNL     1     -15.138   1.991  31.830  0.00  0.00    +0.022 C 
ATOM     20  C   UNL     1     -13.505   4.414  32.267  0.00  0.00    +0.002 C 
ATOM     21  C   UNL     1     -15.701   3.203  32.573  0.00  0.00    +0.002 C 
ATOM     22  C   UNL     1     -14.598   4.009  33.252  0.00  0.00    +0.000 C 
ENDBRANCH   7  16
ENDBRANCH  12   5
TORSDOF 4
ENDMDL
MODEL 3
REMARK VINA RESULT:      -6.8     28.193     32.824
REMARK  Name = 11941650
REMARK  4 active torsions:
REMARK  status: ('A' for Active; 'I' for Inactive)
REMARK    1  A    between atoms: N_5  and  C_12
REMARK    2  A    between atoms: N_6  and  C_13
REMARK    3  A    between atoms: N_7  and  C_16
REMARK    4  A    between atoms: C_24  and  C_27
REMARK                            x       y       z     vdW  Elec       q    Type
REMARK                         _______ _______ _______ _____ _____    ______ ____
ROOT
ATOM      1  O   UNL     1      -5.931 -11.711  10.054  0.00  0.00    -0.370 OA
ATOM      2  O   UNL     1      -4.417  -8.983  10.041  0.00  0.00    -0.370 OA
ATOM     10  C   UNL     1      -4.164 -10.253   9.418  0.00  0.00    +0.171 C 
ATOM     11  C   UNL     1      -4.589 -11.329  10.397  0.00  0.00    +0.171 C 
ATOM     12  C   UNL     1      -5.080 -10.450   8.233  0.00  0.00    +0.131 C 
ATOM     13  C   UNL     1      -4.567 -10.637  11.739  0.00  0.00    +0.130 C 
ATOM     14  C   UNL     1      -6.342 -10.988   8.885  0.00  0.00    +0.185 C 
ATOM     15  C   UNL     1      -4.894  -9.199  11.378  0.00  0.00    +0.185 C 
ENDROOT
BRANCH  13   6
ATOM      6  N   UNL     1      -3.245 -10.720  12.319  0.00  0.00    -0.306 N 
ATOM      8  N   UNL     1      -4.072 -10.554  14.509  0.00  0.00    -0.211 NA
ATOM      9  N   UNL     1      -1.709 -10.771  14.092  0.00  0.00    -0.223 NA
ATOM     23  C   UNL     1      -3.001 -10.681  13.680  0.00  0.00    +0.216 A 
ATOM     24  C   UNL     1      -3.799 -10.520  15.829  0.00  0.00    +0.111 A 
ATOM     25  C   UNL     1      -1.507 -10.730  15.425  0.00  0.00    +0.116 A 
ATOM     26  C   UNL     1      -2.524 -10.603  16.350  0.00  0.00    +0.051 A 
ATOM     32  H   UNL     1      -2.445 -10.868  11.714  0.00  0.00    +0.149 HD
BRANCH  24  27
ATOM      4  O   UNL     1      -5.996  -9.708  16.136  0.00  0.00    -0.461 OA
ATOM     27  C   UNL     1      -4.951 -10.384  16.679  0.00  0.00    +0.153 A 
ATOM     28  C   UNL     1      -5.247 -10.795  17.956  0.00  0.00    +0.051 A 
ATOM     29  C   UNL     1      -6.562 -10.341  18.217  0.00  0.00    +0.042 A 
ATOM     30  C   UNL     1      -6.973  -9.685  17.079  0.00  0.00    +0.196 A 
ENDBRANCH  24  27
ENDBRANCH  13   6
BRANCH  12   5
ATOM      3  O   UNL     1      -5.609 -10.591   5.410  0.00  0.00    -0.253 OA
ATOM      5  N   UNL     1      -4.530 -11.401   7.298  0.00  0.00    -0.292 N 
ATOM      7  N   UNL     1      -4.177 -12.413   5.262  0.00  0.00    -0.297 N 
ATOM     19  C   UNL     1      -4.842 -11.395   5.940  0.00  0.00    +0.300 C 
ATOM     31  H   UNL     1      -3.937 -12.147   7.652  0.00  0.00    +0.151 HD
ATOM     33  H   UNL     1      -3.624 -13.065   5.810  0.00  0.00    +0.151 HD
BRANCH   7  16
ATOM     16  C   UNL     1      -4.316 -12.640   3.842  0.00  0.00    +0.074 C 
ATOM     17  C   UNL     1      -2.972 -12.479   3.123  0.00  0.00    +0.022 C 
ATOM     18  C   UNL     1      -4.934 -14.015   3.562  0.00  0.00    +0.022 C 
ATOM     20  C   UNL     1      -2.008 -13.627   3.420  0.00  0.00    +0.002 C 
ATOM     21  C   UNL     1      -3.966 -15.162   3.857  0.00  0.00    +0.002 C 
ATOM     22  C   UNL     1      -2.641 -14.984   3.123  0.00  0.00    +0.000 C 
ENDBRANCH   7  16
ENDBRANCH  12   5
TORSDOF 4
ENDMDL
MODEL 4
REMARK VINA RESULT:      -6.5     14.553     20.847
REMARK  Name = 11941650
REMARK  4 active torsions:
REMARK  status: ('A' for Active; 'I' for Inactive)
REMARK    1  A    between atoms: N_5  and  C_12
REMARK    2  A    between atoms: N_6  and  C_13
REMARK    3  A    between atoms: N_7  and  C_16
REMARK    4  A    between atoms: C_24  and  C_27
REMARK                            x       y       z     vdW  Elec       q    Type
REMARK                         _______ _______ _______ _____ _____    ______ ____
ROOT
ATOM      1  O   UNL     1      11.980   7.545   7.305  0.00  0.00    -0.370 OA
ATOM      2  O   UNL     1       8.949   7.275   6.616  0.00  0.00    -0.370 OA
ATOM     10  C   UNL     1      10.130   7.442   5.814  0.00  0.00    +0.171 C 
ATOM     11  C   UNL     1      11.060   8.370   6.570  0.00  0.00    +0.171 C 
ATOM     12  C   UNL     1      10.897   6.143   5.727  0.00  0.00    +0.131 C 
ATOM     13  C   UNL     1      10.151   9.114   7.518  0.00  0.00    +0.130 C 
ATOM     14  C   UNL     1      11.722   6.167   7.002  0.00  0.00    +0.185 C 
ATOM     15  C   UNL     1       9.048   8.105   7.783  0.00  0.00    +0.185 C 
ENDROOT
BRANCH  13   6
ATOM      6  N   UNL     1       9.610  10.288   6.869  0.00  0.00    -0.306 N 
ATOM      8  N   UNL     1       9.375  11.441   8.898  0.00  0.00    -0.211 NA
ATOM      9  N   UNL     1       8.738  12.465   6.813  0.00  0.00    -0.223 NA
ATOM     23  C   UNL     1       9.230  11.432   7.546  0.00  0.00    +0.216 A 
ATOM     24  C   UNL     1       8.995  12.571   9.528  0.00  0.00    +0.111 A 
ATOM     25  C   UNL     1       8.378  13.566   7.505  0.00  0.00    +0.116 A 
ATOM     26  C   UNL     1       8.484  13.676   8.877  0.00  0.00    +0.051 A 
ATOM     32  H   UNL     1       9.547  10.312   5.856  0.00  0.00    +0.149 HD
BRANCH  24  27
ATOM      4  O   UNL     1      10.250  11.880  11.405  0.00  0.00    -0.461 OA
ATOM     27  C   UNL     1       9.158  12.550  10.957  0.00  0.00    +0.153 A 
ATOM     28  C   UNL     1       8.441  13.070  12.006  0.00  0.00    +0.051 A 
ATOM     29  C   UNL     1       9.137  12.694  13.179  0.00  0.00    +0.042 A 
ATOM     30  C   UNL     1      10.230  11.971  12.760  0.00  0.00    +0.196 A 
ENDBRANCH  24  27
ENDBRANCH  13   6
BRANCH  12   5
ATOM      3  O   UNL     1      10.659   4.365   3.480  0.00  0.00    -0.253 OA
ATOM      5  N   UNL     1      11.742   6.111   4.558  0.00  0.00    -0.292 N 
ATOM      7  N   UNL     1      12.502   5.393   2.509  0.00  0.00    -0.297 N 
ATOM     19  C   UNL     1      11.552   5.211   3.512  0.00  0.00    +0.300 C 
ATOM     31  H   UNL     1      12.549   6.728   4.522  0.00  0.00    +0.151 HD
ATOM     33  H   UNL     1      13.239   6.072   2.671  0.00  0.00    +0.151 HD
BRANCH   7  16
ATOM     16  C   UNL     1      12.542   4.595   1.304  0.00  0.00    +0.074 C 
ATOM     17  C   UNL     1      13.107   5.401   0.129  0.00  0.00    +0.022 C 
ATOM     18  C   UNL     1      13.338   3.303   1.525  0.00  0.00    +0.022 C 
ATOM     20  C   UNL     1      14.609   5.651   0.259  0.00  0.00    +0.002 C 
ATOM     21  C   UNL     1      14.840   3.557   1.652  0.00  0.00    +0.002 C 
ATOM     22  C   UNL     1      15.380   4.350   0.466  0.00  0.00    +0.000 C 
ENDBRANCH   7  16
ENDBRANCH  12   5
TORSDOF 4
ENDMDL
MODEL 5
REMARK VINA RESULT:      -6.5     28.923     30.890
REMARK  Name = 11941650
REMARK  4 active torsions:
REMARK  status: ('A' for Active; 'I' for Inactive)
REMARK    1  A    between atoms: N_5  and  C_12
REMARK    2  A    between atoms: N_6  and  C_13
REMARK    3  A    between atoms: N_7  and  C_16
REMARK    4  A    between atoms: C_24  and  C_27
REMARK                            x       y       z     vdW  Elec       q    Type
REMARK                         _______ _______ _______ _____ _____    ______ ____
ROOT
ATOM      1  O   UNL     1      -2.773 -12.924  12.855  0.00  0.00    -0.370 OA
ATOM      2  O   UNL     1      -1.833  -9.982  13.296  0.00  0.00    -0.370 OA
ATOM     10  C   UNL     1      -2.904 -10.766  13.847  0.00  0.00    +0.171 C 
ATOM     11  C   UNL     1      -3.432 -11.652  12.736  0.00  0.00    +0.171 C 
ATOM     12  C   UNL     1      -2.369 -11.741  14.871  0.00  0.00    +0.131 C 
ATOM     13  C   UNL     1      -2.999 -10.954  11.469  0.00  0.00    +0.130 C 
ATOM     14  C   UNL     1      -1.919 -12.906  14.007  0.00  0.00    +0.185 C 
ATOM     15  C   UNL     1      -1.717 -10.260  11.892  0.00  0.00    +0.185 C 
ENDROOT
BRANCH  13   6
ATOM      6  N   UNL     1      -3.991  -9.977  11.077  0.00  0.00    -0.306 N 
ATOM      8  N   UNL     1      -4.223 -10.907   8.935  0.00  0.00    -0.211 NA
ATOM      9  N   UNL     1      -5.514  -8.982   9.595  0.00  0.00    -0.223 NA
ATOM     23  C   UNL     1      -4.594  -9.955   9.832  0.00  0.00    +0.216 A 
ATOM     24  C   UNL     1      -4.830 -10.856   7.732  0.00  0.00    +0.111 A 
ATOM     25  C   UNL     1      -6.082  -8.989   8.371  0.00  0.00    +0.116 A 
ATOM     26  C   UNL     1      -5.776  -9.911   7.390  0.00  0.00    +0.051 A 
ATOM     32  H   UNL     1      -4.314  -9.296  11.755  0.00  0.00    +0.149 HD
BRANCH  24  27
ATOM      4  O   UNL     1      -4.447 -11.513   5.496  0.00  0.00    -0.461 OA
ATOM     27  C   UNL     1      -4.417 -11.874   6.804  0.00  0.00    +0.153 A 
ATOM     28  C   UNL     1      -3.984 -13.170   6.942  0.00  0.00    +0.051 A 
ATOM     29  C   UNL     1      -3.731 -13.639   5.630  0.00  0.00    +0.042 A 
ATOM     30  C   UNL     1      -4.029 -12.593   4.787  0.00  0.00    +0.196 A 
ENDBRANCH  24  27
ENDBRANCH  13   6
BRANCH  12   5
ATOM      3  O   UNL     1      -3.749 -10.058  16.751  0.00  0.00    -0.253 OA
ATOM      5  N   UNL     1      -3.399 -12.144  15.797  0.00  0.00    -0.292 N 
ATOM      7  N   UNL     1      -4.974 -11.901  17.457  0.00  0.00    -0.297 N 
ATOM     19  C   UNL     1      -4.017 -11.257  16.676  0.00  0.00    +0.300 C 
ATOM     31  H   UNL     1      -3.643 -13.129  15.858  0.00  0.00    +0.151 HD
ATOM     33  H   UNL     1      -5.063 -12.907  17.364  0.00  0.00    +0.151 HD
BRANCH   7  16
ATOM     16  C   UNL     1      -5.768 -11.220  18.455  0.00  0.00    +0.074 C 
ATOM     17  C   UNL     1      -6.759 -10.250  17.803  0.00  0.00    +0.022 C 
ATOM     18  C   UNL     1      -6.489 -12.224  19.362  0.00  0.00    +0.022 C 
ATOM     20  C   UNL     1      -7.902 -10.971  17.089  0.00  0.00    +0.002 C 
ATOM     21  C   UNL     1      -7.633 -12.942  18.647  0.00  0.00    +0.002 C 
ATOM     22  C   UNL     1      -8.611 -11.955  18.016  0.00  0.00    +0.000 C 
ENDBRANCH   7  16
ENDBRANCH  12   5
TORSDOF 4
ENDMDL
MODEL 6
REMARK VINA RESULT:      -6.4     29.139     32.264
REMARK  Name = 11941650
REMARK  4 active torsions:
REMARK  status: ('A' for Active; 'I' for Inactive)
REMARK    1  A    between atoms: N_5  and  C_12
REMARK    2  A    between atoms: N_6  and  C_13
REMARK    3  A    between atoms: N_7  and  C_16
REMARK    4  A    between atoms: C_24  and  C_27
REMARK                            x       y       z     vdW  Elec       q    Type
REMARK                         _______ _______ _______ _____ _____    ______ ____
ROOT
ATOM      1  O   UNL     1      -7.030 -10.013  17.022  0.00  0.00    -0.370 OA
ATOM      2  O   UNL     1      -4.924 -11.100  19.052  0.00  0.00    -0.370 OA
ATOM     10  C   UNL     1      -5.344 -11.527  17.745  0.00  0.00    +0.171 C 
ATOM     11  C   UNL     1      -6.839 -11.291  17.652  0.00  0.00    +0.171 C 
ATOM     12  C   UNL     1      -4.762 -10.621  16.684  0.00  0.00    +0.131 C 
ATOM     13  C   UNL     1      -7.295 -11.241  19.090  0.00  0.00    +0.130 C 
ATOM     14  C   UNL     1      -5.752  -9.471  16.660  0.00  0.00    +0.185 C 
ATOM     15  C   UNL     1      -6.075 -10.694  19.808  0.00  0.00    +0.185 C 
ENDROOT
BRANCH  13   6
ATOM      6  N   UNL     1      -7.598 -12.574  19.561  0.00  0.00    -0.306 N 
ATOM      8  N   UNL     1      -9.824 -12.016  20.053  0.00  0.00    -0.211 NA
ATOM      9  N   UNL     1      -8.991 -14.243  20.444  0.00  0.00    -0.223 NA
ATOM     23  C   UNL     1      -8.841 -12.956  20.033  0.00  0.00    +0.216 A 
ATOM     24  C   UNL     1     -11.023 -12.422  20.518  0.00  0.00    +0.111 A 
ATOM     25  C   UNL     1     -10.216 -14.582  20.898  0.00  0.00    +0.116 A 
ATOM     26  C   UNL     1     -11.279 -13.704  20.959  0.00  0.00    +0.051 A 
ATOM     32  H   UNL     1      -6.888 -13.296  19.502  0.00  0.00    +0.149 HD
BRANCH  24  27
ATOM      4  O   UNL     1     -13.267 -11.819  20.939  0.00  0.00    -0.461 OA
ATOM     27  C   UNL     1     -12.041 -11.406  20.528  0.00  0.00    +0.153 A 
ATOM     28  C   UNL     1     -12.059 -10.071  20.207  0.00  0.00    +0.051 A 
ATOM     29  C   UNL     1     -13.385  -9.633  20.435  0.00  0.00    +0.042 A 
ATOM     30  C   UNL     1     -14.081 -10.733  20.879  0.00  0.00    +0.196 A 
ENDBRANCH  24  27
ENDBRANCH  13   6
BRANCH  12   5
ATOM      3  O   UNL     1      -2.469 -10.835  14.962  0.00  0.00    -0.253 OA
ATOM      5  N   UNL     1      -4.702 -11.286  15.405  0.00  0.00    -0.292 N 
ATOM      7  N   UNL     1      -3.754 -12.041  13.449  0.00  0.00    -0.297 N 
ATOM     19  C   UNL     1      -3.542 -11.341  14.634  0.00  0.00    +0.300 C 
ATOM     31  H   UNL     1      -5.556 -11.678  15.017  0.00  0.00    +0.151 HD
ATOM     33  H   UNL     1      -4.698 -12.354  13.245  0.00  0.00    +0.151 HD
BRANCH   7  16
ATOM     16  C   UNL     1      -2.722 -12.252  12.459  0.00  0.00    +0.074 C 
ATOM     17  C   UNL     1      -3.072 -13.427  11.540  0.00  0.00    +0.022 C 
ATOM     18  C   UNL     1      -2.461 -10.974  11.654  0.00  0.00    +0.022 C 
ATOM     20  C   UNL     1      -4.212 -13.097  10.577  0.00  0.00    +0.002 C 
ATOM     21  C   UNL     1      -3.603 -10.648  10.690  0.00  0.00    +0.002 C 
ATOM     22  C   UNL     1      -3.925 -11.828   9.779  0.00  0.00    +0.000 C 
ENDBRANCH   7  16
ENDBRANCH  12   5
TORSDOF 4
ENDMDL
MODEL 7
REMARK VINA RESULT:      -6.4     26.081     29.034
REMARK  Name = 11941650
REMARK  4 active torsions:
REMARK  status: ('A' for Active; 'I' for Inactive)
REMARK    1  A    between atoms: N_5  and  C_12
REMARK    2  A    between atoms: N_6  and  C_13
REMARK    3  A    between atoms: N_7  and  C_16
REMARK    4  A    between atoms: C_24  and  C_27
REMARK                            x       y       z     vdW  Elec       q    Type
REMARK                         _______ _______ _______ _____ _____    ______ ____
ROOT
ATOM      1  O   UNL     1     -16.329   6.760  23.804  0.00  0.00    -0.370 OA
ATOM      2  O   UNL     1     -15.554   4.357  21.971  0.00  0.00    -0.370 OA
ATOM     10  C   UNL     1     -15.189   4.732  23.309  0.00  0.00    +0.171 C 
ATOM     11  C   UNL     1     -15.071   6.243  23.338  0.00  0.00    +0.171 C 
ATOM     12  C   UNL     1     -16.319   4.433  24.267  0.00  0.00    +0.131 C 
ATOM     13  C   UNL     1     -14.851   6.624  21.893  0.00  0.00    +0.130 C 
ATOM     14  C   UNL     1     -17.197   5.664  24.128  0.00  0.00    +0.185 C 
ATOM     15  C   UNL     1     -15.589   5.530  21.144  0.00  0.00    +0.185 C 
ENDROOT
BRANCH  13   6
ATOM      6  N   UNL     1     -13.440   6.583  21.579  0.00  0.00    -0.306 N 
ATOM      8  N   UNL     1     -13.565   8.513  20.250  0.00  0.00    -0.211 NA
ATOM      9  N   UNL     1     -11.474   7.357  20.560  0.00  0.00    -0.223 NA
ATOM     23  C   UNL     1     -12.807   7.512  20.773  0.00  0.00    +0.216 A 
ATOM     24  C   UNL     1     -12.917   9.401  19.469  0.00  0.00    +0.111 A 
ATOM     25  C   UNL     1     -10.888   8.280  19.769  0.00  0.00    +0.116 A 
ATOM     26  C   UNL     1     -11.566   9.334  19.190  0.00  0.00    +0.051 A 
ATOM     32  H   UNL     1     -12.856   5.872  22.006  0.00  0.00    +0.149 HD
BRANCH  24  27
ATOM      4  O   UNL     1     -13.308  10.986  17.763  0.00  0.00    -0.461 OA
ATOM     27  C   UNL     1     -13.744  10.446  18.930  0.00  0.00    +0.153 A 
ATOM     28  C   UNL     1     -14.912  11.043  19.336  0.00  0.00    +0.051 A 
ATOM     29  C   UNL     1     -15.215  12.016  18.355  0.00  0.00    +0.042 A 
ATOM     30  C   UNL     1     -14.209  11.943  17.419  0.00  0.00    +0.196 A 
ENDBRANCH  24  27
ENDBRANCH  13   6
BRANCH  12   5
ATOM      3  O   UNL     1     -16.821   2.229  26.044  0.00  0.00    -0.253 OA
ATOM      5  N   UNL     1     -15.835   4.286  25.618  0.00  0.00    -0.292 N 
ATOM      7  N   UNL     1     -15.538   3.284  27.668  0.00  0.00    -0.297 N 
ATOM     19  C   UNL     1     -16.128   3.178  26.411  0.00  0.00    +0.300 C 
ATOM     31  H   UNL     1     -15.309   5.049  26.034  0.00  0.00    +0.151 HD
ATOM     33  H   UNL     1     -15.047   4.144  27.890  0.00  0.00    +0.151 HD
BRANCH   7  16
ATOM     16  C   UNL     1     -15.677   2.276  28.694  0.00  0.00    +0.074 C 
ATOM     17  C   UNL     1     -14.508   2.331  29.683  0.00  0.00    +0.022 C 
ATOM     18  C   UNL     1     -17.023   2.408  29.417  0.00  0.00    +0.022 C 
ATOM     20  C   UNL     1     -14.569   3.559  30.593  0.00  0.00    +0.002 C 
ATOM     21  C   UNL     1     -17.080   3.634  30.328  0.00  0.00    +0.002 C 
ATOM     22  C   UNL     1     -15.912   3.661  31.309  0.00  0.00    +0.000 C 
ENDBRANCH   7  16
ENDBRANCH  12   5
TORSDOF 4
ENDMDL
MODEL 8
REMARK VINA RESULT:      -6.3      8.381     11.698
REMARK  Name = 11941650
REMARK  4 active torsions:
REMARK  status: ('A' for Active; 'I' for Inactive)
REMARK    1  A    between atoms: N_5  and  C_12
REMARK    2  A    between atoms: N_6  and  C_13
REMARK    3  A    between atoms: N_7  and  C_16
REMARK    4  A    between atoms: C_24  and  C_27
REMARK                            x       y       z     vdW  Elec       q    Type
REMARK                         _______ _______ _______ _____ _____    ______ ____
ROOT
ATOM      1  O   UNL     1      21.247   6.166  24.557  0.00  0.00    -0.370 OA
ATOM      2  O   UNL     1      22.797   8.118  22.680  0.00  0.00    -0.370 OA
ATOM     10  C   UNL     1      21.560   7.400  22.547  0.00  0.00    +0.171 C 
ATOM     11  C   UNL     1      21.747   6.051  23.214  0.00  0.00    +0.171 C 
ATOM     12  C   UNL     1      20.474   8.065  23.362  0.00  0.00    +0.131 C 
ATOM     13  C   UNL     1      23.244   5.850  23.227  0.00  0.00    +0.130 C 
ATOM     14  C   UNL     1      20.701   7.480  24.745  0.00  0.00    +0.185 C 
ATOM     15  C   UNL     1      23.770   7.272  23.311  0.00  0.00    +0.185 C 
ENDROOT
BRANCH  13   6
ATOM      6  N   UNL     1      23.672   5.230  21.993  0.00  0.00    -0.306 N 
ATOM      8  N   UNL     1      23.704   3.088  22.950  0.00  0.00    -0.211 NA
ATOM      9  N   UNL     1      24.296   3.419  20.639  0.00  0.00    -0.223 NA
ATOM     23  C   UNL     1      23.897   3.872  21.856  0.00  0.00    +0.216 A 
ATOM     24  C   UNL     1      23.932   1.769  22.782  0.00  0.00    +0.111 A 
ATOM     25  C   UNL     1      24.506   2.089  20.540  0.00  0.00    +0.116 A 
ATOM     26  C   UNL     1      24.339   1.208  21.589  0.00  0.00    +0.051 A 
ATOM     32  H   UNL     1      23.768   5.797  21.158  0.00  0.00    +0.149 HD
BRANCH  24  27
ATOM      4  O   UNL     1      22.560   1.202  24.619  0.00  0.00    -0.461 OA
ATOM     27  C   UNL     1      23.721   0.966  23.957  0.00  0.00    +0.153 A 
ATOM     28  C   UNL     1      24.447  -0.017  24.582  0.00  0.00    +0.051 A 
ATOM     29  C   UNL     1      23.682  -0.413  25.705  0.00  0.00    +0.042 A 
ATOM     30  C   UNL     1      22.543   0.359  25.683  0.00  0.00    +0.196 A 
ENDBRANCH  24  27
ENDBRANCH  13   6
BRANCH  12   5
ATOM      3  O   UNL     1      18.949   9.530  21.415  0.00  0.00    -0.253 OA
ATOM      5  N   UNL     1      19.164   7.729  22.861  0.00  0.00    -0.292 N 
ATOM      7  N   UNL     1      17.252   7.956  21.601  0.00  0.00    -0.297 N 
ATOM     19  C   UNL     1      18.495   8.500  21.912  0.00  0.00    +0.300 C 
ATOM     31  H   UNL     1      18.678   6.931  23.261  0.00  0.00    +0.151 HD
ATOM     33  H   UNL     1      16.946   7.142  22.125  0.00  0.00    +0.151 HD
BRANCH   7  16
ATOM     16  C   UNL     1      16.345   8.550  20.646  0.00  0.00    +0.074 C 
ATOM     17  C   UNL     1      15.846   7.509  19.638  0.00  0.00    +0.022 C 
ATOM     18  C   UNL     1      15.175   9.243  21.354  0.00  0.00    +0.022 C 
ATOM     20  C   UNL     1      14.865   6.515  20.260  0.00  0.00    +0.002 C 
ATOM     21  C   UNL     1      14.194   8.246  21.973  0.00  0.00    +0.002 C 
ATOM     22  C   UNL     1      13.704   7.228  20.949  0.00  0.00    +0.000 C 
ENDBRANCH   7  16
ENDBRANCH  12   5
TORSDOF 4
ENDMDL
MODEL 9
REMARK VINA RESULT:      -6.3     29.261     31.851
REMARK  Name = 11941650
REMARK  4 active torsions:
REMARK  status: ('A' for Active; 'I' for Inactive)
REMARK    1  A    between atoms: N_5  and  C_12
REMARK    2  A    between atoms: N_6  and  C_13
REMARK    3  A    between atoms: N_7  and  C_16
REMARK    4  A    between atoms: C_24  and  C_27
REMARK                            x       y       z     vdW  Elec       q    Type
REMARK                         _______ _______ _______ _____ _____    ______ ____
ROOT
ATOM      1  O   UNL     1      -3.443 -11.919  10.849  0.00  0.00    -0.370 OA
ATOM      2  O   UNL     1      -4.105  -8.878  10.614  0.00  0.00    -0.370 OA
ATOM     10  C   UNL     1      -4.654  -9.948  11.402  0.00  0.00    +0.171 C 
ATOM     11  C   UNL     1      -4.645 -11.194  10.539  0.00  0.00    +0.171 C 
ATOM     12  C   UNL     1      -3.729 -10.287  12.548  0.00  0.00    +0.131 C 
ATOM     13  C   UNL     1      -4.589 -10.665   9.126  0.00  0.00    +0.130 C 
ATOM     14  C   UNL     1      -2.738 -11.235  11.895  0.00  0.00    +0.185 C 
ATOM     15  C   UNL     1      -3.833  -9.359   9.289  0.00  0.00    +0.185 C 
ENDROOT
BRANCH  13   6
ATOM      6  N   UNL     1      -5.926 -10.413   8.637  0.00  0.00    -0.306 N 
ATOM      8  N   UNL     1      -5.408 -11.189   6.485  0.00  0.00    -0.211 NA
ATOM      9  N   UNL     1      -7.618 -10.389   7.012  0.00  0.00    -0.223 NA
ATOM     23  C   UNL     1      -6.329 -10.671   7.340  0.00  0.00    +0.216 A 
ATOM     24  C   UNL     1      -5.834 -11.430   5.228  0.00  0.00    +0.111 A 
ATOM     25  C   UNL     1      -7.978 -10.654   5.738  0.00  0.00    +0.116 A 
ATOM     26  C   UNL     1      -7.120 -11.179   4.794  0.00  0.00    +0.051 A 
ATOM     32  H   UNL     1      -6.636 -10.076   9.280  0.00  0.00    +0.149 HD
BRANCH  24  27
ATOM      4  O   UNL     1      -5.296 -12.392   3.140  0.00  0.00    -0.461 OA
ATOM     27  C   UNL     1      -4.837 -11.976   4.347  0.00  0.00    +0.153 A 
ATOM     28  C   UNL     1      -3.482 -12.179   4.450  0.00  0.00    +0.051 A 
ATOM     29  C   UNL     1      -3.081 -12.760   3.223  0.00  0.00    +0.042 A 
ATOM     30  C   UNL     1      -4.221 -12.869   2.460  0.00  0.00    +0.196 A 
ENDBRANCH  24  27
ENDBRANCH  13   6
BRANCH  12   5
ATOM      3  O   UNL     1      -2.898 -10.480  15.294  0.00  0.00    -0.253 OA
ATOM      5  N   UNL     1      -4.442 -10.934  13.622  0.00  0.00    -0.292 N 
ATOM      7  N   UNL     1      -4.841 -11.660  15.769  0.00  0.00    -0.297 N 
ATOM     19  C   UNL     1      -3.962 -10.979  14.930  0.00  0.00    +0.300 C 
ATOM     31  H   UNL     1      -5.300 -11.434  13.407  0.00  0.00    +0.151 HD
ATOM     33  H   UNL     1      -5.656 -12.095  15.349  0.00  0.00    +0.151 HD
BRANCH   7  16
ATOM     16  C   UNL     1      -4.594 -11.858  17.179  0.00  0.00    +0.074 C 
ATOM     17  C   UNL     1      -5.147 -10.690  18.004  0.00  0.00    +0.022 C 
ATOM     18  C   UNL     1      -5.170 -13.196  17.656  0.00  0.00    +0.022 C 
ATOM     20  C   UNL     1      -6.674 -10.685  18.062  0.00  0.00    +0.002 C 
ATOM     21  C   UNL     1      -6.698 -13.188  17.716  0.00  0.00    +0.002 C 
ATOM     22  C   UNL     1      -7.222 -12.023  18.550  0.00  0.00    +0.000 C 
ENDBRANCH   7  16
ENDBRANCH  12   5
TORSDOF 4
ENDMDL
MODEL 10
REMARK VINA RESULT:      -6.3     28.943     31.699
REMARK  Name = 11941650
REMARK  4 active torsions:
REMARK  status: ('A' for Active; 'I' for Inactive)
REMARK    1  A    between atoms: N_5  and  C_12
REMARK    2  A    between atoms: N_6  and  C_13
REMARK    3  A    between atoms: N_7  and  C_16
REMARK    4  A    between atoms: C_24  and  C_27
REMARK                            x       y       z     vdW  Elec       q    Type
REMARK                         _______ _______ _______ _____ _____    ______ ____
ROOT
ATOM      1  O   UNL     1      -5.905  -9.676  16.839  0.00  0.00    -0.370 OA
ATOM      2  O   UNL     1      -5.427 -11.604  19.244  0.00  0.00    -0.370 OA
ATOM     10  C   UNL     1      -5.625 -11.816  17.837  0.00  0.00    +0.171 C 
ATOM     11  C   UNL     1      -6.640 -10.793  17.365  0.00  0.00    +0.171 C 
ATOM     12  C   UNL     1      -4.370 -11.470  17.070  0.00  0.00    +0.131 C 
ATOM     13  C   UNL     1      -7.373 -10.393  18.623  0.00  0.00    +0.130 C 
ATOM     14  C   UNL     1      -4.501  -9.968  16.893  0.00  0.00    +0.185 C 
ATOM     15  C   UNL     1      -6.315 -10.571  19.697  0.00  0.00    +0.185 C 
ENDROOT
BRANCH  13   6
ATOM      6  N   UNL     1      -8.481 -11.291  18.858  0.00  0.00    -0.306 N 
ATOM      8  N   UNL     1     -10.031  -9.807  17.909  0.00  0.00    -0.211 NA
ATOM      9  N   UNL     1     -10.735 -11.939  18.783  0.00  0.00    -0.223 NA
ATOM     23  C   UNL     1      -9.788 -11.004  18.506  0.00  0.00    +0.216 A 
ATOM     24  C   UNL     1     -11.315  -9.559  17.578  0.00  0.00    +0.111 A 
ATOM     25  C   UNL     1     -11.999 -11.627  18.426  0.00  0.00    +0.116 A 
ATOM     26  C   UNL     1     -12.351 -10.441  17.815  0.00  0.00    +0.051 A 
ATOM     32  H   UNL     1      -8.304 -12.208  19.255  0.00  0.00    +0.149 HD
BRANCH  24  27
ATOM      4  O   UNL     1     -10.498  -7.419  17.004  0.00  0.00    -0.461 OA
ATOM     27  C   UNL     1     -11.541  -8.286  16.949  0.00  0.00    +0.153 A 
ATOM     28  C   UNL     1     -12.604  -7.727  16.284  0.00  0.00    +0.051 A 
ATOM     29  C   UNL     1     -12.188  -6.429  15.904  0.00  0.00    +0.042 A 
ATOM     30  C   UNL     1     -10.900  -6.290  16.366  0.00  0.00    +0.196 A 
ENDBRANCH  24  27
ENDBRANCH  13   6
BRANCH  12   5
ATOM      3  O   UNL     1      -2.189 -11.491  15.197  0.00  0.00    -0.253 OA
ATOM      5  N   UNL     1      -4.332 -12.145  15.795  0.00  0.00    -0.292 N 
ATOM      7  N   UNL     1      -3.451 -12.836  13.785  0.00  0.00    -0.297 N 
ATOM     19  C   UNL     1      -3.227 -12.101  14.947  0.00  0.00    +0.300 C 
ATOM     31  H   UNL     1      -5.169 -12.622  15.470  0.00  0.00    +0.151 HD
ATOM     33  H   UNL     1      -4.372 -13.240  13.650  0.00  0.00    +0.151 HD
BRANCH   7  16
ATOM     16  C   UNL     1      -2.472 -12.962  12.730  0.00  0.00    +0.074 C 
ATOM     17  C   UNL     1      -2.833 -14.108  11.778  0.00  0.00    +0.022 C 
ATOM     18  C   UNL     1      -2.306 -11.641  11.971  0.00  0.00    +0.022 C 
ATOM     20  C   UNL     1      -4.040 -13.780  10.899  0.00  0.00    +0.002 C 
ATOM     21  C   UNL     1      -3.514 -11.317  11.091  0.00  0.00    +0.002 C 
ATOM     22  C   UNL     1      -3.847 -12.467  10.146  0.00  0.00    +0.000 C 
ENDBRANCH   7  16
ENDBRANCH  12   5
TORSDOF 4
ENDMDL
