MODEL 1
REMARK VINA RESULT:      -6.2      0.000      0.000
REMARK  Name = 7134270
REMARK  10 active torsions:
REMARK  status: ('A' for Active; 'I' for Inactive)
REMARK    1  A    between atoms: N_9  and  C_15
REMARK    2  A    between atoms: N_10  and  C_22
REMARK    3  A    between atoms: C_16  and  C_20
REMARK    4  A    between atoms: C_21  and  C_24
REMARK    5  A    between atoms: C_22  and  C_25
REMARK    6  A    between atoms: C_22  and  C_27
REMARK    7  A    between atoms: C_23  and  C_26
REMARK    8  A    between atoms: C_25  and  C_29
REMARK    9  A    between atoms: C_30  and  C_33
REMARK   10  A    between atoms: C_31  and  C_34
REMARK                            x       y       z     vdW  Elec       q    Type
REMARK                         _______ _______ _______ _____ _____    ______ ____
ROOT
ATOM      5  O   UNL     1      -6.792 -10.301  14.557  0.00  0.00    -0.268 OA
ATOM      8  N   UNL     1      -6.717 -11.291  16.655  0.00  0.00    -0.285 N 
ATOM     15  C   UNL     1      -7.850 -12.737  18.933  0.00  0.00    +0.077 C 
ATOM     16  C   UNL     1      -8.168 -11.509  16.717  0.00  0.00    +0.164 C 
ATOM     17  C   UNL     1      -8.578 -12.696  17.587  0.00  0.00    +0.054 C 
ATOM     18  C   UNL     1      -6.343 -12.642  18.712  0.00  0.00    +0.041 C 
ATOM     19  C   UNL     1      -5.976 -11.389  17.925  0.00  0.00    +0.111 C 
ATOM     21  C   UNL     1      -6.143 -10.881  15.429  0.00  0.00    +0.266 C 
ENDROOT
BRANCH  21  24
ATOM      1  S   UNL     1      -2.554 -12.227  14.469  0.00  0.00    -0.080 S 
ATOM     11  N   UNL     1      -3.766 -10.348  15.768  0.00  0.00    -0.240 NA
ATOM     24  C   UNL     1      -4.729 -11.168  15.217  0.00  0.00    +0.133 A 
ATOM     28  C   UNL     1      -4.268 -12.237  14.480  0.00  0.00    +0.080 A 
ATOM     31  C   UNL     1      -2.580 -10.811  15.438  0.00  0.00    +0.076 A 
ATOM     34  C   UNL     1      -1.299 -10.195  15.847  0.00  0.00    +0.073 C 
ENDBRANCH  21  24
BRANCH  16  20
ATOM      4  O   UNL     1      -8.154  -9.159  17.144  0.00  0.00    -0.274 OA
ATOM     10  N   UNL     1     -10.051 -10.393  17.693  0.00  0.00    -0.302 N 
ATOM     20  C   UNL     1      -8.772 -10.220  17.193  0.00  0.00    +0.234 C 
ATOM     38  H   UNL     1     -10.476 -11.315  17.675  0.00  0.00    +0.150 HD
BRANCH  10  22
ATOM     22  C   UNL     1     -10.841  -9.311  18.235  0.00  0.00    +0.163 C 
BRANCH  22  27
ATOM      7  O   UNL     1     -12.401  -9.660  20.065  0.00  0.00    -0.274 OA
ATOM     12  N   UNL     1     -10.194 -10.211  20.383  0.00  0.00    -0.328 N 
ATOM     27  C   UNL     1     -11.249  -9.719  19.643  0.00  0.00    +0.231 C 
ATOM     39  H   UNL     1      -9.248 -10.265  20.018  0.00  0.00    +0.145 HD
ATOM     40  H   UNL     1     -10.332 -10.533  21.335  0.00  0.00    +0.145 HD
ENDBRANCH  22  27
BRANCH  22  25
ATOM     25  C   UNL     1     -12.081  -9.014  17.383  0.00  0.00    +0.074 C 
BRANCH  25  29
ATOM      3  S   UNL     1     -12.872  -7.702  15.088  0.00  0.00    -0.102 S 
ATOM     29  C   UNL     1     -11.870  -7.845  16.450  0.00  0.00    -0.008 A 
ATOM     32  C   UNL     1     -10.947  -6.855  16.562  0.00  0.00    +0.011 A 
ATOM     35  C   UNL     1     -11.057  -5.929  15.485  0.00  0.00    +0.008 A 
ATOM     36  C   UNL     1     -12.064  -6.270  14.610  0.00  0.00    +0.045 A 
ENDBRANCH  25  29
ENDBRANCH  22  25
ENDBRANCH  10  22
ENDBRANCH  16  20
BRANCH  15   9
ATOM      6  O   UNL     1      -9.951 -13.041  20.867  0.00  0.00    -0.270 OA
ATOM      9  N   UNL     1      -8.187 -13.940  19.659  0.00  0.00    -0.308 N 
ATOM     23  C   UNL     1      -9.225 -13.989  20.578  0.00  0.00    +0.254 C 
ATOM     37  H   UNL     1      -7.666 -14.788  19.456  0.00  0.00    +0.149 HD
BRANCH  23  26
ATOM      2  S   UNL     1      -8.762 -15.533  22.790  0.00  0.00    +0.041 S 
ATOM     13  N   UNL     1     -10.057 -17.421  21.773  0.00  0.00    -0.146 NA
ATOM     14  N   UNL     1      -9.375 -17.090  22.857  0.00  0.00    -0.110 NA
ATOM     26  C   UNL     1      -9.426 -15.292  21.261  0.00  0.00    +0.117 A 
ATOM     30  C   UNL     1     -10.086 -16.384  20.855  0.00  0.00    +0.081 A 
ATOM     33  C   UNL     1     -10.810 -16.596  19.585  0.00  0.00    +0.069 C 
ENDBRANCH  23  26
ENDBRANCH  15   9
TORSDOF 8
ENDMDL
MODEL 2
REMARK VINA RESULT:      -6.2      2.608      6.818
REMARK  Name = 7134270
REMARK  10 active torsions:
REMARK  status: ('A' for Active; 'I' for Inactive)
REMARK    1  A    between atoms: N_9  and  C_15
REMARK    2  A    between atoms: N_10  and  C_22
REMARK    3  A    between atoms: C_16  and  C_20
REMARK    4  A    between atoms: C_21  and  C_24
REMARK    5  A    between atoms: C_22  and  C_25
REMARK    6  A    between atoms: C_22  and  C_27
REMARK    7  A    between atoms: C_23  and  C_26
REMARK    8  A    between atoms: C_25  and  C_29
REMARK    9  A    between atoms: C_30  and  C_33
REMARK   10  A    between atoms: C_31  and  C_34
REMARK                            x       y       z     vdW  Elec       q    Type
REMARK                         _______ _______ _______ _____ _____    ______ ____
ROOT
ATOM      5  O   UNL     1      -8.805  -8.582  16.349  0.00  0.00    -0.268 OA
ATOM      8  N   UNL     1      -9.947 -10.270  17.460  0.00  0.00    -0.285 N 
ATOM     15  C   UNL     1     -10.437 -12.098  19.692  0.00  0.00    +0.077 C 
ATOM     16  C   UNL     1      -8.940 -10.392  18.523  0.00  0.00    +0.164 C 
ATOM     17  C   UNL     1      -9.501 -10.897  19.851  0.00  0.00    +0.054 C 
ATOM     18  C   UNL     1     -11.517 -11.783  18.660  0.00  0.00    +0.041 C 
ATOM     19  C   UNL     1     -10.906 -11.381  17.323  0.00  0.00    +0.111 C 
ATOM     21  C   UNL     1      -9.862  -9.178  16.565  0.00  0.00    +0.266 C 
ENDROOT
BRANCH  21  24
ATOM      1  S   UNL     1     -12.865  -8.350  14.134  0.00  0.00    -0.080 S 
ATOM     11  N   UNL     1     -12.082  -8.120  16.588  0.00  0.00    -0.240 NA
ATOM     24  C   UNL     1     -11.085  -8.765  15.886  0.00  0.00    +0.133 A 
ATOM     28  C   UNL     1     -11.324  -8.979  14.547  0.00  0.00    +0.080 A 
ATOM     31  C   UNL     1     -13.072  -7.853  15.764  0.00  0.00    +0.076 A 
ATOM     34  C   UNL     1     -14.321  -7.164  16.153  0.00  0.00    +0.073 C 
ENDBRANCH  21  24
BRANCH  16  20
ATOM      4  O   UNL     1      -8.058 -12.478  17.764  0.00  0.00    -0.274 OA
ATOM     10  N   UNL     1      -6.664 -10.613  17.805  0.00  0.00    -0.302 N 
ATOM     20  C   UNL     1      -7.861 -11.286  17.985  0.00  0.00    +0.234 C 
ATOM     38  H   UNL     1      -6.612  -9.619  18.006  0.00  0.00    +0.150 HD
BRANCH  10  22
ATOM     22  C   UNL     1      -5.464 -11.253  17.319  0.00  0.00    +0.163 C 
BRANCH  22  27
ATOM      7  O   UNL     1      -4.540 -11.743  19.513  0.00  0.00    -0.274 OA
ATOM     12  N   UNL     1      -5.064 -13.497  18.125  0.00  0.00    -0.328 N 
ATOM     27  C   UNL     1      -4.957 -12.157  18.434  0.00  0.00    +0.231 C 
ATOM     39  H   UNL     1      -5.422 -13.826  17.234  0.00  0.00    +0.145 HD
ATOM     40  H   UNL     1      -4.775 -14.208  18.788  0.00  0.00    +0.145 HD
ENDBRANCH  22  27
BRANCH  22  25
ATOM     25  C   UNL     1      -4.385 -10.239  16.921  0.00  0.00    +0.074 C 
BRANCH  25  29
ATOM      3  S   UNL     1      -3.789 -11.981  14.866  0.00  0.00    -0.102 S 
ATOM     29  C   UNL     1      -3.320 -10.849  16.041  0.00  0.00    -0.008 A 
ATOM     32  C   UNL     1      -1.985 -10.604  16.068  0.00  0.00    +0.011 A 
ATOM     35  C   UNL     1      -1.303 -11.374  15.082  0.00  0.00    +0.008 A 
ATOM     36  C   UNL     1      -2.165 -12.167  14.357  0.00  0.00    +0.045 A 
ENDBRANCH  25  29
ENDBRANCH  22  25
ENDBRANCH  10  22
ENDBRANCH  16  20
BRANCH  15   9
ATOM      6  O   UNL     1     -11.189 -14.733  20.552  0.00  0.00    -0.270 OA
ATOM      9  N   UNL     1     -11.028 -12.456  20.960  0.00  0.00    -0.308 N 
ATOM     23  C   UNL     1     -11.358 -13.763  21.286  0.00  0.00    +0.254 C 
ATOM     37  H   UNL     1     -11.169 -11.724  21.650  0.00  0.00    +0.149 HD
BRANCH  23  26
ATOM      2  S   UNL     1     -11.205 -14.927  23.759  0.00  0.00    +0.041 S 
ATOM     13  N   UNL     1     -13.390 -13.887  24.410  0.00  0.00    -0.146 NA
ATOM     14  N   UNL     1     -12.429 -14.671  24.873  0.00  0.00    -0.110 NA
ATOM     26  C   UNL     1     -11.983 -13.962  22.619  0.00  0.00    +0.117 A 
ATOM     30  C   UNL     1     -13.131 -13.480  23.112  0.00  0.00    +0.081 A 
ATOM     33  C   UNL     1     -14.113 -12.598  22.448  0.00  0.00    +0.069 C 
ENDBRANCH  23  26
ENDBRANCH  15   9
TORSDOF 8
ENDMDL
MODEL 3
REMARK VINA RESULT:      -6.2      4.781      8.973
REMARK  Name = 7134270
REMARK  10 active torsions:
REMARK  status: ('A' for Active; 'I' for Inactive)
REMARK    1  A    between atoms: N_9  and  C_15
REMARK    2  A    between atoms: N_10  and  C_22
REMARK    3  A    between atoms: C_16  and  C_20
REMARK    4  A    between atoms: C_21  and  C_24
REMARK    5  A    between atoms: C_22  and  C_25
REMARK    6  A    between atoms: C_22  and  C_27
REMARK    7  A    between atoms: C_23  and  C_26
REMARK    8  A    between atoms: C_25  and  C_29
REMARK    9  A    between atoms: C_30  and  C_33
REMARK   10  A    between atoms: C_31  and  C_34
REMARK                            x       y       z     vdW  Elec       q    Type
REMARK                         _______ _______ _______ _____ _____    ______ ____
ROOT
ATOM      5  O   UNL     1      -4.529 -10.653  15.682  0.00  0.00    -0.268 OA
ATOM      8  N   UNL     1      -5.449 -10.941  13.570  0.00  0.00    -0.285 N 
ATOM     15  C   UNL     1      -6.944 -10.085  11.205  0.00  0.00    +0.077 C 
ATOM     16  C   UNL     1      -6.192  -9.674  13.610  0.00  0.00    +0.164 C 
ATOM     17  C   UNL     1      -6.448  -9.065  12.232  0.00  0.00    +0.054 C 
ATOM     18  C   UNL     1      -6.003 -11.287  11.169  0.00  0.00    +0.041 C 
ATOM     19  C   UNL     1      -5.859 -11.920  12.548  0.00  0.00    +0.111 C 
ATOM     21  C   UNL     1      -4.489 -11.197  14.576  0.00  0.00    +0.266 C 
ENDROOT
BRANCH  21  24
ATOM      1  S   UNL     1      -1.277 -13.192  13.426  0.00  0.00    -0.080 S 
ATOM     11  N   UNL     1      -3.535 -13.463  14.656  0.00  0.00    -0.240 NA
ATOM     24  C   UNL     1      -3.424 -12.144  14.267  0.00  0.00    +0.133 A 
ATOM     28  C   UNL     1      -2.273 -11.806  13.590  0.00  0.00    +0.080 A 
ATOM     31  C   UNL     1      -2.459 -14.111  14.265  0.00  0.00    +0.076 A 
ATOM     34  C   UNL     1      -2.218 -15.550  14.502  0.00  0.00    +0.073 C 
ENDBRANCH  21  24
BRANCH  16  20
ATOM      4  O   UNL     1      -8.407 -10.540  13.830  0.00  0.00    -0.274 OA
ATOM     10  N   UNL     1      -7.436  -9.451  15.645  0.00  0.00    -0.302 N 
ATOM     20  C   UNL     1      -7.465  -9.951  14.355  0.00  0.00    +0.234 C 
ATOM     38  H   UNL     1      -6.598  -8.989  15.986  0.00  0.00    +0.150 HD
BRANCH  10  22
ATOM     22  C   UNL     1      -8.547  -9.566  16.562  0.00  0.00    +0.163 C 
BRANCH  22  27
ATOM      7  O   UNL     1      -9.887  -7.985  15.293  0.00  0.00    -0.274 OA
ATOM     12  N   UNL     1      -9.650  -7.658  17.554  0.00  0.00    -0.328 N 
ATOM     27  C   UNL     1      -9.412  -8.329  16.372  0.00  0.00    +0.231 C 
ATOM     39  H   UNL     1      -9.260  -7.958  18.441  0.00  0.00    +0.145 HD
ATOM     40  H   UNL     1     -10.225  -6.822  17.570  0.00  0.00    +0.145 HD
ENDBRANCH  22  27
BRANCH  22  25
ATOM     25  C   UNL     1      -8.088  -9.679  18.020  0.00  0.00    +0.074 C 
BRANCH  25  29
ATOM      3  S   UNL     1      -7.344 -12.290  17.526  0.00  0.00    -0.102 S 
ATOM     29  C   UNL     1      -7.056 -10.766  18.214  0.00  0.00    -0.008 A 
ATOM     32  C   UNL     1      -5.884 -10.680  18.894  0.00  0.00    +0.011 A 
ATOM     35  C   UNL     1      -5.179 -11.917  18.856  0.00  0.00    +0.008 A 
ATOM     36  C   UNL     1      -5.860 -12.879  18.144  0.00  0.00    +0.045 A 
ENDBRANCH  25  29
ENDBRANCH  22  25
ENDBRANCH  10  22
ENDBRANCH  16  20
BRANCH  15   9
ATOM      6  O   UNL     1      -9.334  -9.064   9.984  0.00  0.00    -0.270 OA
ATOM      9  N   UNL     1      -7.055  -9.481   9.897  0.00  0.00    -0.308 N 
ATOM     23  C   UNL     1      -8.260  -9.015   9.392  0.00  0.00    +0.254 C 
ATOM     37  H   UNL     1      -6.208  -9.361   9.349  0.00  0.00    +0.149 HD
BRANCH  23  26
ATOM      2  S   UNL     1      -7.732  -9.424   6.738  0.00  0.00    +0.041 S 
ATOM     13  N   UNL     1      -8.335  -7.047   6.226  0.00  0.00    -0.146 NA
ATOM     14  N   UNL     1      -7.924  -8.165   5.650  0.00  0.00    -0.110 NA
ATOM     26  C   UNL     1      -8.211  -8.445   8.021  0.00  0.00    +0.117 A 
ATOM     30  C   UNL     1      -8.500  -7.210   7.591  0.00  0.00    +0.081 A 
ATOM     33  C   UNL     1      -8.956  -6.049   8.383  0.00  0.00    +0.069 C 
ENDBRANCH  23  26
ENDBRANCH  15   9
TORSDOF 8
ENDMDL
MODEL 4
REMARK VINA RESULT:      -6.0     28.403     31.770
REMARK  Name = 7134270
REMARK  10 active torsions:
REMARK  status: ('A' for Active; 'I' for Inactive)
REMARK    1  A    between atoms: N_9  and  C_15
REMARK    2  A    between atoms: N_10  and  C_22
REMARK    3  A    between atoms: C_16  and  C_20
REMARK    4  A    between atoms: C_21  and  C_24
REMARK    5  A    between atoms: C_22  and  C_25
REMARK    6  A    between atoms: C_22  and  C_27
REMARK    7  A    between atoms: C_23  and  C_26
REMARK    8  A    between atoms: C_25  and  C_29
REMARK    9  A    between atoms: C_30  and  C_33
REMARK   10  A    between atoms: C_31  and  C_34
REMARK                            x       y       z     vdW  Elec       q    Type
REMARK                         _______ _______ _______ _____ _____    ______ ____
ROOT
ATOM      5  O   UNL     1      15.050  10.406   6.486  0.00  0.00    -0.268 OA
ATOM      8  N   UNL     1      14.691   8.531   5.166  0.00  0.00    -0.285 N 
ATOM     15  C   UNL     1      13.070   6.727   3.529  0.00  0.00    +0.077 C 
ATOM     16  C   UNL     1      13.234   8.706   5.134  0.00  0.00    +0.164 C 
ATOM     17  C   UNL     1      12.570   8.129   3.885  0.00  0.00    +0.054 C 
ATOM     18  C   UNL     1      14.595   6.721   3.460  0.00  0.00    +0.041 C 
ATOM     19  C   UNL     1      15.211   7.211   4.766  0.00  0.00    +0.111 C 
ATOM     21  C   UNL     1      15.490   9.574   5.691  0.00  0.00    +0.266 C 
ENDROOT
BRANCH  21  24
ATOM      1  S   UNL     1      18.996  10.130   3.955  0.00  0.00    -0.080 S 
ATOM     11  N   UNL     1      17.871   9.052   6.019  0.00  0.00    -0.240 NA
ATOM     24  C   UNL     1      16.882   9.641   5.260  0.00  0.00    +0.133 A 
ATOM     28  C   UNL     1      17.294  10.272   4.108  0.00  0.00    +0.080 A 
ATOM     31  C   UNL     1      19.029   9.247   5.426  0.00  0.00    +0.076 A 
ATOM     34  C   UNL     1      20.326   8.759   5.944  0.00  0.00    +0.073 C 
ENDBRANCH  21  24
BRANCH  16  20
ATOM      4  O   UNL     1      13.448   7.745   7.310  0.00  0.00    -0.274 OA
ATOM     10  N   UNL     1      11.326   7.954   6.374  0.00  0.00    -0.302 N 
ATOM     20  C   UNL     1      12.703   8.091   6.396  0.00  0.00    +0.234 C 
ATOM     38  H   UNL     1      10.801   8.286   5.570  0.00  0.00    +0.150 HD
BRANCH  10  22
ATOM     22  C   UNL     1      10.573   7.368   7.459  0.00  0.00    +0.163 C 
BRANCH  22  27
ATOM      7  O   UNL     1      10.656   5.075   8.259  0.00  0.00    -0.274 OA
ATOM     12  N   UNL     1      10.759   5.453   5.996  0.00  0.00    -0.328 N 
ATOM     27  C   UNL     1      10.681   5.857   7.313  0.00  0.00    +0.231 C 
ATOM     39  H   UNL     1      10.767   6.109   5.222  0.00  0.00    +0.145 HD
ATOM     40  H   UNL     1      10.820   4.469   5.757  0.00  0.00    +0.145 HD
ENDBRANCH  22  27
BRANCH  22  25
ATOM     25  C   UNL     1       9.103   7.803   7.447  0.00  0.00    +0.074 C 
BRANCH  25  29
ATOM      3  S   UNL     1       8.752   9.968   5.772  0.00  0.00    -0.102 S 
ATOM     29  C   UNL     1       8.664   8.303   6.090  0.00  0.00    -0.008 A 
ATOM     32  C   UNL     1       8.188   7.568   5.053  0.00  0.00    +0.011 A 
ATOM     35  C   UNL     1       7.878   8.398   3.937  0.00  0.00    +0.008 A 
ATOM     36  C   UNL     1       8.137   9.726   4.192  0.00  0.00    +0.045 A 
ENDBRANCH  25  29
ENDBRANCH  22  25
ENDBRANCH  10  22
ENDBRANCH  16  20
BRANCH  15   9
ATOM      6  O   UNL     1      11.352   4.460   3.140  0.00  0.00    -0.270 OA
ATOM      9  N   UNL     1      12.498   6.282   2.280  0.00  0.00    -0.308 N 
ATOM     23  C   UNL     1      11.675   5.170   2.191  0.00  0.00    +0.254 C 
ATOM     37  H   UNL     1      12.678   6.832   1.445  0.00  0.00    +0.149 HD
BRANCH  23  26
ATOM      2  S   UNL     1       9.762   5.518   0.265  0.00  0.00    +0.041 S 
ATOM     13  N   UNL     1      10.975   3.943  -1.259  0.00  0.00    -0.146 NA
ATOM     14  N   UNL     1       9.896   4.707  -1.193  0.00  0.00    -0.110 NA
ATOM     26  C   UNL     1      11.190   4.827   0.830  0.00  0.00    +0.117 A 
ATOM     30  C   UNL     1      11.719   4.014  -0.094  0.00  0.00    +0.081 A 
ATOM     33  C   UNL     1      12.959   3.216  -0.007  0.00  0.00    +0.069 C 
ENDBRANCH  23  26
ENDBRANCH  15   9
TORSDOF 8
ENDMDL
MODEL 5
REMARK VINA RESULT:      -5.9      9.387     13.035
REMARK  Name = 7134270
REMARK  10 active torsions:
REMARK  status: ('A' for Active; 'I' for Inactive)
REMARK    1  A    between atoms: N_9  and  C_15
REMARK    2  A    between atoms: N_10  and  C_22
REMARK    3  A    between atoms: C_16  and  C_20
REMARK    4  A    between atoms: C_21  and  C_24
REMARK    5  A    between atoms: C_22  and  C_25
REMARK    6  A    between atoms: C_22  and  C_27
REMARK    7  A    between atoms: C_23  and  C_26
REMARK    8  A    between atoms: C_25  and  C_29
REMARK    9  A    between atoms: C_30  and  C_33
REMARK   10  A    between atoms: C_31  and  C_34
REMARK                            x       y       z     vdW  Elec       q    Type
REMARK                         _______ _______ _______ _____ _____    ______ ____
ROOT
ATOM      5  O   UNL     1      -7.065  -8.022   5.188  0.00  0.00    -0.268 OA
ATOM      8  N   UNL     1      -8.978  -7.690   6.459  0.00  0.00    -0.285 N 
ATOM     15  C   UNL     1     -10.474  -6.672   8.758  0.00  0.00    +0.077 C 
ATOM     16  C   UNL     1      -8.245  -7.131   7.602  0.00  0.00    +0.164 C 
ATOM     17  C   UNL     1      -9.066  -6.159   8.447  0.00  0.00    +0.054 C 
ATOM     18  C   UNL     1     -11.173  -7.089   7.467  0.00  0.00    +0.041 C 
ATOM     19  C   UNL     1     -10.361  -8.133   6.710  0.00  0.00    +0.111 C 
ATOM     21  C   UNL     1      -8.289  -7.887   5.240  0.00  0.00    +0.266 C 
ENDROOT
BRANCH  21  24
ATOM      1  S   UNL     1     -10.330  -8.719   1.960  0.00  0.00    -0.080 S 
ATOM     11  N   UNL     1      -9.567  -6.761   3.466  0.00  0.00    -0.240 NA
ATOM     24  C   UNL     1      -9.081  -7.928   4.016  0.00  0.00    +0.133 A 
ATOM     28  C   UNL     1      -9.389  -9.090   3.344  0.00  0.00    +0.080 A 
ATOM     31  C   UNL     1     -10.243  -7.056   2.377  0.00  0.00    +0.076 A 
ATOM     34  C   UNL     1     -10.914  -6.061   1.513  0.00  0.00    +0.073 C 
ENDBRANCH  21  24
BRANCH  16  20
ATOM      4  O   UNL     1      -8.491  -8.943   9.139  0.00  0.00    -0.274 OA
ATOM     10  N   UNL     1      -6.395  -8.524   8.218  0.00  0.00    -0.302 N 
ATOM     20  C   UNL     1      -7.748  -8.300   8.402  0.00  0.00    +0.234 C 
ATOM     38  H   UNL     1      -5.872  -7.939   7.572  0.00  0.00    +0.150 HD
BRANCH  10  22
ATOM     22  C   UNL     1      -5.669  -9.576   8.892  0.00  0.00    +0.163 C 
BRANCH  22  27
ATOM      7  O   UNL     1      -5.232  -8.348  10.943  0.00  0.00    -0.274 OA
ATOM     12  N   UNL     1      -3.446  -9.051   9.682  0.00  0.00    -0.328 N 
ATOM     27  C   UNL     1      -4.793  -8.911   9.943  0.00  0.00    +0.231 C 
ATOM     39  H   UNL     1      -3.095  -9.528   8.858  0.00  0.00    +0.145 HD
ATOM     40  H   UNL     1      -2.751  -8.665  10.313  0.00  0.00    +0.145 HD
ENDBRANCH  22  27
BRANCH  22  25
ATOM     25  C   UNL     1      -4.811 -10.401   7.925  0.00  0.00    +0.074 C 
BRANCH  25  29
ATOM      3  S   UNL     1      -7.001 -11.966   7.318  0.00  0.00    -0.102 S 
ATOM     29  C   UNL     1      -5.637 -11.070   6.852  0.00  0.00    -0.008 A 
ATOM     32  C   UNL     1      -5.423 -11.049   5.511  0.00  0.00    +0.011 A 
ATOM     35  C   UNL     1      -6.419 -11.799   4.823  0.00  0.00    +0.008 A 
ATOM     36  C   UNL     1      -7.340 -12.352   5.685  0.00  0.00    +0.045 A 
ENDBRANCH  25  29
ENDBRANCH  22  25
ENDBRANCH  10  22
ENDBRANCH  16  20
BRANCH  15   9
ATOM      6  O   UNL     1     -12.277  -7.103  10.952  0.00  0.00    -0.270 OA
ATOM      9  N   UNL     1     -11.242  -5.666   9.455  0.00  0.00    -0.308 N 
ATOM     23  C   UNL     1     -12.090  -5.973  10.509  0.00  0.00    +0.254 C 
ATOM     37  H   UNL     1     -11.122  -4.694   9.184  0.00  0.00    +0.149 HD
BRANCH  23  26
ATOM      2  S   UNL     1     -13.816  -3.885  10.116  0.00  0.00    +0.041 S 
ATOM     13  N   UNL     1     -13.671  -3.277  12.542  0.00  0.00    -0.146 NA
ATOM     14  N   UNL     1     -14.245  -2.910  11.408  0.00  0.00    -0.110 NA
ATOM     26  C   UNL     1     -12.829  -4.830  11.102  0.00  0.00    +0.117 A 
ATOM     30  C   UNL     1     -12.856  -4.383  12.364  0.00  0.00    +0.081 A 
ATOM     33  C   UNL     1     -12.140  -4.919  13.539  0.00  0.00    +0.069 C 
ENDBRANCH  23  26
ENDBRANCH  15   9
TORSDOF 8
ENDMDL
MODEL 6
REMARK VINA RESULT:      -5.8      7.468     11.462
REMARK  Name = 7134270
REMARK  10 active torsions:
REMARK  status: ('A' for Active; 'I' for Inactive)
REMARK    1  A    between atoms: N_9  and  C_15
REMARK    2  A    between atoms: N_10  and  C_22
REMARK    3  A    between atoms: C_16  and  C_20
REMARK    4  A    between atoms: C_21  and  C_24
REMARK    5  A    between atoms: C_22  and  C_25
REMARK    6  A    between atoms: C_22  and  C_27
REMARK    7  A    between atoms: C_23  and  C_26
REMARK    8  A    between atoms: C_25  and  C_29
REMARK    9  A    between atoms: C_30  and  C_33
REMARK   10  A    between atoms: C_31  and  C_34
REMARK                            x       y       z     vdW  Elec       q    Type
REMARK                         _______ _______ _______ _____ _____    ______ ____
ROOT
ATOM      5  O   UNL     1      -5.666  -8.428  11.818  0.00  0.00    -0.268 OA
ATOM      8  N   UNL     1      -5.434 -10.267  10.421  0.00  0.00    -0.285 N 
ATOM     15  C   UNL     1      -4.978 -11.586   7.849  0.00  0.00    +0.077 C 
ATOM     16  C   UNL     1      -5.422  -9.461   9.193  0.00  0.00    +0.164 C 
ATOM     17  C   UNL     1      -4.652 -10.103   8.040  0.00  0.00    +0.054 C 
ATOM     18  C   UNL     1      -4.816 -12.330   9.173  0.00  0.00    +0.041 C 
ATOM     19  C   UNL     1      -5.681 -11.711  10.265  0.00  0.00    +0.111 C 
ATOM     21  C   UNL     1      -5.339  -9.607  11.668  0.00  0.00    +0.266 C 
ENDROOT
BRANCH  21  24
ATOM      1  S   UNL     1      -4.672 -11.745  14.924  0.00  0.00    -0.080 S 
ATOM     11  N   UNL     1      -3.478 -10.579  12.948  0.00  0.00    -0.240 NA
ATOM     24  C   UNL     1      -4.834 -10.374  12.801  0.00  0.00    +0.133 A 
ATOM     28  C   UNL     1      -5.641 -10.927  13.770  0.00  0.00    +0.080 A 
ATOM     31  C   UNL     1      -3.275 -11.291  14.035  0.00  0.00    +0.076 A 
ATOM     34  C   UNL     1      -1.944 -11.712  14.523  0.00  0.00    +0.073 C 
ENDBRANCH  21  24
BRANCH  16  20
ATOM      4  O   UNL     1      -7.756  -9.969   9.174  0.00  0.00    -0.274 OA
ATOM     10  N   UNL     1      -7.014  -8.039   8.104  0.00  0.00    -0.302 N 
ATOM     20  C   UNL     1      -6.857  -9.200   8.841  0.00  0.00    +0.234 C 
ATOM     38  H   UNL     1      -6.203  -7.465   7.893  0.00  0.00    +0.150 HD
BRANCH  10  22
ATOM     22  C   UNL     1      -8.295  -7.576   7.622  0.00  0.00    +0.163 C 
BRANCH  22  27
ATOM      7  O   UNL     1      -9.408  -8.270   5.577  0.00  0.00    -0.274 OA
ATOM     12  N   UNL     1      -7.162  -7.797   5.498  0.00  0.00    -0.328 N 
ATOM     27  C   UNL     1      -8.372  -7.936   6.146  0.00  0.00    +0.231 C 
ATOM     39  H   UNL     1      -6.315  -7.509   5.978  0.00  0.00    +0.145 HD
ATOM     40  H   UNL     1      -7.078  -7.992   4.506  0.00  0.00    +0.145 HD
ENDBRANCH  22  27
BRANCH  22  25
ATOM     25  C   UNL     1      -8.477  -6.065   7.815  0.00  0.00    +0.074 C 
BRANCH  25  29
ATOM      3  S   UNL     1     -10.689  -7.009   9.168  0.00  0.00    -0.102 S 
ATOM     29  C   UNL     1      -9.722  -5.733   8.602  0.00  0.00    -0.008 A 
ATOM     32  C   UNL     1     -10.190  -4.501   8.928  0.00  0.00    +0.011 A 
ATOM     35  C   UNL     1     -11.397  -4.594   9.678  0.00  0.00    +0.008 A 
ATOM     36  C   UNL     1     -11.782  -5.900   9.881  0.00  0.00    +0.045 A 
ENDBRANCH  25  29
ENDBRANCH  22  25
ENDBRANCH  10  22
ENDBRANCH  16  20
BRANCH  15   9
ATOM      6  O   UNL     1      -5.827 -13.258   5.674  0.00  0.00    -0.270 OA
ATOM      9  N   UNL     1      -4.137 -12.167   6.828  0.00  0.00    -0.308 N 
ATOM     23  C   UNL     1      -4.642 -12.965   5.812  0.00  0.00    +0.254 C 
ATOM     37  H   UNL     1      -3.146 -11.947   6.838  0.00  0.00    +0.149 HD
BRANCH  23  26
ATOM      2  S   UNL     1      -3.135 -12.555   3.565  0.00  0.00    +0.041 S 
ATOM     13  N   UNL     1      -2.151 -14.850   3.776  0.00  0.00    -0.146 NA
ATOM     14  N   UNL     1      -2.115 -13.766   3.017  0.00  0.00    -0.110 NA
ATOM     26  C   UNL     1      -3.643 -13.508   4.857  0.00  0.00    +0.117 A 
ATOM     30  C   UNL     1      -3.032 -14.700   4.835  0.00  0.00    +0.081 A 
ATOM     33  C   UNL     1      -3.188 -15.826   5.778  0.00  0.00    +0.069 C 
ENDBRANCH  23  26
ENDBRANCH  15   9
TORSDOF 8
ENDMDL
MODEL 7
REMARK VINA RESULT:      -5.8      8.803     13.588
REMARK  Name = 7134270
REMARK  10 active torsions:
REMARK  status: ('A' for Active; 'I' for Inactive)
REMARK    1  A    between atoms: N_9  and  C_15
REMARK    2  A    between atoms: N_10  and  C_22
REMARK    3  A    between atoms: C_16  and  C_20
REMARK    4  A    between atoms: C_21  and  C_24
REMARK    5  A    between atoms: C_22  and  C_25
REMARK    6  A    between atoms: C_22  and  C_27
REMARK    7  A    between atoms: C_23  and  C_26
REMARK    8  A    between atoms: C_25  and  C_29
REMARK    9  A    between atoms: C_30  and  C_33
REMARK   10  A    between atoms: C_31  and  C_34
REMARK                            x       y       z     vdW  Elec       q    Type
REMARK                         _______ _______ _______ _____ _____    ______ ____
ROOT
ATOM      5  O   UNL     1     -13.818  -3.133  13.129  0.00  0.00    -0.268 OA
ATOM      8  N   UNL     1     -13.267  -4.668  11.476  0.00  0.00    -0.285 N 
ATOM     15  C   UNL     1     -12.314  -5.465   8.827  0.00  0.00    +0.077 C 
ATOM     16  C   UNL     1     -13.077  -3.642  10.443  0.00  0.00    +0.164 C 
ATOM     17  C   UNL     1     -12.091  -4.043   9.348  0.00  0.00    +0.054 C 
ATOM     18  C   UNL     1     -12.352  -6.447   9.996  0.00  0.00    +0.041 C 
ATOM     19  C   UNL     1     -13.420  -6.058  11.012  0.00  0.00    +0.111 C 
ATOM     21  C   UNL     1     -13.419  -4.259  12.822  0.00  0.00    +0.266 C 
ENDROOT
BRANCH  21  24
ATOM      1  S   UNL     1     -13.230  -7.007  15.655  0.00  0.00    -0.080 S 
ATOM     11  N   UNL     1     -11.774  -5.388  14.260  0.00  0.00    -0.240 NA
ATOM     24  C   UNL     1     -13.085  -5.224  13.863  0.00  0.00    +0.133 A 
ATOM     28  C   UNL     1     -14.017  -6.011  14.502  0.00  0.00    +0.080 A 
ATOM     31  C   UNL     1     -11.731  -6.305  15.202  0.00  0.00    +0.076 A 
ATOM     34  C   UNL     1     -10.494  -6.753  15.877  0.00  0.00    +0.073 C 
ENDBRANCH  21  24
BRANCH  16  20
ATOM      4  O   UNL     1     -15.452  -3.876  10.332  0.00  0.00    -0.274 OA
ATOM     10  N   UNL     1     -14.394  -2.409   8.866  0.00  0.00    -0.302 N 
ATOM     20  C   UNL     1     -14.440  -3.332   9.896  0.00  0.00    +0.234 C 
ATOM     38  H   UNL     1     -13.502  -2.008   8.590  0.00  0.00    +0.150 HD
BRANCH  10  22
ATOM     22  C   UNL     1     -15.568  -1.959   8.155  0.00  0.00    +0.163 C 
BRANCH  22  27
ATOM      7  O   UNL     1     -16.082  -3.821   6.680  0.00  0.00    -0.274 OA
ATOM     12  N   UNL     1     -15.068  -1.963   5.790  0.00  0.00    -0.328 N 
ATOM     27  C   UNL     1     -15.598  -2.702   6.827  0.00  0.00    +0.231 C 
ATOM     39  H   UNL     1     -14.681  -1.034   5.922  0.00  0.00    +0.145 HD
ATOM     40  H   UNL     1     -15.039  -2.336   4.847  0.00  0.00    +0.145 HD
ENDBRANCH  22  27
BRANCH  22  25
ATOM     25  C   UNL     1     -15.561  -0.444   7.920  0.00  0.00    +0.074 C 
BRANCH  25  29
ATOM      3  S   UNL     1     -17.080  -0.412  10.223  0.00  0.00    -0.102 S 
ATOM     29  C   UNL     1     -16.003   0.328   9.141  0.00  0.00    -0.008 A 
ATOM     32  C   UNL     1     -15.638   1.586   9.499  0.00  0.00    +0.011 A 
ATOM     35  C   UNL     1     -16.266   1.972  10.718  0.00  0.00    +0.008 A 
ATOM     36  C   UNL     1     -17.077   0.979  11.220  0.00  0.00    +0.045 A 
ENDBRANCH  25  29
ENDBRANCH  22  25
ENDBRANCH  10  22
ENDBRANCH  16  20
BRANCH  15   9
ATOM      6  O   UNL     1     -12.442  -7.572   6.881  0.00  0.00    -0.270 OA
ATOM      9  N   UNL     1     -11.284  -5.831   7.883  0.00  0.00    -0.308 N 
ATOM     23  C   UNL     1     -11.439  -6.869   6.976  0.00  0.00    +0.254 C 
ATOM     37  H   UNL     1     -10.433  -5.277   7.860  0.00  0.00    +0.149 HD
BRANCH  23  26
ATOM      2  S   UNL     1      -8.776  -7.470   6.778  0.00  0.00    +0.041 S 
ATOM     13  N   UNL     1      -8.933  -7.452   4.278  0.00  0.00    -0.146 NA
ATOM     14  N   UNL     1      -8.074  -7.637   5.267  0.00  0.00    -0.110 NA
ATOM     26  C   UNL     1     -10.277  -7.137   6.091  0.00  0.00    +0.117 A 
ATOM     30  C   UNL     1     -10.201  -7.164   4.754  0.00  0.00    +0.081 A 
ATOM     33  C   UNL     1     -11.279  -6.929   3.772  0.00  0.00    +0.069 C 
ENDBRANCH  23  26
ENDBRANCH  15   9
TORSDOF 8
ENDMDL
MODEL 8
REMARK VINA RESULT:      -5.7     29.248     33.101
REMARK  Name = 7134270
REMARK  10 active torsions:
REMARK  status: ('A' for Active; 'I' for Inactive)
REMARK    1  A    between atoms: N_9  and  C_15
REMARK    2  A    between atoms: N_10  and  C_22
REMARK    3  A    between atoms: C_16  and  C_20
REMARK    4  A    between atoms: C_21  and  C_24
REMARK    5  A    between atoms: C_22  and  C_25
REMARK    6  A    between atoms: C_22  and  C_27
REMARK    7  A    between atoms: C_23  and  C_26
REMARK    8  A    between atoms: C_25  and  C_29
REMARK    9  A    between atoms: C_30  and  C_33
REMARK   10  A    between atoms: C_31  and  C_34
REMARK                            x       y       z     vdW  Elec       q    Type
REMARK                         _______ _______ _______ _____ _____    ______ ____
ROOT
ATOM      5  O   UNL     1      10.919   3.818   1.347  0.00  0.00    -0.268 OA
ATOM      8  N   UNL     1      12.639   5.225   0.676  0.00  0.00    -0.285 N 
ATOM     15  C   UNL     1      15.147   6.686   1.042  0.00  0.00    +0.077 C 
ATOM     16  C   UNL     1      13.234   5.304   2.017  0.00  0.00    +0.164 C 
ATOM     17  C   UNL     1      14.738   5.572   2.009  0.00  0.00    +0.054 C 
ATOM     18  C   UNL     1      14.577   6.406  -0.346  0.00  0.00    +0.041 C 
ATOM     19  C   UNL     1      13.062   6.245  -0.300  0.00  0.00    +0.111 C 
ATOM     21  C   UNL     1      11.618   4.274   0.441  0.00  0.00    +0.266 C 
ENDROOT
BRANCH  21  24
ATOM      1  S   UNL     1      11.668   2.715  -3.190  0.00  0.00    -0.080 S 
ATOM     11  N   UNL     1      10.307   4.274  -1.640  0.00  0.00    -0.240 NA
ATOM     24  C   UNL     1      11.408   3.836  -0.934  0.00  0.00    +0.133 A 
ATOM     28  C   UNL     1      12.260   2.987  -1.604  0.00  0.00    +0.080 A 
ATOM     31  C   UNL     1      10.340   3.746  -2.844  0.00  0.00    +0.076 A 
ATOM     34  C   UNL     1       9.323   3.986  -3.891  0.00  0.00    +0.073 C 
ENDBRANCH  21  24
BRANCH  16  20
ATOM      4  O   UNL     1      12.491   7.539   2.410  0.00  0.00    -0.274 OA
ATOM     10  N   UNL     1      11.796   5.850   3.854  0.00  0.00    -0.302 N 
ATOM     20  C   UNL     1      12.472   6.361   2.759  0.00  0.00    +0.234 C 
ATOM     38  H   UNL     1      11.836   4.854   4.048  0.00  0.00    +0.150 HD
BRANCH  10  22
ATOM     22  C   UNL     1      11.006   6.666   4.747  0.00  0.00    +0.163 C 
BRANCH  22  27
ATOM      7  O   UNL     1      10.743   6.007   7.071  0.00  0.00    -0.274 OA
ATOM     12  N   UNL     1      12.849   6.506   6.302  0.00  0.00    -0.328 N 
ATOM     27  C   UNL     1      11.484   6.371   6.161  0.00  0.00    +0.231 C 
ATOM     39  H   UNL     1      13.452   6.797   5.539  0.00  0.00    +0.145 HD
ATOM     40  H   UNL     1      13.301   6.324   7.193  0.00  0.00    +0.145 HD
ENDBRANCH  22  27
BRANCH  22  25
ATOM     25  C   UNL     1       9.505   6.381   4.619  0.00  0.00    +0.074 C 
BRANCH  25  29
ATOM      3  S   UNL     1       8.017   8.633   5.191  0.00  0.00    -0.102 S 
ATOM     29  C   UNL     1       8.739   7.568   4.084  0.00  0.00    -0.008 A 
ATOM     32  C   UNL     1       8.544   7.908   2.784  0.00  0.00    +0.011 A 
ATOM     35  C   UNL     1       7.767   9.097   2.678  0.00  0.00    +0.008 A 
ATOM     36  C   UNL     1       7.412   9.597   3.911  0.00  0.00    +0.045 A 
ENDBRANCH  25  29
ENDBRANCH  22  25
ENDBRANCH  10  22
ENDBRANCH  16  20
BRANCH  15   9
ATOM      6  O   UNL     1      16.699   8.953   1.879  0.00  0.00    -0.270 OA
ATOM      9  N   UNL     1      16.585   6.815   0.990  0.00  0.00    -0.308 N 
ATOM     23  C   UNL     1      17.247   7.955   1.420  0.00  0.00    +0.254 C 
ATOM     37  H   UNL     1      17.128   6.021   0.661  0.00  0.00    +0.149 HD
BRANCH  23  26
ATOM      2  S   UNL     1      19.691   8.113   2.643  0.00  0.00    +0.041 S 
ATOM     13  N   UNL     1      20.842   7.842   0.435  0.00  0.00    -0.146 NA
ATOM     14  N   UNL     1      21.087   8.004   1.725  0.00  0.00    -0.110 NA
ATOM     26  C   UNL     1      18.725   7.941   1.274  0.00  0.00    +0.117 A 
ATOM     30  C   UNL     1      19.481   7.805   0.177  0.00  0.00    +0.081 A 
ATOM     33  C   UNL     1      19.040   7.630  -1.222  0.00  0.00    +0.069 C 
ENDBRANCH  23  26
ENDBRANCH  15   9
TORSDOF 8
ENDMDL
MODEL 9
REMARK VINA RESULT:      -5.7     27.681     31.564
REMARK  Name = 7134270
REMARK  10 active torsions:
REMARK  status: ('A' for Active; 'I' for Inactive)
REMARK    1  A    between atoms: N_9  and  C_15
REMARK    2  A    between atoms: N_10  and  C_22
REMARK    3  A    between atoms: C_16  and  C_20
REMARK    4  A    between atoms: C_21  and  C_24
REMARK    5  A    between atoms: C_22  and  C_25
REMARK    6  A    between atoms: C_22  and  C_27
REMARK    7  A    between atoms: C_23  and  C_26
REMARK    8  A    between atoms: C_25  and  C_29
REMARK    9  A    between atoms: C_30  and  C_33
REMARK   10  A    between atoms: C_31  and  C_34
REMARK                            x       y       z     vdW  Elec       q    Type
REMARK                         _______ _______ _______ _____ _____    ______ ____
ROOT
ATOM      5  O   UNL     1       7.874   7.505   4.789  0.00  0.00    -0.268 OA
ATOM      8  N   UNL     1       9.434   7.691   3.080  0.00  0.00    -0.285 N 
ATOM     15  C   UNL     1      11.373   6.649   1.152  0.00  0.00    +0.077 C 
ATOM     16  C   UNL     1       9.854   6.287   3.172  0.00  0.00    +0.164 C 
ATOM     17  C   UNL     1      10.389   5.715   1.861  0.00  0.00    +0.054 C 
ATOM     18  C   UNL     1      10.754   8.036   0.998  0.00  0.00    +0.041 C 
ATOM     19  C   UNL     1      10.328   8.605   2.347  0.00  0.00    +0.111 C 
ATOM     21  C   UNL     1       8.285   8.105   3.794  0.00  0.00    +0.266 C 
ENDROOT
BRANCH  21  24
ATOM      1  S   UNL     1       6.626  11.625   3.105  0.00  0.00    -0.080 S 
ATOM     11  N   UNL     1       6.899   9.252   2.116  0.00  0.00    -0.240 NA
ATOM     24  C   UNL     1       7.583   9.290   3.314  0.00  0.00    +0.133 A 
ATOM     28  C   UNL     1       7.551  10.487   3.994  0.00  0.00    +0.080 A 
ATOM     31  C   UNL     1       6.354  10.430   1.904  0.00  0.00    +0.076 A 
ATOM     34  C   UNL     1       5.540  10.773   0.718  0.00  0.00    +0.073 C 
ENDBRANCH  21  24
BRANCH  16  20
ATOM      4  O   UNL     1      12.072   6.153   4.049  0.00  0.00    -0.274 OA
ATOM     10  N   UNL     1      10.277   6.213   5.530  0.00  0.00    -0.302 N 
ATOM     20  C   UNL     1      10.867   6.218   4.278  0.00  0.00    +0.234 C 
ATOM     38  H   UNL     1       9.266   6.284   5.609  0.00  0.00    +0.150 HD
BRANCH  10  22
ATOM     22  C   UNL     1      11.032   6.130   6.759  0.00  0.00    +0.163 C 
BRANCH  22  27
ATOM      7  O   UNL     1       9.154   5.969   8.294  0.00  0.00    -0.274 OA
ATOM     12  N   UNL     1      10.529   4.146   8.045  0.00  0.00    -0.328 N 
ATOM     27  C   UNL     1      10.141   5.444   7.784  0.00  0.00    +0.231 C 
ATOM     39  H   UNL     1      11.340   3.719   7.608  0.00  0.00    +0.145 HD
ATOM     40  H   UNL     1      10.010   3.570   8.700  0.00  0.00    +0.145 HD
ENDBRANCH  22  27
BRANCH  22  25
ATOM     25  C   UNL     1      11.468   7.509   7.268  0.00  0.00    +0.074 C 
BRANCH  25  29
ATOM      3  S   UNL     1      13.287   9.443   6.516  0.00  0.00    -0.102 S 
ATOM     29  C   UNL     1      12.894   7.835   6.890  0.00  0.00    -0.008 A 
ATOM     32  C   UNL     1      13.943   6.977   6.805  0.00  0.00    +0.011 A 
ATOM     35  C   UNL     1      15.131   7.660   6.417  0.00  0.00    +0.008 A 
ATOM     36  C   UNL     1      14.917   9.006   6.226  0.00  0.00    +0.045 A 
ENDBRANCH  25  29
ENDBRANCH  22  25
ENDBRANCH  10  22
ENDBRANCH  16  20
BRANCH  15   9
ATOM      6  O   UNL     1      13.501   4.792   0.630  0.00  0.00    -0.270 OA
ATOM      9  N   UNL     1      11.753   6.111  -0.133  0.00  0.00    -0.308 N 
ATOM     23  C   UNL     1      12.800   5.215  -0.287  0.00  0.00    +0.254 C 
ATOM     37  H   UNL     1      11.203   6.373  -0.947  0.00  0.00    +0.149 HD
BRANCH  23  26
ATOM      2  S   UNL     1      14.337   5.503  -2.533  0.00  0.00    +0.041 S 
ATOM     13  N   UNL     1      13.023   3.713  -3.692  0.00  0.00    -0.146 NA
ATOM     14  N   UNL     1      14.031   4.550  -3.875  0.00  0.00    -0.110 NA
ATOM     26  C   UNL     1      13.082   4.777  -1.677  0.00  0.00    +0.117 A 
ATOM     30  C   UNL     1      12.477   3.845  -2.425  0.00  0.00    +0.081 A 
ATOM     33  C   UNL     1      11.338   2.977  -2.062  0.00  0.00    +0.069 C 
ENDBRANCH  23  26
ENDBRANCH  15   9
TORSDOF 8
ENDMDL
MODEL 10
REMARK VINA RESULT:      -5.7      8.660     12.807
REMARK  Name = 7134270
REMARK  10 active torsions:
REMARK  status: ('A' for Active; 'I' for Inactive)
REMARK    1  A    between atoms: N_9  and  C_15
REMARK    2  A    between atoms: N_10  and  C_22
REMARK    3  A    between atoms: C_16  and  C_20
REMARK    4  A    between atoms: C_21  and  C_24
REMARK    5  A    between atoms: C_22  and  C_25
REMARK    6  A    between atoms: C_22  and  C_27
REMARK    7  A    between atoms: C_23  and  C_26
REMARK    8  A    between atoms: C_25  and  C_29
REMARK    9  A    between atoms: C_30  and  C_33
REMARK   10  A    between atoms: C_31  and  C_34
REMARK                            x       y       z     vdW  Elec       q    Type
REMARK                         _______ _______ _______ _____ _____    ______ ____
ROOT
ATOM      5  O   UNL     1      -7.562  -7.674   5.308  0.00  0.00    -0.268 OA
ATOM      8  N   UNL     1      -9.394  -7.466   6.719  0.00  0.00    -0.285 N 
ATOM     15  C   UNL     1     -10.796  -6.496   9.097  0.00  0.00    +0.077 C 
ATOM     16  C   UNL     1      -8.629  -6.798   7.780  0.00  0.00    +0.164 C 
ATOM     17  C   UNL     1      -9.470  -5.871   8.657  0.00  0.00    +0.054 C 
ATOM     18  C   UNL     1     -11.551  -7.025   7.880  0.00  0.00    +0.041 C 
ATOM     19  C   UNL     1     -10.706  -8.021   7.094  0.00  0.00    +0.111 C 
ATOM     21  C   UNL     1      -8.786  -7.648   5.455  0.00  0.00    +0.266 C 
ENDROOT
BRANCH  21  24
ATOM      1  S   UNL     1     -10.952  -8.779   2.349  0.00  0.00    -0.080 S 
ATOM     11  N   UNL     1     -10.359  -6.726   3.804  0.00  0.00    -0.240 NA
ATOM     24  C   UNL     1      -9.663  -7.808   4.301  0.00  0.00    +0.133 A 
ATOM     28  C   UNL     1      -9.854  -9.005   3.647  0.00  0.00    +0.080 A 
ATOM     31  C   UNL     1     -11.073  -7.120   2.772  0.00  0.00    +0.076 A 
ATOM     34  C   UNL     1     -11.951  -6.237   1.976  0.00  0.00    +0.073 C 
ENDBRANCH  21  24
BRANCH  16  20
ATOM      4  O   UNL     1      -8.531  -8.436   9.516  0.00  0.00    -0.274 OA
ATOM     10  N   UNL     1      -6.681  -8.149   8.131  0.00  0.00    -0.302 N 
ATOM     20  C   UNL     1      -7.966  -7.885   8.574  0.00  0.00    +0.234 C 
ATOM     38  H   UNL     1      -6.312  -7.642   7.332  0.00  0.00    +0.150 HD
BRANCH  10  22
ATOM     22  C   UNL     1      -5.821  -9.136   8.742  0.00  0.00    +0.163 C 
BRANCH  22  27
ATOM      7  O   UNL     1      -6.325 -11.042   7.321  0.00  0.00    -0.274 OA
ATOM     12  N   UNL     1      -7.011 -11.094   9.512  0.00  0.00    -0.328 N 
ATOM     27  C   UNL     1      -6.411 -10.501   8.420  0.00  0.00    +0.231 C 
ATOM     39  H   UNL     1      -7.066 -10.642  10.419  0.00  0.00    +0.145 HD
ATOM     40  H   UNL     1      -7.432 -12.015   9.438  0.00  0.00    +0.145 HD
ENDBRANCH  22  27
BRANCH  22  25
ATOM     25  C   UNL     1      -5.707  -8.947  10.260  0.00  0.00    +0.074 C 
BRANCH  25  29
ATOM      3  S   UNL     1      -4.343 -10.330  12.220  0.00  0.00    -0.102 S 
ATOM     29  C   UNL     1      -4.371  -9.408  10.796  0.00  0.00    -0.008 A 
ATOM     32  C   UNL     1      -3.143  -9.170  10.268  0.00  0.00    +0.011 A 
ATOM     35  C   UNL     1      -2.122  -9.768  11.060  0.00  0.00    +0.008 A 
ATOM     36  C   UNL     1      -2.635 -10.431  12.153  0.00  0.00    +0.045 A 
ENDBRANCH  25  29
ENDBRANCH  22  25
ENDBRANCH  10  22
ENDBRANCH  16  20
BRANCH  15   9
ATOM      6  O   UNL     1     -12.663  -7.063  11.204  0.00  0.00    -0.270 OA
ATOM      9  N   UNL     1     -11.597  -5.537   9.821  0.00  0.00    -0.308 N 
ATOM     23  C   UNL     1     -12.475  -5.909  10.829  0.00  0.00    +0.254 C 
ATOM     37  H   UNL     1     -11.479  -4.551   9.606  0.00  0.00    +0.149 HD
BRANCH  23  26
ATOM      2  S   UNL     1     -12.834  -4.289  13.006  0.00  0.00    +0.041 S 
ATOM     13  N   UNL     1     -14.746  -3.139  11.866  0.00  0.00    -0.146 NA
ATOM     14  N   UNL     1     -14.052  -3.140  12.993  0.00  0.00    -0.110 NA
ATOM     26  C   UNL     1     -13.246  -4.806  11.457  0.00  0.00    +0.117 A 
ATOM     30  C   UNL     1     -14.281  -4.099  10.983  0.00  0.00    +0.081 A 
ATOM     33  C   UNL     1     -14.953  -4.228   9.674  0.00  0.00    +0.069 C 
ENDBRANCH  23  26
ENDBRANCH  15   9
TORSDOF 8
ENDMDL
