MODEL 1
REMARK VINA RESULT:      -7.0      0.000      0.000
REMARK  Name = 51136654
REMARK  8 active torsions:
REMARK  status: ('A' for Active; 'I' for Inactive)
REMARK    1  A    between atoms: O_2  and  C_22
REMARK    2  A    between atoms: O_4  and  C_30
REMARK    3  A    between atoms: O_4  and  C_31
REMARK    4  A    between atoms: C_7  and  C_12
REMARK    5  A    between atoms: C_8  and  C_14
REMARK    6  A    between atoms: C_12  and  C_21
REMARK    7  A    between atoms: C_13  and  C_15
REMARK    8  A    between atoms: C_14  and  C_22
REMARK                            x       y       z     vdW  Elec       q    Type
REMARK                         _______ _______ _______ _____ _____    ______ ____
ROOT
ATOM      1  O   UNL     1      -1.429  -9.976  12.258  0.00  0.00    -0.275 OA
ATOM      5  N   UNL     1      -2.787 -11.227  13.669  0.00  0.00    -0.301 N 
ATOM      7  C   UNL     1      -4.664 -11.422  15.284  0.00  0.00    +0.016 C 
ATOM      8  C   UNL     1      -3.622 -11.526  16.426  0.00  0.00    +0.006 C 
ATOM      9  C   UNL     1      -4.046 -11.921  13.965  0.00  0.00    +0.112 C 
ATOM     10  C   UNL     1      -2.302 -10.829  16.052  0.00  0.00    +0.023 C 
ATOM     11  C   UNL     1      -1.768 -11.332  14.714  0.00  0.00    +0.108 C 
ATOM     15  C   UNL     1      -2.506 -10.531  12.493  0.00  0.00    +0.219 C 
ENDROOT
BRANCH  15  13
ATOM     13  C   UNL     1      -3.601 -10.465  11.474  0.00  0.00    +0.075 C 
ATOM     16  C   UNL     1      -3.603 -11.756  10.653  0.00  0.00    +0.013 C 
ATOM     17  C   UNL     1      -3.411  -9.236  10.584  0.00  0.00    +0.013 C 
ATOM     18  C   UNL     1      -4.637 -11.706   9.531  0.00  0.00    +0.001 C 
ATOM     19  C   UNL     1      -4.449  -9.189   9.465  0.00  0.00    +0.001 C 
ATOM     20  C   UNL     1      -4.450 -10.477   8.646  0.00  0.00    +0.000 C 
ENDBRANCH  15  13
BRANCH   7  12
ATOM     12  C   UNL     1      -5.249 -10.016  15.100  0.00  0.00    +0.061 C 
BRANCH  12  21
ATOM      6  N   UNL     1      -7.049 -10.247  13.526  0.00  0.00    -0.287 NA
ATOM     21  C   UNL     1      -6.719 -10.112  14.769  0.00  0.00    +0.044 C 
ATOM     23  C   UNL     1      -7.709 -10.041  15.874  0.00  0.00    -0.001 A 
ATOM     24  C   UNL     1      -9.031  -9.746  15.520  0.00  0.00    -0.033 A 
ATOM     25  C   UNL     1      -8.473 -10.402  13.210  0.00  0.00    +0.146 C 
ATOM     26  C   UNL     1      -9.353  -9.509  14.074  0.00  0.00    +0.059 C 
ATOM     27  C   UNL     1      -7.361 -10.240  17.211  0.00  0.00    +0.013 A 
ATOM     28  C   UNL     1     -10.001  -9.625  16.517  0.00  0.00    +0.050 A 
ATOM     29  C   UNL     1      -8.340 -10.134  18.200  0.00  0.00    +0.046 A 
ATOM     30  C   UNL     1      -9.656  -9.823  17.855  0.00  0.00    +0.120 A 
BRANCH  30   4
ATOM      4  O   UNL     1     -10.605  -9.713  18.825  0.00  0.00    -0.495 OA
ATOM     31  C   UNL     1     -10.457 -10.546  19.974  0.00  0.00    +0.277 C 
ENDBRANCH  30   4
ENDBRANCH  12  21
ENDBRANCH   7  12
BRANCH   8  14
ATOM     14  C   UNL     1      -4.145 -11.006  17.766  0.00  0.00    +0.124 C 
BRANCH  14  22
ATOM      3  O   UNL     1      -3.285 -12.145  19.743  0.00  0.00    -0.251 OA
ATOM     22  C   UNL     1      -4.093 -12.068  18.830  0.00  0.00    +0.305 C 
BRANCH  22   2
ATOM      2  O   UNL     1      -5.100 -12.958  18.635  0.00  0.00    -0.481 OA
ATOM     32  H   UNL     1      -4.863 -13.854  18.959  0.00  0.00    +0.295 HD
ENDBRANCH  22   2
ENDBRANCH  14  22
ENDBRANCH   8  14
TORSDOF 7
ENDMDL
MODEL 2
REMARK VINA RESULT:      -7.0      1.895      3.515
REMARK  Name = 51136654
REMARK  8 active torsions:
REMARK  status: ('A' for Active; 'I' for Inactive)
REMARK    1  A    between atoms: O_2  and  C_22
REMARK    2  A    between atoms: O_4  and  C_30
REMARK    3  A    between atoms: O_4  and  C_31
REMARK    4  A    between atoms: C_7  and  C_12
REMARK    5  A    between atoms: C_8  and  C_14
REMARK    6  A    between atoms: C_12  and  C_21
REMARK    7  A    between atoms: C_13  and  C_15
REMARK    8  A    between atoms: C_14  and  C_22
REMARK                            x       y       z     vdW  Elec       q    Type
REMARK                         _______ _______ _______ _____ _____    ______ ____
ROOT
ATOM      1  O   UNL     1      -1.436 -10.059  12.312  0.00  0.00    -0.275 OA
ATOM      5  N   UNL     1      -2.841 -11.297  13.687  0.00  0.00    -0.301 N 
ATOM      7  C   UNL     1      -4.755 -11.473  15.262  0.00  0.00    +0.016 C 
ATOM      8  C   UNL     1      -3.738 -11.597  16.425  0.00  0.00    +0.006 C 
ATOM      9  C   UNL     1      -4.115 -11.975  13.954  0.00  0.00    +0.112 C 
ATOM     10  C   UNL     1      -2.402 -10.917  16.083  0.00  0.00    +0.023 C 
ATOM     11  C   UNL     1      -1.846 -11.422  14.754  0.00  0.00    +0.108 C 
ATOM     15  C   UNL     1      -2.525 -10.599  12.522  0.00  0.00    +0.219 C 
ENDROOT
BRANCH  15  13
ATOM     13  C   UNL     1      -3.597 -10.513  11.480  0.00  0.00    +0.075 C 
ATOM     16  C   UNL     1      -3.676 -11.843  10.727  0.00  0.00    +0.013 C 
ATOM     17  C   UNL     1      -3.310  -9.349  10.531  0.00  0.00    +0.013 C 
ATOM     18  C   UNL     1      -4.687 -11.783   9.585  0.00  0.00    +0.001 C 
ATOM     19  C   UNL     1      -4.324  -9.291   9.392  0.00  0.00    +0.001 C 
ATOM     20  C   UNL     1      -4.402 -10.617   8.641  0.00  0.00    +0.000 C 
ENDBRANCH  15  13
BRANCH   7  12
ATOM     12  C   UNL     1      -5.316 -10.058  15.073  0.00  0.00    +0.061 C 
BRANCH  12  21
ATOM      6  N   UNL     1      -7.525 -10.350  15.968  0.00  0.00    -0.287 NA
ATOM     21  C   UNL     1      -6.816 -10.119  14.913  0.00  0.00    +0.044 C 
ATOM     23  C   UNL     1      -7.401  -9.918  13.562  0.00  0.00    -0.001 A 
ATOM     24  C   UNL     1      -8.718 -10.355  13.374  0.00  0.00    -0.033 A 
ATOM     25  C   UNL     1      -8.985 -10.349  15.825  0.00  0.00    +0.146 C 
ATOM     26  C   UNL     1      -9.434 -10.999  14.523  0.00  0.00    +0.059 C 
ATOM     27  C   UNL     1      -6.689  -9.339  12.511  0.00  0.00    +0.013 A 
ATOM     28  C   UNL     1      -9.312 -10.231  12.115  0.00  0.00    +0.050 A 
ATOM     29  C   UNL     1      -7.295  -9.205  11.261  0.00  0.00    +0.046 A 
ATOM     30  C   UNL     1      -8.602  -9.653  11.062  0.00  0.00    +0.120 A 
BRANCH  30   4
ATOM      4  O   UNL     1      -9.185  -9.526   9.838  0.00  0.00    -0.495 OA
ATOM     31  C   UNL     1      -8.315  -9.467   8.709  0.00  0.00    +0.277 C 
ENDBRANCH  30   4
ENDBRANCH  12  21
ENDBRANCH   7  12
BRANCH   8  14
ATOM     14  C   UNL     1      -4.282 -11.076  17.756  0.00  0.00    +0.124 C 
BRANCH  14  22
ATOM      3  O   UNL     1      -3.379 -12.113  19.770  0.00  0.00    -0.251 OA
ATOM     22  C   UNL     1      -4.174 -12.111  18.842  0.00  0.00    +0.305 C 
BRANCH  22   2
ATOM      2  O   UNL     1      -5.110 -13.076  18.648  0.00  0.00    -0.481 OA
ATOM     32  H   UNL     1      -5.704 -12.861  17.897  0.00  0.00    +0.295 HD
ENDBRANCH  22   2
ENDBRANCH  14  22
ENDBRANCH   8  14
TORSDOF 7
ENDMDL
MODEL 3
REMARK VINA RESULT:      -6.9     27.957     30.716
REMARK  Name = 51136654
REMARK  8 active torsions:
REMARK  status: ('A' for Active; 'I' for Inactive)
REMARK    1  A    between atoms: O_2  and  C_22
REMARK    2  A    between atoms: O_4  and  C_30
REMARK    3  A    between atoms: O_4  and  C_31
REMARK    4  A    between atoms: C_7  and  C_12
REMARK    5  A    between atoms: C_8  and  C_14
REMARK    6  A    between atoms: C_12  and  C_21
REMARK    7  A    between atoms: C_13  and  C_15
REMARK    8  A    between atoms: C_14  and  C_22
REMARK                            x       y       z     vdW  Elec       q    Type
REMARK                         _______ _______ _______ _____ _____    ______ ____
ROOT
ATOM      1  O   UNL     1      13.460  13.868  22.331  0.00  0.00    -0.275 OA
ATOM      5  N   UNL     1      13.286  11.563  22.562  0.00  0.00    -0.301 N 
ATOM      7  C   UNL     1      13.429   9.259  21.641  0.00  0.00    +0.016 C 
ATOM      8  C   UNL     1      11.882   9.229  21.577  0.00  0.00    +0.006 C 
ATOM      9  C   UNL     1      13.888  10.235  22.741  0.00  0.00    +0.112 C 
ATOM     10  C   UNL     1      11.293  10.643  21.440  0.00  0.00    +0.023 C 
ATOM     11  C   UNL     1      11.824  11.573  22.529  0.00  0.00    +0.108 C 
ATOM     15  C   UNL     1      13.991  12.761  22.456  0.00  0.00    +0.219 C 
ENDROOT
BRANCH  15  13
ATOM     13  C   UNL     1      15.486  12.667  22.494  0.00  0.00    +0.075 C 
ATOM     16  C   UNL     1      15.992  13.225  23.826  0.00  0.00    +0.013 C 
ATOM     17  C   UNL     1      16.086  13.420  21.307  0.00  0.00    +0.013 C 
ATOM     18  C   UNL     1      17.517  13.245  23.883  0.00  0.00    +0.001 C 
ATOM     19  C   UNL     1      17.612  13.435  21.367  0.00  0.00    +0.001 C 
ATOM     20  C   UNL     1      18.116  13.993  22.695  0.00  0.00    +0.000 C 
ENDBRANCH  15  13
BRANCH   7  12
ATOM     12  C   UNL     1      14.102   9.606  20.307  0.00  0.00    +0.061 C 
BRANCH  12  21
ATOM      6  N   UNL     1      14.689   7.593  19.135  0.00  0.00    -0.287 NA
ATOM     21  C   UNL     1      15.090   8.525  19.935  0.00  0.00    +0.044 C 
ATOM     23  C   UNL     1      16.460   8.581  20.505  0.00  0.00    -0.001 A 
ATOM     24  C   UNL     1      17.209   7.399  20.463  0.00  0.00    -0.033 A 
ATOM     25  C   UNL     1      15.665   6.578  18.725  0.00  0.00    +0.146 C 
ATOM     26  C   UNL     1      16.585   6.171  19.869  0.00  0.00    +0.059 C 
ATOM     27  C   UNL     1      16.993   9.738  21.075  0.00  0.00    +0.013 A 
ATOM     28  C   UNL     1      18.490   7.374  21.020  0.00  0.00    +0.050 A 
ATOM     29  C   UNL     1      18.280   9.709  21.615  0.00  0.00    +0.046 A 
ATOM     30  C   UNL     1      19.026   8.530  21.590  0.00  0.00    +0.120 A 
BRANCH  30   4
ATOM      4  O   UNL     1      20.277   8.507  22.125  0.00  0.00    -0.495 OA
ATOM     31  C   UNL     1      21.310   7.919  21.335  0.00  0.00    +0.277 C 
ENDBRANCH  30   4
ENDBRANCH  12  21
ENDBRANCH   7  12
BRANCH   8  14
ATOM     14  C   UNL     1      11.344   8.314  20.476  0.00  0.00    +0.124 C 
BRANCH  14  22
ATOM      3  O   UNL     1      11.232   6.331  21.890  0.00  0.00    -0.251 OA
ATOM     22  C   UNL     1      11.519   6.861  20.828  0.00  0.00    +0.305 C 
BRANCH  22   2
ATOM      2  O   UNL     1      12.055   6.197  19.772  0.00  0.00    -0.481 OA
ATOM     32  H   UNL     1      13.013   6.382  19.673  0.00  0.00    +0.295 HD
ENDBRANCH  22   2
ENDBRANCH  14  22
ENDBRANCH   8  14
TORSDOF 7
ENDMDL
MODEL 4
REMARK VINA RESULT:      -6.7     21.090     25.884
REMARK  Name = 51136654
REMARK  8 active torsions:
REMARK  status: ('A' for Active; 'I' for Inactive)
REMARK    1  A    between atoms: O_2  and  C_22
REMARK    2  A    between atoms: O_4  and  C_30
REMARK    3  A    between atoms: O_4  and  C_31
REMARK    4  A    between atoms: C_7  and  C_12
REMARK    5  A    between atoms: C_8  and  C_14
REMARK    6  A    between atoms: C_12  and  C_21
REMARK    7  A    between atoms: C_13  and  C_15
REMARK    8  A    between atoms: C_14  and  C_22
REMARK                            x       y       z     vdW  Elec       q    Type
REMARK                         _______ _______ _______ _____ _____    ______ ____
ROOT
ATOM      1  O   UNL     1     -16.809   6.629  29.069  0.00  0.00    -0.275 OA
ATOM      5  N   UNL     1     -16.530   4.587  30.141  0.00  0.00    -0.301 N 
ATOM      7  C   UNL     1     -15.129   2.931  31.353  0.00  0.00    +0.016 C 
ATOM      8  C   UNL     1     -15.051   2.098  30.049  0.00  0.00    +0.006 C 
ATOM      9  C   UNL     1     -16.417   3.774  31.358  0.00  0.00    +0.112 C 
ATOM     10  C   UNL     1     -15.224   2.982  28.802  0.00  0.00    +0.023 C 
ATOM     11  C   UNL     1     -16.492   3.827  28.891  0.00  0.00    +0.108 C 
ATOM     15  C   UNL     1     -16.692   5.972  30.106  0.00  0.00    +0.219 C 
ENDROOT
BRANCH  15  13
ATOM     13  C   UNL     1     -16.717   6.678  31.427  0.00  0.00    +0.075 C 
ATOM     16  C   UNL     1     -18.115   6.558  32.036  0.00  0.00    +0.013 C 
ATOM     17  C   UNL     1     -16.310   8.141  31.243  0.00  0.00    +0.013 C 
ATOM     18  C   UNL     1     -18.229   7.343  33.340  0.00  0.00    +0.001 C 
ATOM     19  C   UNL     1     -16.423   8.922  32.550  0.00  0.00    +0.001 C 
ATOM     20  C   UNL     1     -17.818   8.802  33.157  0.00  0.00    +0.000 C 
ENDBRANCH  15  13
BRANCH   7  12
ATOM     12  C   UNL     1     -13.906   3.825  31.596  0.00  0.00    +0.061 C 
BRANCH  12  21
ATOM      6  N   UNL     1     -14.363   3.672  33.949  0.00  0.00    -0.287 NA
ATOM     21  C   UNL     1     -13.981   4.432  32.976  0.00  0.00    +0.044 C 
ATOM     23  C   UNL     1     -13.622   5.863  33.149  0.00  0.00    -0.001 A 
ATOM     24  C   UNL     1     -14.062   6.487  34.323  0.00  0.00    -0.033 A 
ATOM     25  C   UNL     1     -14.378   4.245  35.299  0.00  0.00    +0.146 C 
ATOM     26  C   UNL     1     -14.866   5.688  35.305  0.00  0.00    +0.059 C 
ATOM     27  C   UNL     1     -12.896   6.579  32.196  0.00  0.00    +0.013 A 
ATOM     28  C   UNL     1     -13.791   7.842  34.527  0.00  0.00    +0.050 A 
ATOM     29  C   UNL     1     -12.616   7.928  32.415  0.00  0.00    +0.046 A 
ATOM     30  C   UNL     1     -13.065   8.560  33.576  0.00  0.00    +0.120 A 
BRANCH  30   4
ATOM      4  O   UNL     1     -12.796   9.879  33.779  0.00  0.00    -0.495 OA
ATOM     31  C   UNL     1     -11.453  10.308  33.560  0.00  0.00    +0.277 C 
ENDBRANCH  30   4
ENDBRANCH  12  21
ENDBRANCH   7  12
BRANCH   8  14
ATOM     14  C   UNL     1     -13.774   1.263  29.945  0.00  0.00    +0.124 C 
BRANCH  14  22
ATOM      3  O   UNL     1     -15.169  -0.728  30.125  0.00  0.00    -0.251 OA
ATOM     22  C   UNL     1     -14.070  -0.211  30.002  0.00  0.00    +0.305 C 
BRANCH  22   2
ATOM      2  O   UNL     1     -12.912  -0.913  29.895  0.00  0.00    -0.481 OA
ATOM     32  H   UNL     1     -12.394  -0.644  29.106  0.00  0.00    +0.295 HD
ENDBRANCH  22   2
ENDBRANCH  14  22
ENDBRANCH   8  14
TORSDOF 7
ENDMDL
MODEL 5
REMARK VINA RESULT:      -6.7     22.985     26.880
REMARK  Name = 51136654
REMARK  8 active torsions:
REMARK  status: ('A' for Active; 'I' for Inactive)
REMARK    1  A    between atoms: O_2  and  C_22
REMARK    2  A    between atoms: O_4  and  C_30
REMARK    3  A    between atoms: O_4  and  C_31
REMARK    4  A    between atoms: C_7  and  C_12
REMARK    5  A    between atoms: C_8  and  C_14
REMARK    6  A    between atoms: C_12  and  C_21
REMARK    7  A    between atoms: C_13  and  C_15
REMARK    8  A    between atoms: C_14  and  C_22
REMARK                            x       y       z     vdW  Elec       q    Type
REMARK                         _______ _______ _______ _____ _____    ______ ____
ROOT
ATOM      1  O   UNL     1      15.104   7.048   4.923  0.00  0.00    -0.275 OA
ATOM      5  N   UNL     1      13.723   6.958   3.057  0.00  0.00    -0.301 N 
ATOM      7  C   UNL     1      11.753   6.058   1.839  0.00  0.00    +0.016 C 
ATOM      8  C   UNL     1      12.719   5.192   0.992  0.00  0.00    +0.006 C 
ATOM      9  C   UNL     1      12.486   7.313   2.349  0.00  0.00    +0.112 C 
ATOM     10  C   UNL     1      14.020   4.888   1.753  0.00  0.00    +0.023 C 
ATOM     11  C   UNL     1      14.672   6.167   2.273  0.00  0.00    +0.108 C 
ATOM     15  C   UNL     1      14.045   7.338   4.359  0.00  0.00    +0.219 C 
ENDROOT
BRANCH  15  13
ATOM     13  C   UNL     1      13.021   8.143   5.097  0.00  0.00    +0.075 C 
ATOM     16  C   UNL     1      13.437   9.616   5.091  0.00  0.00    +0.013 C 
ATOM     17  C   UNL     1      12.867   7.611   6.522  0.00  0.00    +0.013 C 
ATOM     18  C   UNL     1      12.479  10.474   5.913  0.00  0.00    +0.001 C 
ATOM     19  C   UNL     1      11.906   8.471   7.340  0.00  0.00    +0.001 C 
ATOM     20  C   UNL     1      12.323   9.939   7.334  0.00  0.00    +0.000 C 
ENDBRANCH  15  13
BRANCH   7  12
ATOM     12  C   UNL     1      11.106   5.307   3.010  0.00  0.00    +0.061 C 
BRANCH  12  21
ATOM      6  N   UNL     1       9.392   6.983   2.853  0.00  0.00    -0.287 NA
ATOM     21  C   UNL     1      10.016   6.154   3.623  0.00  0.00    +0.044 C 
ATOM     23  C   UNL     1       9.721   6.002   5.071  0.00  0.00    -0.001 A 
ATOM     24  C   UNL     1       9.005   7.040   5.682  0.00  0.00    -0.033 A 
ATOM     25  C   UNL     1       8.294   7.761   3.434  0.00  0.00    +0.146 C 
ATOM     26  C   UNL     1       8.604   8.223   4.852  0.00  0.00    +0.059 C 
ATOM     27  C   UNL     1      10.138   4.896   5.814  0.00  0.00    +0.013 A 
ATOM     28  C   UNL     1       8.731   6.976   7.050  0.00  0.00    +0.050 A 
ATOM     29  C   UNL     1       9.845   4.833   7.177  0.00  0.00    +0.046 A 
ATOM     30  C   UNL     1       9.146   5.872   7.794  0.00  0.00    +0.120 A 
BRANCH  30   4
ATOM      4  O   UNL     1       8.871   5.807   9.126  0.00  0.00    -0.495 OA
ATOM     31  C   UNL     1       9.417   4.704   9.848  0.00  0.00    +0.277 C 
ENDBRANCH  30   4
ENDBRANCH  12  21
ENDBRANCH   7  12
BRANCH   8  14
ATOM     14  C   UNL     1      12.078   3.900   0.484  0.00  0.00    +0.124 C 
BRANCH  14  22
ATOM      3  O   UNL     1      10.031   4.329  -0.771  0.00  0.00    -0.251 OA
ATOM     22  C   UNL     1      11.238   4.143  -0.741  0.00  0.00    +0.305 C 
BRANCH  22   2
ATOM      2  O   UNL     1      12.028   4.127  -1.846  0.00  0.00    -0.481 OA
ATOM     32  H   UNL     1      12.719   3.433  -1.790  0.00  0.00    +0.295 HD
ENDBRANCH  22   2
ENDBRANCH  14  22
ENDBRANCH   8  14
TORSDOF 7
ENDMDL
MODEL 6
REMARK VINA RESULT:      -6.6      2.148      6.678
REMARK  Name = 51136654
REMARK  8 active torsions:
REMARK  status: ('A' for Active; 'I' for Inactive)
REMARK    1  A    between atoms: O_2  and  C_22
REMARK    2  A    between atoms: O_4  and  C_30
REMARK    3  A    between atoms: O_4  and  C_31
REMARK    4  A    between atoms: C_7  and  C_12
REMARK    5  A    between atoms: C_8  and  C_14
REMARK    6  A    between atoms: C_12  and  C_21
REMARK    7  A    between atoms: C_13  and  C_15
REMARK    8  A    between atoms: C_14  and  C_22
REMARK                            x       y       z     vdW  Elec       q    Type
REMARK                         _______ _______ _______ _____ _____    ______ ____
ROOT
ATOM      1  O   UNL     1      -8.088 -11.396  18.486  0.00  0.00    -0.275 OA
ATOM      5  N   UNL     1      -6.371 -10.350  17.321  0.00  0.00    -0.301 N 
ATOM      7  C   UNL     1      -4.684 -10.300  15.498  0.00  0.00    +0.016 C 
ATOM      8  C   UNL     1      -3.591 -10.610  16.552  0.00  0.00    +0.006 C 
ATOM      9  C   UNL     1      -5.871  -9.587  16.171  0.00  0.00    +0.112 C 
ATOM     10  C   UNL     1      -4.168 -11.365  17.761  0.00  0.00    +0.023 C 
ATOM     11  C   UNL     1      -5.370 -10.632  18.351  0.00  0.00    +0.108 C 
ATOM     15  C   UNL     1      -7.687 -10.777  17.497  0.00  0.00    +0.219 C 
ENDROOT
BRANCH  15  13
ATOM     13  C   UNL     1      -8.650 -10.453  16.397  0.00  0.00    +0.075 C 
ATOM     16  C   UNL     1      -9.979 -10.002  17.007  0.00  0.00    +0.013 C 
ATOM     17  C   UNL     1      -8.835 -11.670  15.491  0.00  0.00    +0.013 C 
ATOM     18  C   UNL     1     -11.034  -9.751  15.933  0.00  0.00    +0.001 C 
ATOM     19  C   UNL     1      -9.889 -11.414  14.416  0.00  0.00    +0.001 C 
ATOM     20  C   UNL     1     -11.215 -10.965  15.026  0.00  0.00    +0.000 C 
ENDBRANCH  15  13
BRANCH   7  12
ATOM     12  C   UNL     1      -5.171 -11.532  14.725  0.00  0.00    +0.061 C 
BRANCH  12  21
ATOM      6  N   UNL     1      -3.604 -12.341  13.093  0.00  0.00    -0.287 NA
ATOM     21  C   UNL     1      -4.581 -11.530  13.334  0.00  0.00    +0.044 C 
ATOM     23  C   UNL     1      -5.142 -10.600  12.321  0.00  0.00    -0.001 A 
ATOM     24  C   UNL     1      -4.350 -10.343  11.194  0.00  0.00    -0.033 A 
ATOM     25  C   UNL     1      -3.072 -12.383  11.728  0.00  0.00    +0.146 C 
ATOM     26  C   UNL     1      -3.005 -11.000  11.095  0.00  0.00    +0.059 C 
ATOM     27  C   UNL     1      -6.387  -9.988  12.466  0.00  0.00    +0.013 A 
ATOM     28  C   UNL     1      -4.803  -9.447  10.223  0.00  0.00    +0.050 A 
ATOM     29  C   UNL     1      -6.839  -9.106  11.483  0.00  0.00    +0.046 A 
ATOM     30  C   UNL     1      -6.047  -8.833  10.366  0.00  0.00    +0.120 A 
BRANCH  30   4
ATOM      4  O   UNL     1      -6.491  -7.965   9.415  0.00  0.00    -0.495 OA
ATOM     31  C   UNL     1      -7.239  -8.516   8.333  0.00  0.00    +0.277 C 
ENDBRANCH  30   4
ENDBRANCH  12  21
ENDBRANCH   7  12
BRANCH   8  14
ATOM     14  C   UNL     1      -2.392 -11.360  15.971  0.00  0.00    +0.124 C 
BRANCH  14  22
ATOM      3  O   UNL     1      -1.465  -9.879  14.270  0.00  0.00    -0.251 OA
ATOM     22  C   UNL     1      -1.389 -10.418  15.364  0.00  0.00    +0.305 C 
BRANCH  22   2
ATOM      2  O   UNL     1      -0.353 -10.239  16.224  0.00  0.00    -0.481 OA
ATOM     32  H   UNL     1       0.173  -9.441  16.000  0.00  0.00    +0.295 HD
ENDBRANCH  22   2
ENDBRANCH  14  22
ENDBRANCH   8  14
TORSDOF 7
ENDMDL
MODEL 7
REMARK VINA RESULT:      -6.5     28.109     30.678
REMARK  Name = 51136654
REMARK  8 active torsions:
REMARK  status: ('A' for Active; 'I' for Inactive)
REMARK    1  A    between atoms: O_2  and  C_22
REMARK    2  A    between atoms: O_4  and  C_30
REMARK    3  A    between atoms: O_4  and  C_31
REMARK    4  A    between atoms: C_7  and  C_12
REMARK    5  A    between atoms: C_8  and  C_14
REMARK    6  A    between atoms: C_12  and  C_21
REMARK    7  A    between atoms: C_13  and  C_15
REMARK    8  A    between atoms: C_14  and  C_22
REMARK                            x       y       z     vdW  Elec       q    Type
REMARK                         _______ _______ _______ _____ _____    ______ ____
ROOT
ATOM      1  O   UNL     1      16.839  12.150  23.979  0.00  0.00    -0.275 OA
ATOM      5  N   UNL     1      18.020  11.160  22.240  0.00  0.00    -0.301 N 
ATOM      7  C   UNL     1      18.811   9.157  21.000  0.00  0.00    +0.016 C 
ATOM      8  C   UNL     1      20.204   9.352  21.649  0.00  0.00    +0.006 C 
ATOM      9  C   UNL     1      18.076  10.508  20.926  0.00  0.00    +0.112 C 
ATOM     10  C   UNL     1      20.103  10.082  22.998  0.00  0.00    +0.023 C 
ATOM     11  C   UNL     1      19.323  11.387  22.866  0.00  0.00    +0.108 C 
ATOM     15  C   UNL     1      16.857  11.582  22.884  0.00  0.00    +0.219 C 
ENDROOT
BRANCH  15  13
ATOM     13  C   UNL     1      15.564  11.309  22.180  0.00  0.00    +0.075 C 
ATOM     16  C   UNL     1      15.230  12.489  21.265  0.00  0.00    +0.013 C 
ATOM     17  C   UNL     1      14.455  11.063  23.204  0.00  0.00    +0.013 C 
ATOM     18  C   UNL     1      13.870  12.312  20.594  0.00  0.00    +0.001 C 
ATOM     19  C   UNL     1      13.098  10.884  22.528  0.00  0.00    +0.001 C 
ATOM     20  C   UNL     1      12.765  12.062  21.616  0.00  0.00    +0.000 C 
ENDBRANCH  15  13
BRANCH   7  12
ATOM     12  C   UNL     1      17.935   8.113  21.704  0.00  0.00    +0.061 C 
BRANCH  12  21
ATOM      6  N   UNL     1      17.877   6.667  19.787  0.00  0.00    -0.287 NA
ATOM     21  C   UNL     1      17.185   7.297  20.679  0.00  0.00    +0.044 C 
ATOM     23  C   UNL     1      15.701   7.263  20.738  0.00  0.00    -0.001 A 
ATOM     24  C   UNL     1      15.034   6.837  19.582  0.00  0.00    -0.033 A 
ATOM     25  C   UNL     1      17.152   5.826  18.829  0.00  0.00    +0.146 C 
ATOM     26  C   UNL     1      15.846   6.465  18.377  0.00  0.00    +0.059 C 
ATOM     27  C   UNL     1      14.983   7.646  21.871  0.00  0.00    +0.013 A 
ATOM     28  C   UNL     1      13.637   6.821  19.560  0.00  0.00    +0.050 A 
ATOM     29  C   UNL     1      13.588   7.611  21.845  0.00  0.00    +0.046 A 
ATOM     30  C   UNL     1      12.916   7.203  20.691  0.00  0.00    +0.120 A 
BRANCH  30   4
ATOM      4  O   UNL     1      11.555   7.179  20.671  0.00  0.00    -0.495 OA
ATOM     31  C   UNL     1      10.907   6.310  21.597  0.00  0.00    +0.277 C 
ENDBRANCH  30   4
ENDBRANCH  12  21
ENDBRANCH   7  12
BRANCH   8  14
ATOM     14  C   UNL     1      20.984   8.045  21.801  0.00  0.00    +0.124 C 
BRANCH  14  22
ATOM      3  O   UNL     1      22.248   8.060  19.716  0.00  0.00    -0.251 OA
ATOM     22  C   UNL     1      21.453   7.521  20.471  0.00  0.00    +0.305 C 
BRANCH  22   2
ATOM      2  O   UNL     1      20.854   6.330  20.213  0.00  0.00    -0.481 OA
ATOM     32  H   UNL     1      20.792   5.771  21.017  0.00  0.00    +0.295 HD
ENDBRANCH  22   2
ENDBRANCH  14  22
ENDBRANCH   8  14
TORSDOF 7
ENDMDL
MODEL 8
REMARK VINA RESULT:      -6.5     19.723     21.966
REMARK  Name = 51136654
REMARK  8 active torsions:
REMARK  status: ('A' for Active; 'I' for Inactive)
REMARK    1  A    between atoms: O_2  and  C_22
REMARK    2  A    between atoms: O_4  and  C_30
REMARK    3  A    between atoms: O_4  and  C_31
REMARK    4  A    between atoms: C_7  and  C_12
REMARK    5  A    between atoms: C_8  and  C_14
REMARK    6  A    between atoms: C_12  and  C_21
REMARK    7  A    between atoms: C_13  and  C_15
REMARK    8  A    between atoms: C_14  and  C_22
REMARK                            x       y       z     vdW  Elec       q    Type
REMARK                         _______ _______ _______ _____ _____    ______ ____
ROOT
ATOM      1  O   UNL     1     -16.506   6.912  17.861  0.00  0.00    -0.275 OA
ATOM      5  N   UNL     1     -16.228   7.267  20.141  0.00  0.00    -0.301 N 
ATOM      7  C   UNL     1     -14.829   7.274  22.195  0.00  0.00    +0.016 C 
ATOM      8  C   UNL     1     -15.524   5.958  22.627  0.00  0.00    +0.006 C 
ATOM      9  C   UNL     1     -15.763   8.079  21.272  0.00  0.00    +0.112 C 
ATOM     10  C   UNL     1     -16.038   5.165  21.414  0.00  0.00    +0.023 C 
ATOM     11  C   UNL     1     -16.917   6.032  20.515  0.00  0.00    +0.108 C 
ATOM     15  C   UNL     1     -16.084   7.601  18.794  0.00  0.00    +0.219 C 
ENDROOT
BRANCH  15  13
ATOM     13  C   UNL     1     -15.363   8.879  18.493  0.00  0.00    +0.075 C 
ATOM     16  C   UNL     1     -16.355  10.043  18.554  0.00  0.00    +0.013 C 
ATOM     17  C   UNL     1     -14.692   8.787  17.122  0.00  0.00    +0.013 C 
ATOM     18  C   UNL     1     -15.697  11.362  18.159  0.00  0.00    +0.001 C 
ATOM     19  C   UNL     1     -14.034  10.108  16.731  0.00  0.00    +0.001 C 
ATOM     20  C   UNL     1     -15.023  11.269  16.793  0.00  0.00    +0.000 C 
ENDBRANCH  15  13
BRANCH   7  12
ATOM     12  C   UNL     1     -13.465   7.067  21.523  0.00  0.00    +0.061 C 
BRANCH  12  21
ATOM      6  N   UNL     1     -12.941   9.313  22.195  0.00  0.00    -0.287 NA
ATOM     21  C   UNL     1     -12.803   8.404  21.287  0.00  0.00    +0.044 C 
ATOM     23  C   UNL     1     -12.036   8.611  20.032  0.00  0.00    -0.001 A 
ATOM     24  C   UNL     1     -11.771   9.936  19.666  0.00  0.00    -0.033 A 
ATOM     25  C   UNL     1     -12.248  10.589  21.995  0.00  0.00    +0.146 C 
ATOM     26  C   UNL     1     -12.284  11.041  20.541  0.00  0.00    +0.059 C 
ATOM     27  C   UNL     1     -11.601   7.553  19.231  0.00  0.00    +0.013 A 
ATOM     28  C   UNL     1     -11.089  10.199  18.476  0.00  0.00    +0.050 A 
ATOM     29  C   UNL     1     -10.906   7.825  18.052  0.00  0.00    +0.046 A 
ATOM     30  C   UNL     1     -10.653   9.145  17.673  0.00  0.00    +0.120 A 
BRANCH  30   4
ATOM      4  O   UNL     1      -9.982   9.402  16.517  0.00  0.00    -0.495 OA
ATOM     31  C   UNL     1     -10.667   9.134  15.295  0.00  0.00    +0.277 C 
ENDBRANCH  30   4
ENDBRANCH  12  21
ENDBRANCH   7  12
BRANCH   8  14
ATOM     14  C   UNL     1     -14.642   5.076  23.512  0.00  0.00    +0.124 C 
BRANCH  14  22
ATOM      3  O   UNL     1     -15.598   2.935  24.180  0.00  0.00    -0.251 OA
ATOM     22  C   UNL     1     -15.464   4.137  24.352  0.00  0.00    +0.305 C 
BRANCH  22   2
ATOM      2  O   UNL     1     -16.056   4.826  25.361  0.00  0.00    -0.481 OA
ATOM     32  H   UNL     1     -15.932   4.384  26.227  0.00  0.00    +0.295 HD
ENDBRANCH  22   2
ENDBRANCH  14  22
ENDBRANCH   8  14
TORSDOF 7
ENDMDL
MODEL 9
REMARK VINA RESULT:      -6.5     24.477     27.259
REMARK  Name = 51136654
REMARK  8 active torsions:
REMARK  status: ('A' for Active; 'I' for Inactive)
REMARK    1  A    between atoms: O_2  and  C_22
REMARK    2  A    between atoms: O_4  and  C_30
REMARK    3  A    between atoms: O_4  and  C_31
REMARK    4  A    between atoms: C_7  and  C_12
REMARK    5  A    between atoms: C_8  and  C_14
REMARK    6  A    between atoms: C_12  and  C_21
REMARK    7  A    between atoms: C_13  and  C_15
REMARK    8  A    between atoms: C_14  and  C_22
REMARK                            x       y       z     vdW  Elec       q    Type
REMARK                         _______ _______ _______ _____ _____    ______ ____
ROOT
ATOM      1  O   UNL     1      10.405   9.935   0.997  0.00  0.00    -0.275 OA
ATOM      5  N   UNL     1      10.763   7.662   1.316  0.00  0.00    -0.301 N 
ATOM      7  C   UNL     1      11.770   5.764   2.564  0.00  0.00    +0.016 C 
ATOM      8  C   UNL     1      12.822   5.628   1.436  0.00  0.00    +0.006 C 
ATOM      9  C   UNL     1      10.482   6.396   2.005  0.00  0.00    +0.112 C 
ATOM     10  C   UNL     1      13.048   6.965   0.709  0.00  0.00    +0.023 C 
ATOM     11  C   UNL     1      11.730   7.562   0.223  0.00  0.00    +0.108 C 
ATOM     15  C   UNL     1      10.170   8.890   1.609  0.00  0.00    +0.219 C 
ENDROOT
BRANCH  15  13
ATOM     13  C   UNL     1       9.194   8.910   2.744  0.00  0.00    +0.075 C 
ATOM     16  C   UNL     1       7.794   9.205   2.201  0.00  0.00    +0.013 C 
ATOM     17  C   UNL     1       9.622   9.949   3.781  0.00  0.00    +0.013 C 
ATOM     18  C   UNL     1       6.771   9.336   3.325  0.00  0.00    +0.001 C 
ATOM     19  C   UNL     1       8.597  10.075   4.905  0.00  0.00    +0.001 C 
ATOM     20  C   UNL     1       7.202  10.369   4.362  0.00  0.00    +0.000 C 
ENDBRANCH  15  13
BRANCH   7  12
ATOM     12  C   UNL     1      12.263   6.551   3.785  0.00  0.00    +0.061 C 
BRANCH  12  21
ATOM      6  N   UNL     1      10.675   5.215   4.995  0.00  0.00    -0.287 NA
ATOM     21  C   UNL     1      11.328   6.330   4.950  0.00  0.00    +0.044 C 
ATOM     23  C   UNL     1      11.197   7.396   5.975  0.00  0.00    -0.001 A 
ATOM     24  C   UNL     1      10.070   7.339   6.805  0.00  0.00    -0.033 A 
ATOM     25  C   UNL     1       9.814   4.974   6.157  0.00  0.00    +0.146 C 
ATOM     26  C   UNL     1       9.078   6.233   6.597  0.00  0.00    +0.059 C 
ATOM     27  C   UNL     1      12.130   8.425   6.117  0.00  0.00    +0.013 A 
ATOM     28  C   UNL     1       9.868   8.335   7.763  0.00  0.00    +0.050 A 
ATOM     29  C   UNL     1      11.928   9.407   7.087  0.00  0.00    +0.046 A 
ATOM     30  C   UNL     1      10.799   9.365   7.906  0.00  0.00    +0.120 A 
BRANCH  30   4
ATOM      4  O   UNL     1      10.605  10.331   8.846  0.00  0.00    -0.495 OA
ATOM     31  C   UNL     1       9.358  11.025   8.816  0.00  0.00    +0.277 C 
ENDBRANCH  30   4
ENDBRANCH  12  21
ENDBRANCH   7  12
BRANCH   8  14
ATOM     14  C   UNL     1      14.151   5.048   1.920  0.00  0.00    +0.124 C 
BRANCH  14  22
ATOM      3  O   UNL     1      13.293   2.832   1.374  0.00  0.00    -0.251 OA
ATOM     22  C   UNL     1      14.214   3.559   1.713  0.00  0.00    +0.305 C 
BRANCH  22   2
ATOM      2  O   UNL     1      15.474   3.117   1.961  0.00  0.00    -0.481 OA
ATOM     32  H   UNL     1      15.931   3.673   2.627  0.00  0.00    +0.295 HD
ENDBRANCH  22   2
ENDBRANCH  14  22
ENDBRANCH   8  14
TORSDOF 7
ENDMDL
MODEL 10
REMARK VINA RESULT:      -6.5     19.462     22.169
REMARK  Name = 51136654
REMARK  8 active torsions:
REMARK  status: ('A' for Active; 'I' for Inactive)
REMARK    1  A    between atoms: O_2  and  C_22
REMARK    2  A    between atoms: O_4  and  C_30
REMARK    3  A    between atoms: O_4  and  C_31
REMARK    4  A    between atoms: C_7  and  C_12
REMARK    5  A    between atoms: C_8  and  C_14
REMARK    6  A    between atoms: C_12  and  C_21
REMARK    7  A    between atoms: C_13  and  C_15
REMARK    8  A    between atoms: C_14  and  C_22
REMARK                            x       y       z     vdW  Elec       q    Type
REMARK                         _______ _______ _______ _____ _____    ______ ____
ROOT
ATOM      1  O   UNL     1     -12.137  11.475  22.592  0.00  0.00    -0.275 OA
ATOM      5  N   UNL     1     -12.666  10.690  20.470  0.00  0.00    -0.301 N 
ATOM      7  C   UNL     1     -12.987   8.839  18.844  0.00  0.00    +0.016 C 
ATOM      8  C   UNL     1     -11.619   9.206  18.215  0.00  0.00    +0.006 C 
ATOM      9  C   UNL     1     -13.601  10.080  19.517  0.00  0.00    +0.112 C 
ATOM     10  C   UNL     1     -10.691   9.887  19.234  0.00  0.00    +0.023 C 
ATOM     11  C   UNL     1     -11.376  11.078  19.900  0.00  0.00    +0.108 C 
ATOM     15  C   UNL     1     -12.932  10.937  21.817  0.00  0.00    +0.219 C 
ENDROOT
BRANCH  15  13
ATOM     13  C   UNL     1     -14.273  10.508  22.326  0.00  0.00    +0.075 C 
ATOM     16  C   UNL     1     -14.890  11.646  23.143  0.00  0.00    +0.013 C 
ATOM     17  C   UNL     1     -14.131   9.234  23.160  0.00  0.00    +0.013 C 
ATOM     18  C   UNL     1     -16.218  11.231  23.771  0.00  0.00    +0.001 C 
ATOM     19  C   UNL     1     -15.462   8.821  23.784  0.00  0.00    +0.001 C 
ATOM     20  C   UNL     1     -16.076   9.956  24.599  0.00  0.00    +0.000 C 
ENDBRANCH  15  13
BRANCH   7  12
ATOM     12  C   UNL     1     -12.922   7.671  19.837  0.00  0.00    +0.061 C 
BRANCH  12  21
ATOM      6  N   UNL     1     -15.195   7.347  19.131  0.00  0.00    -0.287 NA
ATOM     21  C   UNL     1     -14.300   7.081  20.024  0.00  0.00    +0.044 C 
ATOM     23  C   UNL     1     -14.561   6.237  21.218  0.00  0.00    -0.001 A 
ATOM     24  C   UNL     1     -15.902   6.033  21.566  0.00  0.00    -0.033 A 
ATOM     25  C   UNL     1     -16.515   6.725  19.280  0.00  0.00    +0.146 C 
ATOM     26  C   UNL     1     -16.968   6.681  20.733  0.00  0.00    +0.059 C 
ATOM     27  C   UNL     1     -13.537   5.676  21.983  0.00  0.00    +0.013 A 
ATOM     28  C   UNL     1     -16.214   5.282  22.701  0.00  0.00    +0.050 A 
ATOM     29  C   UNL     1     -13.858   4.913  23.107  0.00  0.00    +0.046 A 
ATOM     30  C   UNL     1     -15.193   4.719  23.468  0.00  0.00    +0.120 A 
BRANCH  30   4
ATOM      4  O   UNL     1     -15.497   3.981  24.570  0.00  0.00    -0.495 OA
ATOM     31  C   UNL     1     -16.435   2.919  24.401  0.00  0.00    +0.277 C 
ENDBRANCH  30   4
ENDBRANCH  12  21
ENDBRANCH   7  12
BRANCH   8  14
ATOM     14  C   UNL     1     -10.919   8.013  17.562  0.00  0.00    +0.124 C 
BRANCH  14  22
ATOM      3  O   UNL     1     -10.420   9.419  15.634  0.00  0.00    -0.251 OA
ATOM     22  C   UNL     1     -10.518   8.313  16.144  0.00  0.00    +0.305 C 
BRANCH  22   2
ATOM      2  O   UNL     1     -10.270   7.153  15.484  0.00  0.00    -0.481 OA
ATOM     32  H   UNL     1      -9.360   6.826  15.651  0.00  0.00    +0.295 HD
ENDBRANCH  22   2
ENDBRANCH  14  22
ENDBRANCH   8  14
TORSDOF 7
ENDMDL
