MODEL 1
REMARK VINA RESULT:      -7.6      0.000      0.000
REMARK  Name = 25338874
REMARK  7 active torsions:
REMARK  status: ('A' for Active; 'I' for Inactive)
REMARK    1  A    between atoms: O_5  and  C_22
REMARK    2  A    between atoms: O_5  and  C_31
REMARK    3  A    between atoms: N_6  and  C_15
REMARK    4  A    between atoms: N_9  and  C_19
REMARK    5  A    between atoms: C_10  and  C_16
REMARK    6  A    between atoms: C_15  and  C_17
REMARK    7  A    between atoms: C_19  and  C_23
REMARK                            x       y       z     vdW  Elec       q    Type
REMARK                         _______ _______ _______ _____ _____    ______ ____
ROOT
ATOM      6  N   UNL     1      15.932   7.921  20.900  0.00  0.00    -0.281 NA
ATOM      7  N   UNL     1      12.472   6.795  21.851  0.00  0.00    -0.347 N 
ATOM      8  N   UNL     1      12.136   6.601  19.649  0.00  0.00    -0.240 NA
ATOM     10  C   UNL     1      15.522   8.351  19.536  0.00  0.00    +0.150 C 
ATOM     11  C   UNL     1      14.361   7.551  18.880  0.00  0.00    +0.085 C 
ATOM     12  C   UNL     1      14.806   7.848  21.869  0.00  0.00    +0.140 C 
ATOM     13  C   UNL     1      13.592   7.277  21.245  0.00  0.00    +0.053 A 
ATOM     14  C   UNL     1      13.361   7.152  19.898  0.00  0.00    +0.065 A 
ATOM     18  C   UNL     1      11.623   6.398  20.847  0.00  0.00    +0.197 A 
ATOM     32  H   UNL     1      12.293   6.740  22.845  0.00  0.00    +0.167 HD
ENDROOT
BRANCH  10  16
ATOM      4  O   UNL     1      15.939  10.628  20.139  0.00  0.00    -0.274 OA
ATOM      9  N   UNL     1      13.933  10.090  19.086  0.00  0.00    -0.310 N 
ATOM     16  C   UNL     1      15.179   9.812  19.623  0.00  0.00    +0.231 C 
ATOM     33  H   UNL     1      13.399   9.345  18.652  0.00  0.00    +0.149 HD
BRANCH   9  19
ATOM     19  C   UNL     1      13.359  11.417  19.067  0.00  0.00    +0.139 C 
BRANCH  19  23
ATOM     23  C   UNL     1      12.525  11.685  20.286  0.00  0.00    -0.030 A 
ATOM     26  C   UNL     1      12.035  10.621  21.044  0.00  0.00    +0.005 A 
ATOM     27  C   UNL     1      12.239  12.997  20.662  0.00  0.00    +0.005 A 
ATOM     28  C   UNL     1      11.260  10.869  22.176  0.00  0.00    +0.000 A 
ATOM     29  C   UNL     1      11.464  13.246  21.794  0.00  0.00    +0.000 A 
ATOM     30  C   UNL     1      10.974  12.181  22.552  0.00  0.00    +0.000 A 
ENDBRANCH  19  23
ENDBRANCH   9  19
ENDBRANCH  10  16
BRANCH   6  15
ATOM     15  C   UNL     1      16.667   6.654  20.849  0.00  0.00    +0.120 C 
BRANCH  15  17
ATOM     17  C   UNL     1      18.147   6.856  20.992  0.00  0.00    -0.030 A 
ATOM     20  C   UNL     1      19.032   5.880  20.532  0.00  0.00    +0.051 A 
ATOM     21  C   UNL     1      18.639   8.019  21.585  0.00  0.00    +0.005 A 
ATOM     22  C   UNL     1      20.408   6.068  20.665  0.00  0.00    +0.130 A 
ATOM     24  C   UNL     1      20.014   8.207  21.717  0.00  0.00    +0.004 A 
ATOM     25  C   UNL     1      20.899   7.231  21.257  0.00  0.00    +0.046 A 
BRANCH  22   5
ATOM      5  O   UNL     1      21.271   5.116  20.215  0.00  0.00    -0.406 OA
BRANCH   5  31
ATOM      1  F   UNL     1      22.858   3.670  20.911  0.00  0.00    -0.133 F 
ATOM      2  F   UNL     1      21.364   4.332  22.362  0.00  0.00    -0.133 F 
ATOM      3  F   UNL     1      20.805   2.939  20.739  0.00  0.00    -0.133 F 
ATOM     31  C   UNL     1      21.558   4.012  21.065  0.00  0.00    +0.575 C 
ENDBRANCH   5  31
ENDBRANCH  22   5
ENDBRANCH  15  17
ENDBRANCH   6  15
TORSDOF 7
ENDMDL
MODEL 2
REMARK VINA RESULT:      -7.6      2.679      4.191
REMARK  Name = 25338874
REMARK  7 active torsions:
REMARK  status: ('A' for Active; 'I' for Inactive)
REMARK    1  A    between atoms: O_5  and  C_22
REMARK    2  A    between atoms: O_5  and  C_31
REMARK    3  A    between atoms: N_6  and  C_15
REMARK    4  A    between atoms: N_9  and  C_19
REMARK    5  A    between atoms: C_10  and  C_16
REMARK    6  A    between atoms: C_15  and  C_17
REMARK    7  A    between atoms: C_19  and  C_23
REMARK                            x       y       z     vdW  Elec       q    Type
REMARK                         _______ _______ _______ _____ _____    ______ ____
ROOT
ATOM      6  N   UNL     1      13.986   7.930  20.339  0.00  0.00    -0.281 NA
ATOM      7  N   UNL     1      12.085  10.109  22.743  0.00  0.00    -0.347 N 
ATOM      8  N   UNL     1      10.522   8.512  22.658  0.00  0.00    -0.240 NA
ATOM     10  C   UNL     1      12.764   7.236  19.849  0.00  0.00    +0.150 C 
ATOM     11  C   UNL     1      11.609   7.067  20.877  0.00  0.00    +0.085 C 
ATOM     12  C   UNL     1      13.716   9.252  20.964  0.00  0.00    +0.140 C 
ATOM     13  C   UNL     1      12.499   9.213  21.805  0.00  0.00    +0.053 A 
ATOM     14  C   UNL     1      11.524   8.247  21.767  0.00  0.00    +0.065 A 
ATOM     18  C   UNL     1      10.889   9.643  23.230  0.00  0.00    +0.197 A 
ATOM     32  H   UNL     1      12.560  10.956  23.026  0.00  0.00    +0.167 HD
ENDROOT
BRANCH  10  16
ATOM      4  O   UNL     1      11.119   8.330  18.501  0.00  0.00    -0.274 OA
ATOM      9  N   UNL     1      13.311   8.210  17.727  0.00  0.00    -0.310 N 
ATOM     16  C   UNL     1      12.291   7.989  18.636  0.00  0.00    +0.231 C 
ATOM     33  H   UNL     1      14.255   7.915  17.953  0.00  0.00    +0.149 HD
BRANCH   9  19
ATOM     19  C   UNL     1      13.113   8.892  16.467  0.00  0.00    +0.139 C 
BRANCH  19  23
ATOM     23  C   UNL     1      13.981  10.110  16.345  0.00  0.00    -0.030 A 
ATOM     26  C   UNL     1      13.915  11.114  17.313  0.00  0.00    +0.005 A 
ATOM     27  C   UNL     1      14.855  10.240  15.266  0.00  0.00    +0.005 A 
ATOM     28  C   UNL     1      14.722  12.246  17.200  0.00  0.00    +0.000 A 
ATOM     29  C   UNL     1      15.662  11.372  15.153  0.00  0.00    +0.000 A 
ATOM     30  C   UNL     1      15.596  12.376  16.120  0.00  0.00    +0.000 A 
ENDBRANCH  19  23
ENDBRANCH   9  19
ENDBRANCH  10  16
BRANCH   6  15
ATOM     15  C   UNL     1      14.750   7.065  21.242  0.00  0.00    +0.120 C 
BRANCH  15  17
ATOM     17  C   UNL     1      16.055   6.633  20.639  0.00  0.00    -0.030 A 
ATOM     20  C   UNL     1      17.226   6.691  21.396  0.00  0.00    +0.051 A 
ATOM     21  C   UNL     1      16.097   6.174  19.322  0.00  0.00    +0.005 A 
ATOM     22  C   UNL     1      18.438   6.289  20.834  0.00  0.00    +0.130 A 
ATOM     24  C   UNL     1      17.309   5.773  18.763  0.00  0.00    +0.004 A 
ATOM     25  C   UNL     1      18.480   5.830  19.519  0.00  0.00    +0.046 A 
BRANCH  22   5
ATOM      5  O   UNL     1      19.580   6.345  21.573  0.00  0.00    -0.406 OA
BRANCH   5  31
ATOM      1  F   UNL     1      21.262   7.606  22.397  0.00  0.00    -0.133 F 
ATOM      2  F   UNL     1      21.352   7.020  20.294  0.00  0.00    -0.133 F 
ATOM      3  F   UNL     1      19.887   8.530  20.971  0.00  0.00    -0.133 F 
ATOM     31  C   UNL     1      20.516   7.379  21.291  0.00  0.00    +0.575 C 
ENDBRANCH   5  31
ENDBRANCH  22   5
ENDBRANCH  15  17
ENDBRANCH   6  15
TORSDOF 7
ENDMDL
MODEL 3
REMARK VINA RESULT:      -7.5      5.269      8.492
REMARK  Name = 25338874
REMARK  7 active torsions:
REMARK  status: ('A' for Active; 'I' for Inactive)
REMARK    1  A    between atoms: O_5  and  C_22
REMARK    2  A    between atoms: O_5  and  C_31
REMARK    3  A    between atoms: N_6  and  C_15
REMARK    4  A    between atoms: N_9  and  C_19
REMARK    5  A    between atoms: C_10  and  C_16
REMARK    6  A    between atoms: C_15  and  C_17
REMARK    7  A    between atoms: C_19  and  C_23
REMARK                            x       y       z     vdW  Elec       q    Type
REMARK                         _______ _______ _______ _____ _____    ______ ____
ROOT
ATOM      6  N   UNL     1      13.424   9.799  19.416  0.00  0.00    -0.281 NA
ATOM      7  N   UNL     1      12.058   9.475  15.927  0.00  0.00    -0.347 N 
ATOM      8  N   UNL     1      10.273   8.558  16.915  0.00  0.00    -0.240 NA
ATOM     10  C   UNL     1      12.569   8.707  19.956  0.00  0.00    +0.150 C 
ATOM     11  C   UNL     1      11.178   8.525  19.287  0.00  0.00    +0.085 C 
ATOM     12  C   UNL     1      13.616   9.737  17.942  0.00  0.00    +0.140 C 
ATOM     13  C   UNL     1      12.363   9.364  17.249  0.00  0.00    +0.053 A 
ATOM     14  C   UNL     1      11.257   8.797  17.833  0.00  0.00    +0.065 A 
ATOM     18  C   UNL     1      10.787   8.976  15.774  0.00  0.00    +0.197 A 
ATOM     32  H   UNL     1      12.649   9.847  15.195  0.00  0.00    +0.167 HD
ENDROOT
BRANCH  10  16
ATOM      4  O   UNL     1      12.851   6.357  19.612  0.00  0.00    -0.274 OA
ATOM      9  N   UNL     1      14.716   7.652  20.126  0.00  0.00    -0.310 N 
ATOM     16  C   UNL     1      13.373   7.439  19.867  0.00  0.00    +0.231 C 
ATOM     33  H   UNL     1      15.049   8.596  20.294  0.00  0.00    +0.149 HD
BRANCH   9  19
ATOM     19  C   UNL     1      15.698   6.591  20.127  0.00  0.00    +0.139 C 
BRANCH  19  23
ATOM     23  C   UNL     1      17.034   7.062  20.624  0.00  0.00    -0.030 A 
ATOM     26  C   UNL     1      18.162   6.255  20.466  0.00  0.00    +0.005 A 
ATOM     27  C   UNL     1      17.149   8.306  21.244  0.00  0.00    +0.005 A 
ATOM     28  C   UNL     1      19.403   6.692  20.928  0.00  0.00    +0.000 A 
ATOM     29  C   UNL     1      18.390   8.743  21.706  0.00  0.00    +0.000 A 
ATOM     30  C   UNL     1      19.518   7.936  21.548  0.00  0.00    +0.000 A 
ENDBRANCH  19  23
ENDBRANCH   9  19
ENDBRANCH  10  16
BRANCH   6  15
ATOM     15  C   UNL     1      12.915  11.111  19.827  0.00  0.00    +0.120 C 
BRANCH  15  17
ATOM     17  C   UNL     1      12.940  11.282  21.318  0.00  0.00    -0.030 A 
ATOM     20  C   UNL     1      11.769  11.615  22.001  0.00  0.00    +0.051 A 
ATOM     21  C   UNL     1      14.132  11.109  22.020  0.00  0.00    +0.005 A 
ATOM     22  C   UNL     1      11.793  11.773  23.387  0.00  0.00    +0.130 A 
ATOM     24  C   UNL     1      14.155  11.267  23.405  0.00  0.00    +0.004 A 
ATOM     25  C   UNL     1      12.985  11.599  24.089  0.00  0.00    +0.046 A 
BRANCH  22   5
ATOM      5  O   UNL     1      10.651  12.097  24.053  0.00  0.00    -0.406 OA
BRANCH   5  31
ATOM      1  F   UNL     1       9.343  13.895  23.660  0.00  0.00    -0.133 F 
ATOM      2  F   UNL     1      10.143  13.626  25.676  0.00  0.00    -0.133 F 
ATOM      3  F   UNL     1      11.473  14.231  24.017  0.00  0.00    -0.133 F 
ATOM     31  C   UNL     1      10.416  13.465  24.363  0.00  0.00    +0.575 C 
ENDBRANCH   5  31
ENDBRANCH  22   5
ENDBRANCH  15  17
ENDBRANCH   6  15
TORSDOF 7
ENDMDL
MODEL 4
REMARK VINA RESULT:      -7.1     27.977     30.722
REMARK  Name = 25338874
REMARK  7 active torsions:
REMARK  status: ('A' for Active; 'I' for Inactive)
REMARK    1  A    between atoms: O_5  and  C_22
REMARK    2  A    between atoms: O_5  and  C_31
REMARK    3  A    between atoms: N_6  and  C_15
REMARK    4  A    between atoms: N_9  and  C_19
REMARK    5  A    between atoms: C_10  and  C_16
REMARK    6  A    between atoms: C_15  and  C_17
REMARK    7  A    between atoms: C_19  and  C_23
REMARK                            x       y       z     vdW  Elec       q    Type
REMARK                         _______ _______ _______ _____ _____    ______ ____
ROOT
ATOM      6  N   UNL     1      -7.374 -10.295  16.507  0.00  0.00    -0.281 NA
ATOM      7  N   UNL     1      -5.658 -12.961  18.530  0.00  0.00    -0.347 N 
ATOM      8  N   UNL     1      -3.857 -11.643  18.385  0.00  0.00    -0.240 NA
ATOM     10  C   UNL     1      -6.103  -9.774  15.935  0.00  0.00    +0.150 C 
ATOM     11  C   UNL     1      -4.843  -9.888  16.838  0.00  0.00    +0.085 C 
ATOM     12  C   UNL     1      -7.279 -11.693  17.006  0.00  0.00    +0.140 C 
ATOM     13  C   UNL     1      -5.998 -11.930  17.708  0.00  0.00    +0.053 A 
ATOM     14  C   UNL     1      -4.879 -11.140  17.630  0.00  0.00    +0.065 A 
ATOM     18  C   UNL     1      -4.357 -12.743  18.914  0.00  0.00    +0.197 A 
ATOM     32  H   UNL     1      -6.243 -13.739  18.805  0.00  0.00    +0.167 HD
ENDROOT
BRANCH  10  16
ATOM      4  O   UNL     1      -6.804 -10.673  13.832  0.00  0.00    -0.274 OA
ATOM      9  N   UNL     1      -4.577 -10.903  14.469  0.00  0.00    -0.310 N 
ATOM     16  C   UNL     1      -5.888 -10.486  14.628  0.00  0.00    +0.231 C 
ATOM     33  H   UNL     1      -3.888 -10.666  15.176  0.00  0.00    +0.149 HD
BRANCH   9  19
ATOM     19  C   UNL     1      -4.114 -11.631  13.309  0.00  0.00    +0.139 C 
BRANCH  19  23
ATOM     23  C   UNL     1      -3.397 -10.741  12.336  0.00  0.00    -0.030 A 
ATOM     26  C   UNL     1      -4.094 -10.163  11.274  0.00  0.00    +0.005 A 
ATOM     27  C   UNL     1      -2.034 -10.490  12.494  0.00  0.00    +0.005 A 
ATOM     28  C   UNL     1      -3.427  -9.336  10.370  0.00  0.00    +0.000 A 
ATOM     29  C   UNL     1      -1.368  -9.663  11.590  0.00  0.00    +0.000 A 
ATOM     30  C   UNL     1      -2.065  -9.085  10.527  0.00  0.00    +0.000 A 
ENDBRANCH  19  23
ENDBRANCH   9  19
ENDBRANCH  10  16
BRANCH   6  15
ATOM     15  C   UNL     1      -7.885  -9.398  17.547  0.00  0.00    +0.120 C 
BRANCH  15  17
ATOM     17  C   UNL     1      -9.346  -9.106  17.371  0.00  0.00    -0.030 A 
ATOM     20  C   UNL     1      -9.780  -8.347  16.283  0.00  0.00    +0.051 A 
ATOM     21  C   UNL     1     -10.271  -9.592  18.295  0.00  0.00    +0.005 A 
ATOM     22  C   UNL     1     -11.139  -8.077  16.119  0.00  0.00    +0.130 A 
ATOM     24  C   UNL     1     -11.629  -9.322  18.130  0.00  0.00    +0.004 A 
ATOM     25  C   UNL     1     -12.063  -8.564  17.042  0.00  0.00    +0.046 A 
BRANCH  22   5
ATOM      5  O   UNL     1     -11.561  -7.338  15.057  0.00  0.00    -0.406 OA
BRANCH   5  31
ATOM      1  F   UNL     1     -11.232  -5.514  16.346  0.00  0.00    -0.133 F 
ATOM      2  F   UNL     1     -11.615  -5.212  14.216  0.00  0.00    -0.133 F 
ATOM      3  F   UNL     1     -13.241  -5.869  15.562  0.00  0.00    -0.133 F 
ATOM     31  C   UNL     1     -11.925  -5.981  15.282  0.00  0.00    +0.575 C 
ENDBRANCH   5  31
ENDBRANCH  22   5
ENDBRANCH  15  17
ENDBRANCH   6  15
TORSDOF 7
ENDMDL
MODEL 5
REMARK VINA RESULT:      -7.1     15.226     17.438
REMARK  Name = 25338874
REMARK  7 active torsions:
REMARK  status: ('A' for Active; 'I' for Inactive)
REMARK    1  A    between atoms: O_5  and  C_22
REMARK    2  A    between atoms: O_5  and  C_31
REMARK    3  A    between atoms: N_6  and  C_15
REMARK    4  A    between atoms: N_9  and  C_19
REMARK    5  A    between atoms: C_10  and  C_16
REMARK    6  A    between atoms: C_15  and  C_17
REMARK    7  A    between atoms: C_19  and  C_23
REMARK                            x       y       z     vdW  Elec       q    Type
REMARK                         _______ _______ _______ _____ _____    ______ ____
ROOT
ATOM      6  N   UNL     1      10.215   6.949   5.803  0.00  0.00    -0.281 NA
ATOM      7  N   UNL     1      10.407   4.267   8.432  0.00  0.00    -0.347 N 
ATOM      8  N   UNL     1       8.815   5.442   9.475  0.00  0.00    -0.240 NA
ATOM     10  C   UNL     1       9.653   7.961   6.737  0.00  0.00    +0.150 C 
ATOM     11  C   UNL     1       8.751   7.417   7.882  0.00  0.00    +0.085 C 
ATOM     12  C   UNL     1      10.937   5.840   6.483  0.00  0.00    +0.140 C 
ATOM     13  C   UNL     1      10.229   5.406   7.707  0.00  0.00    +0.053 A 
ATOM     14  C   UNL     1       9.254   6.111   8.367  0.00  0.00    +0.065 A 
ATOM     18  C   UNL     1       9.531   4.334   9.488  0.00  0.00    +0.197 A 
ATOM     32  H   UNL     1      11.057   3.517   8.238  0.00  0.00    +0.167 HD
ENDROOT
BRANCH  10  16
ATOM      4  O   UNL     1      10.723   9.382   8.335  0.00  0.00    -0.274 OA
ATOM      9  N   UNL     1      11.943   8.632   6.500  0.00  0.00    -0.310 N 
ATOM     16  C   UNL     1      10.815   8.733   7.297  0.00  0.00    +0.231 C 
ATOM     33  H   UNL     1      11.921   8.039   5.676  0.00  0.00    +0.149 HD
BRANCH   9  19
ATOM     19  C   UNL     1      13.188   9.300   6.805  0.00  0.00    +0.139 C 
BRANCH  19  23
ATOM     23  C   UNL     1      14.325   8.773   5.979  0.00  0.00    -0.030 A 
ATOM     26  C   UNL     1      14.097   7.767   5.039  0.00  0.00    +0.005 A 
ATOM     27  C   UNL     1      15.610   9.287   6.150  0.00  0.00    +0.005 A 
ATOM     28  C   UNL     1      15.153   7.276   4.271  0.00  0.00    +0.000 A 
ATOM     29  C   UNL     1      16.666   8.797   5.383  0.00  0.00    +0.000 A 
ATOM     30  C   UNL     1      16.438   7.791   4.443  0.00  0.00    +0.000 A 
ENDBRANCH  19  23
ENDBRANCH   9  19
ENDBRANCH  10  16
BRANCH   6  15
ATOM     15  C   UNL     1       9.177   6.431   4.907  0.00  0.00    +0.120 C 
BRANCH  15  17
ATOM     17  C   UNL     1       9.668   6.293   3.496  0.00  0.00    -0.030 A 
ATOM     20  C   UNL     1      10.350   5.140   3.104  0.00  0.00    +0.051 A 
ATOM     21  C   UNL     1       9.443   7.317   2.576  0.00  0.00    +0.005 A 
ATOM     22  C   UNL     1      10.805   5.013   1.792  0.00  0.00    +0.130 A 
ATOM     24  C   UNL     1       9.898   7.188   1.264  0.00  0.00    +0.004 A 
ATOM     25  C   UNL     1      10.580   6.036   0.872  0.00  0.00    +0.046 A 
BRANCH  22   5
ATOM      5  O   UNL     1      11.469   3.887   1.410  0.00  0.00    -0.406 OA
BRANCH   5  31
ATOM      1  F   UNL     1      13.332   4.936   2.133  0.00  0.00    -0.133 F 
ATOM      2  F   UNL     1      13.435   2.781   1.786  0.00  0.00    -0.133 F 
ATOM      3  F   UNL     1      13.307   4.183   0.081  0.00  0.00    -0.133 F 
ATOM     31  C   UNL     1      12.889   3.933   1.341  0.00  0.00    +0.575 C 
ENDBRANCH   5  31
ENDBRANCH  22   5
ENDBRANCH  15  17
ENDBRANCH   6  15
TORSDOF 7
ENDMDL
MODEL 6
REMARK VINA RESULT:      -7.1     16.098     18.313
REMARK  Name = 25338874
REMARK  7 active torsions:
REMARK  status: ('A' for Active; 'I' for Inactive)
REMARK    1  A    between atoms: O_5  and  C_22
REMARK    2  A    between atoms: O_5  and  C_31
REMARK    3  A    between atoms: N_6  and  C_15
REMARK    4  A    between atoms: N_9  and  C_19
REMARK    5  A    between atoms: C_10  and  C_16
REMARK    6  A    between atoms: C_15  and  C_17
REMARK    7  A    between atoms: C_19  and  C_23
REMARK                            x       y       z     vdW  Elec       q    Type
REMARK                         _______ _______ _______ _____ _____    ______ ____
ROOT
ATOM      6  N   UNL     1      11.376   5.874   2.859  0.00  0.00    -0.281 NA
ATOM      7  N   UNL     1       9.601   6.534  -0.390  0.00  0.00    -0.347 N 
ATOM      8  N   UNL     1      10.101   4.409  -0.875  0.00  0.00    -0.240 NA
ATOM     10  C   UNL     1      12.178   4.750   2.305  0.00  0.00    +0.150 C 
ATOM     11  C   UNL     1      11.506   3.913   1.180  0.00  0.00    +0.085 C 
ATOM     12  C   UNL     1      10.858   6.808   1.824  0.00  0.00    +0.140 C 
ATOM     13  C   UNL     1      10.383   6.079   0.627  0.00  0.00    +0.053 A 
ATOM     14  C   UNL     1      10.681   4.778   0.306  0.00  0.00    +0.065 A 
ATOM     18  C   UNL     1       9.458   5.491  -1.271  0.00  0.00    +0.197 A 
ATOM     32  H   UNL     1       9.203   7.459  -0.485  0.00  0.00    +0.167 HD
ENDROOT
BRANCH  10  16
ATOM      4  O   UNL     1      13.956   5.049   0.733  0.00  0.00    -0.274 OA
ATOM      9  N   UNL     1      14.048   6.180   2.766  0.00  0.00    -0.310 N 
ATOM     16  C   UNL     1      13.479   5.334   1.828  0.00  0.00    +0.231 C 
ATOM     33  H   UNL     1      13.551   6.373   3.630  0.00  0.00    +0.149 HD
BRANCH   9  19
ATOM     19  C   UNL     1      15.312   6.851   2.561  0.00  0.00    +0.139 C 
BRANCH  19  23
ATOM     23  C   UNL     1      15.814   7.499   3.819  0.00  0.00    -0.030 A 
ATOM     26  C   UNL     1      17.039   8.168   3.818  0.00  0.00    +0.005 A 
ATOM     27  C   UNL     1      15.057   7.433   4.989  0.00  0.00    +0.005 A 
ATOM     28  C   UNL     1      17.506   8.770   4.986  0.00  0.00    +0.000 A 
ATOM     29  C   UNL     1      15.524   8.035   6.157  0.00  0.00    +0.000 A 
ATOM     30  C   UNL     1      16.749   8.704   6.156  0.00  0.00    +0.000 A 
ENDBRANCH  19  23
ENDBRANCH   9  19
ENDBRANCH  10  16
BRANCH   6  15
ATOM     15  C   UNL     1      10.292   5.372   3.708  0.00  0.00    +0.120 C 
BRANCH  15  17
ATOM     17  C   UNL     1      10.576   5.584   5.167  0.00  0.00    -0.030 A 
ATOM     20  C   UNL     1       9.932   4.799   6.124  0.00  0.00    +0.051 A 
ATOM     21  C   UNL     1      11.482   6.566   5.566  0.00  0.00    +0.005 A 
ATOM     22  C   UNL     1      10.196   4.996   7.479  0.00  0.00    +0.130 A 
ATOM     24  C   UNL     1      11.746   6.763   6.921  0.00  0.00    +0.004 A 
ATOM     25  C   UNL     1      11.103   5.977   7.878  0.00  0.00    +0.046 A 
BRANCH  22   5
ATOM      5  O   UNL     1       9.568   4.229   8.412  0.00  0.00    -0.406 OA
BRANCH   5  31
ATOM      1  F   UNL     1       8.345   4.016  10.297  0.00  0.00    -0.133 F 
ATOM      2  F   UNL     1      10.288   5.005  10.440  0.00  0.00    -0.133 F 
ATOM      3  F   UNL     1       8.589   6.016   9.451  0.00  0.00    -0.133 F 
ATOM     31  C   UNL     1       9.207   4.832   9.649  0.00  0.00    +0.575 C 
ENDBRANCH   5  31
ENDBRANCH  22   5
ENDBRANCH  15  17
ENDBRANCH   6  15
TORSDOF 7
ENDMDL
MODEL 7
REMARK VINA RESULT:      -7.0     27.170     29.455
REMARK  Name = 25338874
REMARK  7 active torsions:
REMARK  status: ('A' for Active; 'I' for Inactive)
REMARK    1  A    between atoms: O_5  and  C_22
REMARK    2  A    between atoms: O_5  and  C_31
REMARK    3  A    between atoms: N_6  and  C_15
REMARK    4  A    between atoms: N_9  and  C_19
REMARK    5  A    between atoms: C_10  and  C_16
REMARK    6  A    between atoms: C_15  and  C_17
REMARK    7  A    between atoms: C_19  and  C_23
REMARK                            x       y       z     vdW  Elec       q    Type
REMARK                         _______ _______ _______ _____ _____    ______ ____
ROOT
ATOM      6  N   UNL     1      -4.877 -10.462  12.061  0.00  0.00    -0.281 NA
ATOM      7  N   UNL     1      -4.928 -11.780   8.539  0.00  0.00    -0.347 N 
ATOM      8  N   UNL     1      -5.024  -9.628   7.938  0.00  0.00    -0.240 NA
ATOM     10  C   UNL     1      -5.521  -9.172  11.691  0.00  0.00    +0.150 C 
ATOM     11  C   UNL     1      -5.215  -8.633  10.265  0.00  0.00    +0.085 C 
ATOM     12  C   UNL     1      -5.120 -11.556  11.083  0.00  0.00    +0.140 C 
ATOM     13  C   UNL     1      -5.043 -11.062   9.690  0.00  0.00    +0.053 A 
ATOM     14  C   UNL     1      -5.105  -9.748   9.297  0.00  0.00    +0.065 A 
ATOM     18  C   UNL     1      -4.920 -10.871   7.509  0.00  0.00    +0.197 A 
ATOM     32  H   UNL     1      -4.864 -12.786   8.453  0.00  0.00    +0.167 HD
ENDROOT
BRANCH  10  16
ATOM      4  O   UNL     1      -7.803  -9.160  10.976  0.00  0.00    -0.274 OA
ATOM      9  N   UNL     1      -7.318  -9.720  13.183  0.00  0.00    -0.310 N 
ATOM     16  C   UNL     1      -7.001  -9.351  11.886  0.00  0.00    +0.231 C 
ATOM     33  H   UNL     1      -6.572  -9.884  13.851  0.00  0.00    +0.149 HD
BRANCH   9  19
ATOM     19  C   UNL     1      -8.674  -9.932  13.635  0.00  0.00    +0.139 C 
BRANCH  19  23
ATOM     23  C   UNL     1      -8.929  -9.289  14.968  0.00  0.00    -0.030 A 
ATOM     26  C   UNL     1      -8.140  -9.629  16.068  0.00  0.00    +0.005 A 
ATOM     27  C   UNL     1      -9.952  -8.353  15.108  0.00  0.00    +0.005 A 
ATOM     28  C   UNL     1      -8.376  -9.033  17.307  0.00  0.00    +0.000 A 
ATOM     29  C   UNL     1     -10.188  -7.756  16.346  0.00  0.00    +0.000 A 
ATOM     30  C   UNL     1      -9.400  -8.096  17.446  0.00  0.00    +0.000 A 
ENDBRANCH  19  23
ENDBRANCH   9  19
ENDBRANCH  10  16
BRANCH   6  15
ATOM     15  C   UNL     1      -3.443 -10.279  12.303  0.00  0.00    +0.120 C 
BRANCH  15  17
ATOM     17  C   UNL     1      -3.077 -10.532  13.736  0.00  0.00    -0.030 A 
ATOM     20  C   UNL     1      -4.003 -11.120  14.599  0.00  0.00    +0.051 A 
ATOM     21  C   UNL     1      -1.811 -10.181  14.205  0.00  0.00    +0.005 A 
ATOM     22  C   UNL     1      -3.661 -11.356  15.931  0.00  0.00    +0.130 A 
ATOM     24  C   UNL     1      -1.471 -10.417  15.536  0.00  0.00    +0.004 A 
ATOM     25  C   UNL     1      -2.396 -11.005  16.400  0.00  0.00    +0.046 A 
BRANCH  22   5
ATOM      5  O   UNL     1      -4.564 -11.930  16.772  0.00  0.00    -0.406 OA
BRANCH   5  31
ATOM      1  F   UNL     1      -4.315 -11.260  18.913  0.00  0.00    -0.133 F 
ATOM      2  F   UNL     1      -5.139  -9.832  17.479  0.00  0.00    -0.133 F 
ATOM      3  F   UNL     1      -6.345 -11.556  18.158  0.00  0.00    -0.133 F 
ATOM     31  C   UNL     1      -5.106 -11.138  17.822  0.00  0.00    +0.575 C 
ENDBRANCH   5  31
ENDBRANCH  22   5
ENDBRANCH  15  17
ENDBRANCH   6  15
TORSDOF 7
ENDMDL
MODEL 8
REMARK VINA RESULT:      -7.0     14.749     16.561
REMARK  Name = 25338874
REMARK  7 active torsions:
REMARK  status: ('A' for Active; 'I' for Inactive)
REMARK    1  A    between atoms: O_5  and  C_22
REMARK    2  A    between atoms: O_5  and  C_31
REMARK    3  A    between atoms: N_6  and  C_15
REMARK    4  A    between atoms: N_9  and  C_19
REMARK    5  A    between atoms: C_10  and  C_16
REMARK    6  A    between atoms: C_15  and  C_17
REMARK    7  A    between atoms: C_19  and  C_23
REMARK                            x       y       z     vdW  Elec       q    Type
REMARK                         _______ _______ _______ _____ _____    ______ ____
ROOT
ATOM      6  N   UNL     1      10.436   7.090   5.389  0.00  0.00    -0.281 NA
ATOM      7  N   UNL     1      10.848   4.920   8.433  0.00  0.00    -0.347 N 
ATOM      8  N   UNL     1       8.850   5.721   9.040  0.00  0.00    -0.240 NA
ATOM     10  C   UNL     1       9.477   8.012   6.057  0.00  0.00    +0.150 C 
ATOM     11  C   UNL     1       8.560   7.384   7.144  0.00  0.00    +0.085 C 
ATOM     12  C   UNL     1      11.288   6.323   6.336  0.00  0.00    +0.140 C 
ATOM     13  C   UNL     1      10.513   5.863   7.510  0.00  0.00    +0.053 A 
ATOM     14  C   UNL     1       9.289   6.343   7.905  0.00  0.00    +0.065 A 
ATOM     18  C   UNL     1       9.813   4.869   9.335  0.00  0.00    +0.197 A 
ATOM     32  H   UNL     1      11.692   4.364   8.456  0.00  0.00    +0.167 HD
ENDROOT
BRANCH  10  16
ATOM      4  O   UNL     1      11.217   9.652   6.015  0.00  0.00    -0.274 OA
ATOM      9  N   UNL     1       9.863   9.495   7.902  0.00  0.00    -0.310 N 
ATOM     16  C   UNL     1      10.285   9.143   6.631  0.00  0.00    +0.231 C 
ATOM     33  H   UNL     1       9.057   9.030   8.308  0.00  0.00    +0.149 HD
BRANCH   9  19
ATOM     19  C   UNL     1      10.490  10.538   8.682  0.00  0.00    +0.139 C 
BRANCH  19  23
ATOM     23  C   UNL     1       9.487  11.514   9.224  0.00  0.00    -0.030 A 
ATOM     26  C   UNL     1       8.895  12.450   8.375  0.00  0.00    +0.005 A 
ATOM     27  C   UNL     1       9.146  11.487  10.576  0.00  0.00    +0.005 A 
ATOM     28  C   UNL     1       7.963  13.357   8.878  0.00  0.00    +0.000 A 
ATOM     29  C   UNL     1       8.214  12.394  11.079  0.00  0.00    +0.000 A 
ATOM     30  C   UNL     1       7.622  13.330  10.230  0.00  0.00    +0.000 A 
ENDBRANCH  19  23
ENDBRANCH   9  19
ENDBRANCH  10  16
BRANCH   6  15
ATOM     15  C   UNL     1       9.739   6.195   4.462  0.00  0.00    +0.120 C 
BRANCH  15  17
ATOM     17  C   UNL     1      10.454   6.078   3.148  0.00  0.00    -0.030 A 
ATOM     20  C   UNL     1      11.741   5.540   3.100  0.00  0.00    +0.051 A 
ATOM     21  C   UNL     1       9.833   6.508   1.975  0.00  0.00    +0.005 A 
ATOM     22  C   UNL     1      12.405   5.430   1.878  0.00  0.00    +0.130 A 
ATOM     24  C   UNL     1      10.498   6.398   0.754  0.00  0.00    +0.004 A 
ATOM     25  C   UNL     1      11.784   5.859   0.705  0.00  0.00    +0.046 A 
BRANCH  22   5
ATOM      5  O   UNL     1      13.660   4.904   1.831  0.00  0.00    -0.406 OA
BRANCH   5  31
ATOM      1  F   UNL     1      14.903   3.040   2.102  0.00  0.00    -0.133 F 
ATOM      2  F   UNL     1      12.739   2.812   1.906  0.00  0.00    -0.133 F 
ATOM      3  F   UNL     1      13.966   3.377   0.156  0.00  0.00    -0.133 F 
ATOM     31  C   UNL     1      13.802   3.531   1.488  0.00  0.00    +0.575 C 
ENDBRANCH   5  31
ENDBRANCH  22   5
ENDBRANCH  15  17
ENDBRANCH   6  15
TORSDOF 7
ENDMDL
MODEL 9
REMARK VINA RESULT:      -6.9     17.351     19.084
REMARK  Name = 25338874
REMARK  7 active torsions:
REMARK  status: ('A' for Active; 'I' for Inactive)
REMARK    1  A    between atoms: O_5  and  C_22
REMARK    2  A    between atoms: O_5  and  C_31
REMARK    3  A    between atoms: N_6  and  C_15
REMARK    4  A    between atoms: N_9  and  C_19
REMARK    5  A    between atoms: C_10  and  C_16
REMARK    6  A    between atoms: C_15  and  C_17
REMARK    7  A    between atoms: C_19  and  C_23
REMARK                            x       y       z     vdW  Elec       q    Type
REMARK                         _______ _______ _______ _____ _____    ______ ____
ROOT
ATOM      6  N   UNL     1      10.266   5.961   3.934  0.00  0.00    -0.281 NA
ATOM      7  N   UNL     1      11.614   6.170   7.438  0.00  0.00    -0.347 N 
ATOM      8  N   UNL     1       9.559   5.550   8.063  0.00  0.00    -0.240 NA
ATOM     10  C   UNL     1       8.853   6.145   4.363  0.00  0.00    +0.150 C 
ATOM     11  C   UNL     1       8.480   5.586   5.765  0.00  0.00    +0.085 C 
ATOM     12  C   UNL     1      11.262   6.462   4.919  0.00  0.00    +0.140 C 
ATOM     13  C   UNL     1      10.860   6.138   6.306  0.00  0.00    +0.053 A 
ATOM     14  C   UNL     1       9.605   5.760   6.713  0.00  0.00    +0.065 A 
ATOM     18  C   UNL     1      10.786   5.807   8.472  0.00  0.00    +0.197 A 
ATOM     32  H   UNL     1      12.593   6.416   7.511  0.00  0.00    +0.167 HD
ENDROOT
BRANCH  10  16
ATOM      4  O   UNL     1       8.264   8.276   5.275  0.00  0.00    -0.274 OA
ATOM      9  N   UNL     1       8.639   8.096   2.984  0.00  0.00    -0.310 N 
ATOM     16  C   UNL     1       8.559   7.617   4.281  0.00  0.00    +0.231 C 
ATOM     33  H   UNL     1       8.925   7.470   2.238  0.00  0.00    +0.149 HD
BRANCH   9  19
ATOM     19  C   UNL     1       8.378   9.474   2.633  0.00  0.00    +0.139 C 
BRANCH  19  23
ATOM     23  C   UNL     1       6.980   9.668   2.121  0.00  0.00    -0.030 A 
ATOM     26  C   UNL     1       5.953   9.997   3.006  0.00  0.00    +0.005 A 
ATOM     27  C   UNL     1       6.708   9.520   0.762  0.00  0.00    +0.005 A 
ATOM     28  C   UNL     1       4.654  10.178   2.532  0.00  0.00    +0.000 A 
ATOM     29  C   UNL     1       5.409   9.701   0.287  0.00  0.00    +0.000 A 
ATOM     30  C   UNL     1       4.381  10.030   1.172  0.00  0.00    +0.000 A 
ENDBRANCH  19  23
ENDBRANCH   9  19
ENDBRANCH  10  16
BRANCH   6  15
ATOM     15  C   UNL     1      10.527   4.563   3.584  0.00  0.00    +0.120 C 
BRANCH  15  17
ATOM     17  C   UNL     1      11.045   4.420   2.182  0.00  0.00    -0.030 A 
ATOM     20  C   UNL     1      12.307   3.870   1.957  0.00  0.00    +0.051 A 
ATOM     21  C   UNL     1      10.264   4.838   1.105  0.00  0.00    +0.005 A 
ATOM     22  C   UNL     1      12.787   3.737   0.654  0.00  0.00    +0.130 A 
ATOM     24  C   UNL     1      10.744   4.705  -0.198  0.00  0.00    +0.004 A 
ATOM     25  C   UNL     1      12.006   4.155  -0.423  0.00  0.00    +0.046 A 
BRANCH  22   5
ATOM      5  O   UNL     1      14.018   3.200   0.435  0.00  0.00    -0.406 OA
BRANCH   5  31
ATOM      1  F   UNL     1      15.342   3.301   2.259  0.00  0.00    -0.133 F 
ATOM      2  F   UNL     1      16.262   3.618   0.303  0.00  0.00    -0.133 F 
ATOM      3  F   UNL     1      14.938   5.157   1.178  0.00  0.00    -0.133 F 
ATOM     31  C   UNL     1      15.145   3.830   1.031  0.00  0.00    +0.575 C 
ENDBRANCH   5  31
ENDBRANCH  22   5
ENDBRANCH  15  17
ENDBRANCH   6  15
TORSDOF 7
ENDMDL
MODEL 10
REMARK VINA RESULT:      -6.8     14.623     16.685
REMARK  Name = 25338874
REMARK  7 active torsions:
REMARK  status: ('A' for Active; 'I' for Inactive)
REMARK    1  A    between atoms: O_5  and  C_22
REMARK    2  A    between atoms: O_5  and  C_31
REMARK    3  A    between atoms: N_6  and  C_15
REMARK    4  A    between atoms: N_9  and  C_19
REMARK    5  A    between atoms: C_10  and  C_16
REMARK    6  A    between atoms: C_15  and  C_17
REMARK    7  A    between atoms: C_19  and  C_23
REMARK                            x       y       z     vdW  Elec       q    Type
REMARK                         _______ _______ _______ _____ _____    ______ ____
ROOT
ATOM      6  N   UNL     1      10.662   7.152   5.765  0.00  0.00    -0.281 NA
ATOM      7  N   UNL     1      10.644   4.638   8.561  0.00  0.00    -0.347 N 
ATOM      8  N   UNL     1       8.719   5.605   9.163  0.00  0.00    -0.240 NA
ATOM     10  C   UNL     1       9.778   8.107   6.487  0.00  0.00    +0.150 C 
ATOM     11  C   UNL     1       8.733   7.482   7.454  0.00  0.00    +0.085 C 
ATOM     12  C   UNL     1      11.364   6.192   6.658  0.00  0.00    +0.140 C 
ATOM     13  C   UNL     1      10.474   5.707   7.736  0.00  0.00    +0.053 A 
ATOM     14  C   UNL     1       9.292   6.286   8.126  0.00  0.00    +0.065 A 
ATOM     18  C   UNL     1       9.559   4.617   9.404  0.00  0.00    +0.197 A 
ATOM     32  H   UNL     1      11.416   3.985   8.561  0.00  0.00    +0.167 HD
ENDROOT
BRANCH  10  16
ATOM      4  O   UNL     1      10.389   9.501   8.332  0.00  0.00    -0.274 OA
ATOM      9  N   UNL     1      11.805   9.389   6.487  0.00  0.00    -0.310 N 
ATOM     16  C   UNL     1      10.676   9.065   7.220  0.00  0.00    +0.231 C 
ATOM     33  H   UNL     1      11.962   8.944   5.588  0.00  0.00    +0.149 HD
BRANCH   9  19
ATOM     19  C   UNL     1      12.816  10.309   6.958  0.00  0.00    +0.139 C 
BRANCH  19  23
ATOM     23  C   UNL     1      14.201   9.852   6.604  0.00  0.00    -0.030 A 
ATOM     26  C   UNL     1      14.439   8.508   6.315  0.00  0.00    +0.005 A 
ATOM     27  C   UNL     1      15.250  10.770   6.562  0.00  0.00    +0.005 A 
ATOM     28  C   UNL     1      15.726   8.083   5.985  0.00  0.00    +0.000 A 
ATOM     29  C   UNL     1      16.537  10.345   6.232  0.00  0.00    +0.000 A 
ATOM     30  C   UNL     1      16.775   9.001   5.944  0.00  0.00    +0.000 A 
ENDBRANCH  19  23
ENDBRANCH   9  19
ENDBRANCH  10  16
BRANCH   6  15
ATOM     15  C   UNL     1       9.923   6.451   4.712  0.00  0.00    +0.120 C 
BRANCH  15  17
ATOM     17  C   UNL     1      10.839   5.803   3.716  0.00  0.00    -0.030 A 
ATOM     20  C   UNL     1      11.829   6.558   3.085  0.00  0.00    +0.051 A 
ATOM     21  C   UNL     1      10.701   4.447   3.419  0.00  0.00    +0.005 A 
ATOM     22  C   UNL     1      12.681   5.955   2.160  0.00  0.00    +0.130 A 
ATOM     24  C   UNL     1      11.553   3.846   2.494  0.00  0.00    +0.004 A 
ATOM     25  C   UNL     1      12.544   4.600   1.864  0.00  0.00    +0.046 A 
BRANCH  22   5
ATOM      5  O   UNL     1      13.648   6.692   1.546  0.00  0.00    -0.406 OA
BRANCH   5  31
ATOM      1  F   UNL     1      14.526   8.275   2.894  0.00  0.00    -0.133 F 
ATOM      2  F   UNL     1      15.045   6.189   3.286  0.00  0.00    -0.133 F 
ATOM      3  F   UNL     1      15.870   7.233   1.521  0.00  0.00    -0.133 F 
ATOM     31  C   UNL     1      14.783   7.083   2.308  0.00  0.00    +0.575 C 
ENDBRANCH   5  31
ENDBRANCH  22   5
ENDBRANCH  15  17
ENDBRANCH   6  15
TORSDOF 7
ENDMDL
