MODEL 1
REMARK VINA RESULT:      -8.0      0.000      0.000
REMARK  Name = 11884237
REMARK  3 active torsions:
REMARK  status: ('A' for Active; 'I' for Inactive)
REMARK    1  A    between atoms: C_16  and  C_17
REMARK    2  A    between atoms: C_26  and  C_28
REMARK    3  A    between atoms: C_31  and  C_34
REMARK                            x       y       z     vdW  Elec       q    Type
REMARK                         _______ _______ _______ _____ _____    ______ ____
ROOT
ATOM      5  O   UNL     1     -13.743 -12.082  19.356  0.00  0.00    -0.274 OA
ATOM      6  O   UNL     1     -10.131 -10.812  20.430  0.00  0.00    -0.273 OA
ATOM      7  O   UNL     1      -8.278  -8.502  16.053  0.00  0.00    -0.270 OA
ATOM      8  N   UNL     1      -9.665  -9.861  17.310  0.00  0.00    -0.283 N 
ATOM      9  N   UNL     1     -12.277 -10.576  18.355  0.00  0.00    -0.296 N 
ATOM     10  N   UNL     1      -8.007 -10.656  19.627  0.00  0.00    -0.283 N 
ATOM     12  C   UNL     1      -9.850 -11.102  18.051  0.00  0.00    +0.180 C 
ATOM     13  C   UNL     1     -11.296 -11.608  18.008  0.00  0.00    +0.139 C 
ATOM     14  C   UNL     1     -10.871  -9.137  16.903  0.00  0.00    +0.128 C 
ATOM     15  C   UNL     1     -11.958  -9.200  17.964  0.00  0.00    +0.127 C 
ATOM     16  C   UNL     1     -13.453 -10.937  19.018  0.00  0.00    +0.234 C 
ATOM     18  C   UNL     1      -9.366 -10.817  19.464  0.00  0.00    +0.239 C 
ATOM     19  C   UNL     1      -8.426  -9.441  16.837  0.00  0.00    +0.249 C 
ATOM     20  C   UNL     1      -7.200 -10.135  17.316  0.00  0.00    +0.059 A 
ATOM     22  C   UNL     1      -7.010 -10.587  18.632  0.00  0.00    +0.046 A 
ATOM     24  C   UNL     1      -6.119 -10.160  16.416  0.00  0.00    +0.023 A 
ATOM     25  C   UNL     1      -5.724 -10.989  19.035  0.00  0.00    +0.024 A 
ATOM     26  C   UNL     1      -4.861 -10.608  16.820  0.00  0.00    -0.017 A 
ATOM     27  C   UNL     1      -4.660 -11.009  18.134  0.00  0.00    +0.010 A 
ATOM     35  H   UNL     1      -7.676 -10.690  20.589  0.00  0.00    +0.155 HD
ENDROOT
BRANCH  16  17
ATOM      1  S   UNL     1     -16.100  -8.784  21.048  0.00  0.00    -0.143 S 
ATOM     11  N   UNL     1     -15.749 -10.333  18.924  0.00  0.00    -0.296 NA
ATOM     17  C   UNL     1     -14.426  -9.846  19.319  0.00  0.00    +0.151 C 
ATOM     21  C   UNL     1     -14.475  -9.542  20.811  0.00  0.00    +0.098 C 
ATOM     23  C   UNL     1     -16.726  -9.389  19.459  0.00  0.00    +0.151 C 
ATOM     36  H   UNL     1     -15.912 -11.236  19.371  0.00  0.00    +0.123 HD
ENDBRANCH  16  17
BRANCH  26  28
ATOM     28  C   UNL     1      -3.763 -10.631  15.878  0.00  0.00    -0.017 A 
ATOM     29  C   UNL     1      -4.020 -10.625  14.507  0.00  0.00    +0.021 A 
ATOM     30  C   UNL     1      -2.448 -10.662  16.341  0.00  0.00    +0.008 A 
ATOM     31  C   UNL     1      -2.959 -10.650  13.599  0.00  0.00    +0.055 A 
ATOM     32  C   UNL     1      -1.389 -10.685  15.434  0.00  0.00    +0.001 A 
ATOM     33  C   UNL     1      -1.645 -10.679  14.063  0.00  0.00    +0.012 A 
BRANCH  31  34
ATOM      2  F   UNL     1      -2.226 -10.094  11.392  0.00  0.00    -0.166 F 
ATOM      3  F   UNL     1      -3.424 -11.889  11.607  0.00  0.00    -0.166 F 
ATOM      4  F   UNL     1      -4.353  -9.934  11.811  0.00  0.00    -0.166 F 
ATOM     34  C   UNL     1      -3.233 -10.643  12.133  0.00  0.00    +0.417 C 
ENDBRANCH  31  34
ENDBRANCH  26  28
TORSDOF 3
ENDMDL
MODEL 2
REMARK VINA RESULT:      -7.8     29.707     33.845
REMARK  Name = 11884237
REMARK  3 active torsions:
REMARK  status: ('A' for Active; 'I' for Inactive)
REMARK    1  A    between atoms: C_16  and  C_17
REMARK    2  A    between atoms: C_26  and  C_28
REMARK    3  A    between atoms: C_31  and  C_34
REMARK                            x       y       z     vdW  Elec       q    Type
REMARK                         _______ _______ _______ _____ _____    ______ ____
ROOT
ATOM      5  O   UNL     1      23.633   5.343  24.926  0.00  0.00    -0.274 OA
ATOM      6  O   UNL     1      22.056   5.483  21.279  0.00  0.00    -0.273 OA
ATOM      7  O   UNL     1      18.668   9.531  21.550  0.00  0.00    -0.270 OA
ATOM      8  N   UNL     1      20.057   7.868  22.362  0.00  0.00    -0.283 N 
ATOM      9  N   UNL     1      22.391   6.989  23.846  0.00  0.00    -0.296 N 
ATOM     10  N   UNL     1      20.061   5.814  20.233  0.00  0.00    -0.283 N 
ATOM     12  C   UNL     1      20.286   6.450  22.605  0.00  0.00    +0.180 C 
ATOM     13  C   UNL     1      21.160   6.194  23.838  0.00  0.00    +0.139 C 
ATOM     14  C   UNL     1      20.891   8.818  23.099  0.00  0.00    +0.128 C 
ATOM     15  C   UNL     1      22.322   8.324  23.247  0.00  0.00    +0.127 C 
ATOM     16  C   UNL     1      23.550   6.458  24.419  0.00  0.00    +0.234 C 
ATOM     18  C   UNL     1      20.898   5.904  21.325  0.00  0.00    +0.239 C 
ATOM     19  C   UNL     1      18.987   8.342  21.609  0.00  0.00    +0.249 C 
ATOM     20  C   UNL     1      18.191   7.377  20.803  0.00  0.00    +0.059 A 
ATOM     22  C   UNL     1      18.739   6.288  20.105  0.00  0.00    +0.046 A 
ATOM     24  C   UNL     1      16.840   7.713  20.604  0.00  0.00    +0.023 A 
ATOM     25  C   UNL     1      17.938   5.605  19.173  0.00  0.00    +0.024 A 
ATOM     26  C   UNL     1      16.046   6.993  19.711  0.00  0.00    -0.017 A 
ATOM     27  C   UNL     1      16.600   5.948  18.984  0.00  0.00    +0.010 A 
ATOM     35  H   UNL     1      20.409   5.249  19.461  0.00  0.00    +0.155 HD
ENDROOT
BRANCH  16  17
ATOM      1  S   UNL     1      27.372   7.489  24.732  0.00  0.00    -0.143 S 
ATOM     11  N   UNL     1      24.962   7.780  25.799  0.00  0.00    -0.296 NA
ATOM     17  C   UNL     1      24.765   7.326  24.422  0.00  0.00    +0.151 C 
ATOM     21  C   UNL     1      26.006   6.544  24.014  0.00  0.00    +0.098 C 
ATOM     23  C   UNL     1      26.283   8.398  25.858  0.00  0.00    +0.151 C 
ATOM     36  H   UNL     1      24.973   6.965  26.414  0.00  0.00    +0.123 HD
ENDBRANCH  16  17
BRANCH  26  28
ATOM     28  C   UNL     1      14.657   7.351  19.523  0.00  0.00    -0.017 A 
ATOM     29  C   UNL     1      13.730   7.101  20.535  0.00  0.00    +0.021 A 
ATOM     30  C   UNL     1      14.245   7.944  18.330  0.00  0.00    +0.008 A 
ATOM     31  C   UNL     1      12.389   7.445  20.352  0.00  0.00    +0.055 A 
ATOM     32  C   UNL     1      12.905   8.288  18.149  0.00  0.00    +0.001 A 
ATOM     33  C   UNL     1      11.978   8.038  19.159  0.00  0.00    +0.012 A 
BRANCH  31  34
ATOM      2  F   UNL     1      11.382   5.878  21.853  0.00  0.00    -0.166 F 
ATOM      3  F   UNL     1      11.610   7.914  22.564  0.00  0.00    -0.166 F 
ATOM      4  F   UNL     1      10.117   7.455  21.052  0.00  0.00    -0.166 F 
ATOM     34  C   UNL     1      11.397   7.178  21.433  0.00  0.00    +0.417 C 
ENDBRANCH  31  34
ENDBRANCH  26  28
TORSDOF 3
ENDMDL
MODEL 3
REMARK VINA RESULT:      -7.4     22.488     25.625
REMARK  Name = 11884237
REMARK  3 active torsions:
REMARK  status: ('A' for Active; 'I' for Inactive)
REMARK    1  A    between atoms: C_16  and  C_17
REMARK    2  A    between atoms: C_26  and  C_28
REMARK    3  A    between atoms: C_31  and  C_34
REMARK                            x       y       z     vdW  Elec       q    Type
REMARK                         _______ _______ _______ _____ _____    ______ ____
ROOT
ATOM      5  O   UNL     1     -10.852  11.779  35.818  0.00  0.00    -0.274 OA
ATOM      6  O   UNL     1     -14.325  10.408  34.452  0.00  0.00    -0.273 OA
ATOM      7  O   UNL     1     -13.918   5.174  35.065  0.00  0.00    -0.270 OA
ATOM      8  N   UNL     1     -13.167   7.357  34.908  0.00  0.00    -0.283 N 
ATOM      9  N   UNL     1     -11.883   9.703  36.035  0.00  0.00    -0.296 N 
ATOM     10  N   UNL     1     -15.181   8.703  33.210  0.00  0.00    -0.283 N 
ATOM     12  C   UNL     1     -12.879   8.513  34.071  0.00  0.00    +0.180 C 
ATOM     13  C   UNL     1     -11.728   9.367  34.617  0.00  0.00    +0.139 C 
ATOM     14  C   UNL     1     -12.566   7.327  36.242  0.00  0.00    +0.128 C 
ATOM     15  C   UNL     1     -12.537   8.705  36.885  0.00  0.00    +0.127 C 
ATOM     16  C   UNL     1     -11.403  10.926  36.510  0.00  0.00    +0.234 C 
ATOM     18  C   UNL     1     -14.185   9.284  33.964  0.00  0.00    +0.239 C 
ATOM     19  C   UNL     1     -13.832   6.230  34.435  0.00  0.00    +0.249 C 
ATOM     20  C   UNL     1     -14.506   6.295  33.110  0.00  0.00    +0.059 A 
ATOM     22  C   UNL     1     -15.200   7.418  32.629  0.00  0.00    +0.046 A 
ATOM     24  C   UNL     1     -14.585   5.081  32.403  0.00  0.00    +0.023 A 
ATOM     25  C   UNL     1     -16.012   7.279  31.490  0.00  0.00    +0.024 A 
ATOM     26  C   UNL     1     -15.357   4.976  31.246  0.00  0.00    -0.017 A 
ATOM     27  C   UNL     1     -16.082   6.071  30.798  0.00  0.00    +0.010 A 
ATOM     35  H   UNL     1     -15.955   9.315  32.961  0.00  0.00    +0.155 HD
ENDROOT
BRANCH  16  17
ATOM      1  S   UNL     1     -11.458  12.962  39.919  0.00  0.00    -0.143 S 
ATOM     11  N   UNL     1     -10.251  11.013  38.586  0.00  0.00    -0.296 NA
ATOM     17  C   UNL     1     -11.565  11.200  37.969  0.00  0.00    +0.151 C 
ATOM     21  C   UNL     1     -11.989  12.641  38.220  0.00  0.00    +0.098 C 
ATOM     23  C   UNL     1     -10.343  11.535  39.947  0.00  0.00    +0.151 C 
ATOM     36  H   UNL     1      -9.568  11.579  38.081  0.00  0.00    +0.123 HD
ENDBRANCH  16  17
BRANCH  26  28
ATOM     28  C   UNL     1     -15.422   3.720  30.529  0.00  0.00    -0.017 A 
ATOM     29  C   UNL     1     -15.179   2.521  31.200  0.00  0.00    +0.021 A 
ATOM     30  C   UNL     1     -15.726   3.709  29.168  0.00  0.00    +0.008 A 
ATOM     31  C   UNL     1     -15.239   1.311  30.507  0.00  0.00    +0.055 A 
ATOM     32  C   UNL     1     -15.787   2.499  28.477  0.00  0.00    +0.001 A 
ATOM     33  C   UNL     1     -15.544   1.300  29.146  0.00  0.00    +0.012 A 
BRANCH  31  34
ATOM      2  F   UNL     1     -13.785  -0.547  30.899  0.00  0.00    -0.166 F 
ATOM      3  F   UNL     1     -14.955   0.157  32.583  0.00  0.00    -0.166 F 
ATOM      4  F   UNL     1     -15.926  -0.920  30.963  0.00  0.00    -0.166 F 
ATOM     34  C   UNL     1     -14.980   0.029  31.223  0.00  0.00    +0.417 C 
ENDBRANCH  31  34
ENDBRANCH  26  28
TORSDOF 3
ENDMDL
MODEL 4
REMARK VINA RESULT:      -7.3      6.417      9.907
REMARK  Name = 11884237
REMARK  3 active torsions:
REMARK  status: ('A' for Active; 'I' for Inactive)
REMARK    1  A    between atoms: C_16  and  C_17
REMARK    2  A    between atoms: C_26  and  C_28
REMARK    3  A    between atoms: C_31  and  C_34
REMARK                            x       y       z     vdW  Elec       q    Type
REMARK                         _______ _______ _______ _____ _____    ______ ____
ROOT
ATOM      5  O   UNL     1      -2.713 -10.205  16.157  0.00  0.00    -0.274 OA
ATOM      6  O   UNL     1      -5.286  -9.606  13.186  0.00  0.00    -0.273 OA
ATOM      7  O   UNL     1      -4.926 -14.035  10.324  0.00  0.00    -0.270 OA
ATOM      8  N   UNL     1      -4.273 -12.460  11.888  0.00  0.00    -0.283 N 
ATOM      9  N   UNL     1      -3.651 -11.671  14.611  0.00  0.00    -0.296 N 
ATOM     10  N   UNL     1      -5.498  -9.939  10.944  0.00  0.00    -0.283 N 
ATOM     12  C   UNL     1      -3.726 -11.140  12.167  0.00  0.00    +0.180 C 
ATOM     13  C   UNL     1      -2.928 -11.093  13.476  0.00  0.00    +0.139 C 
ATOM     14  C   UNL     1      -4.254 -13.438  12.978  0.00  0.00    +0.128 C 
ATOM     15  C   UNL     1      -4.546 -12.796  14.325  0.00  0.00    +0.127 C 
ATOM     16  C   UNL     1      -3.456 -11.146  15.892  0.00  0.00    +0.234 C 
ATOM     18  C   UNL     1      -4.913 -10.190  12.166  0.00  0.00    +0.239 C 
ATOM     19  C   UNL     1      -4.643 -12.870  10.611  0.00  0.00    +0.249 C 
ATOM     20  C   UNL     1      -4.733 -11.855   9.528  0.00  0.00    +0.059 A 
ATOM     22  C   UNL     1      -5.226 -10.552   9.703  0.00  0.00    +0.046 A 
ATOM     24  C   UNL     1      -4.469 -12.322   8.227  0.00  0.00    +0.023 A 
ATOM     25  C   UNL     1      -5.508  -9.772   8.568  0.00  0.00    +0.024 A 
ATOM     26  C   UNL     1      -4.709 -11.516   7.114  0.00  0.00    -0.017 A 
ATOM     27  C   UNL     1      -5.242 -10.246   7.284  0.00  0.00    +0.010 A 
ATOM     35  H   UNL     1      -6.134  -9.145  10.919  0.00  0.00    +0.155 HD
ENDROOT
BRANCH  16  17
ATOM      1  S   UNL     1      -5.726 -11.486  19.132  0.00  0.00    -0.143 S 
ATOM     11  N   UNL     1      -3.288 -11.848  18.155  0.00  0.00    -0.296 NA
ATOM     17  C   UNL     1      -4.199 -11.795  17.012  0.00  0.00    +0.151 C 
ATOM     21  C   UNL     1      -5.410 -10.969  17.428  0.00  0.00    +0.098 C 
ATOM     23  C   UNL     1      -4.085 -12.229  19.318  0.00  0.00    +0.151 C 
ATOM     36  H   UNL     1      -2.920 -10.910  18.325  0.00  0.00    +0.123 HD
ENDBRANCH  16  17
BRANCH  26  28
ATOM     28  C   UNL     1      -4.426 -12.013   5.784  0.00  0.00    -0.017 A 
ATOM     29  C   UNL     1      -3.251 -12.723   5.540  0.00  0.00    +0.021 A 
ATOM     30  C   UNL     1      -5.328 -11.779   4.747  0.00  0.00    +0.008 A 
ATOM     31  C   UNL     1      -2.978 -13.199   4.257  0.00  0.00    +0.055 A 
ATOM     32  C   UNL     1      -5.056 -12.256   3.465  0.00  0.00    +0.001 A 
ATOM     33  C   UNL     1      -3.881 -12.966   3.220  0.00  0.00    +0.012 A 
BRANCH  31  34
ATOM      2  F   UNL     1      -1.921 -15.294   3.794  0.00  0.00    -0.166 F 
ATOM      3  F   UNL     1      -1.044 -13.529   2.890  0.00  0.00    -0.166 F 
ATOM      4  F   UNL     1      -0.831 -13.873   5.026  0.00  0.00    -0.166 F 
ATOM     34  C   UNL     1      -1.721 -13.958   3.995  0.00  0.00    +0.417 C 
ENDBRANCH  31  34
ENDBRANCH  26  28
TORSDOF 3
ENDMDL
MODEL 5
REMARK VINA RESULT:      -7.3      2.397      3.027
REMARK  Name = 11884237
REMARK  3 active torsions:
REMARK  status: ('A' for Active; 'I' for Inactive)
REMARK    1  A    between atoms: C_16  and  C_17
REMARK    2  A    between atoms: C_26  and  C_28
REMARK    3  A    between atoms: C_31  and  C_34
REMARK                            x       y       z     vdW  Elec       q    Type
REMARK                         _______ _______ _______ _____ _____    ______ ____
ROOT
ATOM      5  O   UNL     1     -10.495 -14.643  20.562  0.00  0.00    -0.274 OA
ATOM      6  O   UNL     1      -7.396 -12.178  20.210  0.00  0.00    -0.273 OA
ATOM      7  O   UNL     1      -8.179  -9.864  15.523  0.00  0.00    -0.270 OA
ATOM      8  N   UNL     1      -8.462 -11.458  17.176  0.00  0.00    -0.283 N 
ATOM      9  N   UNL     1     -10.100 -12.859  19.119  0.00  0.00    -0.296 N 
ATOM     10  N   UNL     1      -5.903 -11.433  18.661  0.00  0.00    -0.283 N 
ATOM     12  C   UNL     1      -7.931 -12.607  17.896  0.00  0.00    +0.180 C 
ATOM     13  C   UNL     1      -9.031 -13.552  18.395  0.00  0.00    +0.139 C 
ATOM     14  C   UNL     1      -9.900 -11.205  17.281  0.00  0.00    +0.128 C 
ATOM     15  C   UNL     1     -10.430 -11.502  18.675  0.00  0.00    +0.127 C 
ATOM     16  C   UNL     1     -10.753 -13.508  20.171  0.00  0.00    +0.234 C 
ATOM     18  C   UNL     1      -7.087 -12.037  19.025  0.00  0.00    +0.239 C 
ATOM     19  C   UNL     1      -7.703 -10.714  16.278  0.00  0.00    +0.249 C 
ATOM     20  C   UNL     1      -6.231 -10.924  16.233  0.00  0.00    +0.059 A 
ATOM     22  C   UNL     1      -5.429 -11.152  17.363  0.00  0.00    +0.046 A 
ATOM     24  C   UNL     1      -5.617 -10.695  14.987  0.00  0.00    +0.023 A 
ATOM     25  C   UNL     1      -4.031 -11.075  17.232  0.00  0.00    +0.024 A 
ATOM     26  C   UNL     1      -4.227 -10.671  14.867  0.00  0.00    -0.017 A 
ATOM     27  C   UNL     1      -3.434 -10.847  15.993  0.00  0.00    +0.010 A 
ATOM     35  H   UNL     1      -5.250 -11.258  19.422  0.00  0.00    +0.155 HD
ENDROOT
BRANCH  16  17
ATOM      1  S   UNL     1     -13.839 -12.825  22.574  0.00  0.00    -0.143 S 
ATOM     11  N   UNL     1     -13.058 -12.946  20.043  0.00  0.00    -0.296 NA
ATOM     17  C   UNL     1     -11.852 -12.761  20.851  0.00  0.00    +0.151 C 
ATOM     21  C   UNL     1     -12.136 -13.331  22.235  0.00  0.00    +0.098 C 
ATOM     23  C   UNL     1     -14.181 -12.452  20.835  0.00  0.00    +0.151 C 
ATOM     36  H   UNL     1     -13.201 -13.946  19.891  0.00  0.00    +0.123 HD
ENDBRANCH  16  17
BRANCH  26  28
ATOM     28  C   UNL     1      -3.615 -10.438  13.577  0.00  0.00    -0.017 A 
ATOM     29  C   UNL     1      -4.400 -10.046  12.493  0.00  0.00    +0.021 A 
ATOM     30  C   UNL     1      -2.240 -10.609  13.418  0.00  0.00    +0.008 A 
ATOM     31  C   UNL     1      -3.809  -9.824  11.249  0.00  0.00    +0.055 A 
ATOM     32  C   UNL     1      -1.650 -10.386  12.174  0.00  0.00    +0.001 A 
ATOM     33  C   UNL     1      -2.433  -9.994  11.089  0.00  0.00    +0.012 A 
BRANCH  31  34
ATOM      2  F   UNL     1      -4.958  -8.074  10.092  0.00  0.00    -0.166 F 
ATOM      3  F   UNL     1      -4.057  -9.629   8.878  0.00  0.00    -0.166 F 
ATOM      4  F   UNL     1      -5.843 -10.059  10.040  0.00  0.00    -0.166 F 
ATOM     34  C   UNL     1      -4.647  -9.404  10.089  0.00  0.00    +0.417 C 
ENDBRANCH  31  34
ENDBRANCH  26  28
TORSDOF 3
ENDMDL
MODEL 6
REMARK VINA RESULT:      -7.2     21.188     23.780
REMARK  Name = 11884237
REMARK  3 active torsions:
REMARK  status: ('A' for Active; 'I' for Inactive)
REMARK    1  A    between atoms: C_16  and  C_17
REMARK    2  A    between atoms: C_26  and  C_28
REMARK    3  A    between atoms: C_31  and  C_34
REMARK                            x       y       z     vdW  Elec       q    Type
REMARK                         _______ _______ _______ _____ _____    ______ ____
ROOT
ATOM      5  O   UNL     1       9.620  -3.721  37.101  0.00  0.00    -0.274 OA
ATOM      6  O   UNL     1       7.031  -4.876  34.314  0.00  0.00    -0.273 OA
ATOM      7  O   UNL     1       6.473 -10.054  35.211  0.00  0.00    -0.270 OA
ATOM      8  N   UNL     1       7.469  -7.971  35.355  0.00  0.00    -0.283 N 
ATOM      9  N   UNL     1       8.363  -5.667  36.876  0.00  0.00    -0.296 N 
ATOM     10  N   UNL     1       6.644  -6.593  32.870  0.00  0.00    -0.283 N 
ATOM     12  C   UNL     1       8.249  -6.921  34.714  0.00  0.00    +0.180 C 
ATOM     13  C   UNL     1       9.112  -6.134  35.707  0.00  0.00    +0.139 C 
ATOM     14  C   UNL     1       7.380  -7.944  36.815  0.00  0.00    +0.128 C 
ATOM     15  C   UNL     1       7.275  -6.526  37.353  0.00  0.00    +0.127 C 
ATOM     16  C   UNL     1       8.714  -4.458  37.482  0.00  0.00    +0.234 C 
ATOM     18  C   UNL     1       7.243  -6.045  33.984  0.00  0.00    +0.239 C 
ATOM     19  C   UNL     1       6.967  -9.068  34.661  0.00  0.00    +0.249 C 
ATOM     20  C   UNL     1       6.993  -9.053  33.174  0.00  0.00    +0.059 A 
ATOM     22  C   UNL     1       6.740  -7.916  32.389  0.00  0.00    +0.046 A 
ATOM     24  C   UNL     1       7.103 -10.309  32.550  0.00  0.00    +0.023 A 
ATOM     25  C   UNL     1       6.534  -8.074  31.007  0.00  0.00    +0.024 A 
ATOM     26  C   UNL     1       6.944 -10.440  31.170  0.00  0.00    -0.017 A 
ATOM     27  C   UNL     1       6.645  -9.324  30.401  0.00  0.00    +0.010 A 
ATOM     35  H   UNL     1       6.153  -5.935  32.270  0.00  0.00    +0.155 HD
ENDROOT
BRANCH  16  17
ATOM      1  S   UNL     1       6.781  -2.099  40.025  0.00  0.00    -0.143 S 
ATOM     11  N   UNL     1       8.901  -3.661  39.712  0.00  0.00    -0.296 NA
ATOM     17  C   UNL     1       7.933  -4.049  38.686  0.00  0.00    +0.151 C 
ATOM     21  C   UNL     1       7.059  -2.835  38.396  0.00  0.00    +0.098 C 
ATOM     23  C   UNL     1       8.149  -3.012  40.782  0.00  0.00    +0.151 C 
ATOM     36  H   UNL     1       9.538  -2.968  39.316  0.00  0.00    +0.123 HD
ENDBRANCH  16  17
BRANCH  26  28
ATOM     28  C   UNL     1       7.065 -11.740  30.547  0.00  0.00    -0.017 A 
ATOM     29  C   UNL     1       5.920 -12.463  30.212  0.00  0.00    +0.021 A 
ATOM     30  C   UNL     1       8.327 -12.272  30.283  0.00  0.00    +0.008 A 
ATOM     31  C   UNL     1       6.038 -13.718  29.613  0.00  0.00    +0.055 A 
ATOM     32  C   UNL     1       8.445 -13.525  29.683  0.00  0.00    +0.001 A 
ATOM     33  C   UNL     1       7.301 -14.248  29.348  0.00  0.00    +0.012 A 
BRANCH  31  34
ATOM      2  F   UNL     1       4.930 -15.185  28.083  0.00  0.00    -0.166 F 
ATOM      3  F   UNL     1       4.464 -15.424  30.187  0.00  0.00    -0.166 F 
ATOM      4  F   UNL     1       3.716 -13.695  29.101  0.00  0.00    -0.166 F 
ATOM     34  C   UNL     1       4.815 -14.491  29.254  0.00  0.00    +0.417 C 
ENDBRANCH  31  34
ENDBRANCH  26  28
TORSDOF 3
ENDMDL
MODEL 7
REMARK VINA RESULT:      -7.2     21.165     23.728
REMARK  Name = 11884237
REMARK  3 active torsions:
REMARK  status: ('A' for Active; 'I' for Inactive)
REMARK    1  A    between atoms: C_16  and  C_17
REMARK    2  A    between atoms: C_26  and  C_28
REMARK    3  A    between atoms: C_31  and  C_34
REMARK                            x       y       z     vdW  Elec       q    Type
REMARK                         _______ _______ _______ _____ _____    ______ ____
ROOT
ATOM      5  O   UNL     1       9.365  -4.123  37.784  0.00  0.00    -0.274 OA
ATOM      6  O   UNL     1       7.246  -4.826  34.495  0.00  0.00    -0.273 OA
ATOM      7  O   UNL     1       5.278  -9.664  35.300  0.00  0.00    -0.270 OA
ATOM      8  N   UNL     1       6.690  -7.864  35.643  0.00  0.00    -0.283 N 
ATOM      9  N   UNL     1       7.757  -5.735  37.302  0.00  0.00    -0.296 N 
ATOM     10  N   UNL     1       6.782  -6.497  33.020  0.00  0.00    -0.283 N 
ATOM     12  C   UNL     1       7.819  -7.067  35.184  0.00  0.00    +0.180 C 
ATOM     13  C   UNL     1       8.609  -6.438  36.339  0.00  0.00    +0.139 C 
ATOM     14  C   UNL     1       6.293  -7.721  37.045  0.00  0.00    +0.128 C 
ATOM     15  C   UNL     1       6.418  -6.285  37.528  0.00  0.00    +0.127 C 
ATOM     16  C   UNL     1       8.248  -4.603  37.957  0.00  0.00    +0.234 C 
ATOM     18  C   UNL     1       7.238  -6.031  34.235  0.00  0.00    +0.239 C 
ATOM     19  C   UNL     1       6.102  -8.857  34.866  0.00  0.00    +0.249 C 
ATOM     20  C   UNL     1       6.454  -8.945  33.423  0.00  0.00    +0.059 A 
ATOM     22  C   UNL     1       6.660  -7.834  32.589  0.00  0.00    +0.046 A 
ATOM     24  C   UNL     1       6.392 -10.231  32.855  0.00  0.00    +0.023 A 
ATOM     25  C   UNL     1       6.729  -8.030  31.198  0.00  0.00    +0.024 A 
ATOM     26  C   UNL     1       6.511 -10.412  31.477  0.00  0.00    -0.017 A 
ATOM     27  C   UNL     1       6.665  -9.309  30.647  0.00  0.00    +0.010 A 
ATOM     35  H   UNL     1       6.607  -5.784  32.317  0.00  0.00    +0.155 HD
ENDROOT
BRANCH  16  17
ATOM      1  S   UNL     1       6.868  -1.849  40.464  0.00  0.00    -0.143 S 
ATOM     11  N   UNL     1       7.831  -4.313  40.278  0.00  0.00    -0.296 NA
ATOM     17  C   UNL     1       7.345  -3.946  38.948  0.00  0.00    +0.151 C 
ATOM     21  C   UNL     1       7.411  -2.428  38.838  0.00  0.00    +0.098 C 
ATOM     23  C   UNL     1       7.127  -3.467  41.237  0.00  0.00    +0.151 C 
ATOM     36  H   UNL     1       8.826  -4.088  40.337  0.00  0.00    +0.123 HD
ENDBRANCH  16  17
BRANCH  26  28
ATOM     28  C   UNL     1       6.449 -11.743  30.912  0.00  0.00    -0.017 A 
ATOM     29  C   UNL     1       7.153 -12.038  29.744  0.00  0.00    +0.021 A 
ATOM     30  C   UNL     1       5.684 -12.729  31.534  0.00  0.00    +0.008 A 
ATOM     31  C   UNL     1       7.090 -13.321  29.199  0.00  0.00    +0.055 A 
ATOM     32  C   UNL     1       5.623 -14.011  30.989  0.00  0.00    +0.001 A 
ATOM     33  C   UNL     1       6.325 -14.307  29.822  0.00  0.00    +0.012 A 
BRANCH  31  34
ATOM      2  F   UNL     1       8.235 -12.532  27.253  0.00  0.00    -0.166 F 
ATOM      3  F   UNL     1       8.989 -14.347  28.169  0.00  0.00    -0.166 F 
ATOM      4  F   UNL     1       7.113 -14.385  27.072  0.00  0.00    -0.166 F 
ATOM     34  C   UNL     1       7.842 -13.638  27.951  0.00  0.00    +0.417 C 
ENDBRANCH  31  34
ENDBRANCH  26  28
TORSDOF 3
ENDMDL
MODEL 8
REMARK VINA RESULT:      -7.1     27.548     29.630
REMARK  Name = 11884237
REMARK  3 active torsions:
REMARK  status: ('A' for Active; 'I' for Inactive)
REMARK    1  A    between atoms: C_16  and  C_17
REMARK    2  A    between atoms: C_26  and  C_28
REMARK    3  A    between atoms: C_31  and  C_34
REMARK                            x       y       z     vdW  Elec       q    Type
REMARK                         _______ _______ _______ _____ _____    ______ ____
ROOT
ATOM      5  O   UNL     1       8.684  11.806   8.630  0.00  0.00    -0.274 OA
ATOM      6  O   UNL     1       9.343   7.919   8.116  0.00  0.00    -0.273 OA
ATOM      7  O   UNL     1      13.676   7.787   5.093  0.00  0.00    -0.270 OA
ATOM      8  N   UNL     1      11.806   8.725   6.081  0.00  0.00    -0.283 N 
ATOM      9  N   UNL     1      10.547  10.648   7.853  0.00  0.00    -0.296 N 
ATOM     10  N   UNL     1       9.981   6.437   6.510  0.00  0.00    -0.283 N 
ATOM     12  C   UNL     1      10.355   8.844   6.130  0.00  0.00    +0.180 C 
ATOM     13  C   UNL     1       9.890  10.222   6.615  0.00  0.00    +0.139 C 
ATOM     14  C   UNL     1      12.588   9.765   6.753  0.00  0.00    +0.128 C 
ATOM     15  C   UNL     1      11.935  10.220   8.049  0.00  0.00    +0.127 C 
ATOM     16  C   UNL     1       9.846  11.435   8.771  0.00  0.00    +0.234 C 
ATOM     18  C   UNL     1       9.876   7.712   7.024  0.00  0.00    +0.239 C 
ATOM     19  C   UNL     1      12.460   7.782   5.294  0.00  0.00    +0.249 C 
ATOM     20  C   UNL     1      11.667   6.685   4.678  0.00  0.00    +0.059 A 
ATOM     22  C   UNL     1      10.600   6.027   5.311  0.00  0.00    +0.046 A 
ATOM     24  C   UNL     1      12.161   6.182   3.460  0.00  0.00    +0.023 A 
ATOM     25  C   UNL     1      10.099   4.841   4.745  0.00  0.00    +0.024 A 
ATOM     26  C   UNL     1      11.618   5.031   2.887  0.00  0.00    -0.017 A 
ATOM     27  C   UNL     1      10.596   4.353   3.538  0.00  0.00    +0.010 A 
ATOM     35  H   UNL     1       9.461   5.720   7.011  0.00  0.00    +0.155 HD
ENDROOT
BRANCH  16  17
ATOM      1  S   UNL     1      10.450  12.960  12.386  0.00  0.00    -0.143 S 
ATOM     11  N   UNL     1      10.967  13.258   9.802  0.00  0.00    -0.296 NA
ATOM     17  C   UNL     1      10.578  11.861  10.000  0.00  0.00    +0.151 C 
ATOM     21  C   UNL     1       9.679  11.804  11.229  0.00  0.00    +0.098 C 
ATOM     23  C   UNL     1      11.438  13.754  11.092  0.00  0.00    +0.151 C 
ATOM     36  H   UNL     1      10.138  13.796   9.547  0.00  0.00    +0.123 HD
ENDBRANCH  16  17
BRANCH  26  28
ATOM     28  C   UNL     1      12.136   4.533   1.631  0.00  0.00    -0.017 A 
ATOM     29  C   UNL     1      11.317   4.504   0.502  0.00  0.00    +0.021 A 
ATOM     30  C   UNL     1      13.451   4.079   1.551  0.00  0.00    +0.008 A 
ATOM     31  C   UNL     1      11.817   4.021  -0.708  0.00  0.00    +0.055 A 
ATOM     32  C   UNL     1      13.950   3.597   0.341  0.00  0.00    +0.001 A 
ATOM     33  C   UNL     1      13.134   3.567  -0.788  0.00  0.00    +0.012 A 
BRANCH  31  34
ATOM      2  F   UNL     1      10.615   2.728  -2.323  0.00  0.00    -0.166 F 
ATOM      3  F   UNL     1       9.749   4.630  -1.743  0.00  0.00    -0.166 F 
ATOM      4  F   UNL     1      11.523   4.584  -3.000  0.00  0.00    -0.166 F 
ATOM     34  C   UNL     1      10.943   3.990  -1.916  0.00  0.00    +0.417 C 
ENDBRANCH  31  34
ENDBRANCH  26  28
TORSDOF 3
ENDMDL
MODEL 9
REMARK VINA RESULT:      -6.9      6.627      9.016
REMARK  Name = 11884237
REMARK  3 active torsions:
REMARK  status: ('A' for Active; 'I' for Inactive)
REMARK    1  A    between atoms: C_16  and  C_17
REMARK    2  A    between atoms: C_26  and  C_28
REMARK    3  A    between atoms: C_31  and  C_34
REMARK                            x       y       z     vdW  Elec       q    Type
REMARK                         _______ _______ _______ _____ _____    ______ ____
ROOT
ATOM      5  O   UNL     1     -15.192  -5.198   9.556  0.00  0.00    -0.274 OA
ATOM      6  O   UNL     1     -15.734  -5.797  13.449  0.00  0.00    -0.273 OA
ATOM      7  O   UNL     1     -10.839  -5.573  15.429  0.00  0.00    -0.270 OA
ATOM      8  N   UNL     1     -12.456  -5.783  13.789  0.00  0.00    -0.283 N 
ATOM      9  N   UNL     1     -13.784  -4.860  11.379  0.00  0.00    -0.296 N 
ATOM     10  N   UNL     1     -14.800  -6.896  15.210  0.00  0.00    -0.283 N 
ATOM     12  C   UNL     1     -13.478  -6.601  13.150  0.00  0.00    +0.180 C 
ATOM     13  C   UNL     1     -13.636  -6.291  11.656  0.00  0.00    +0.139 C 
ATOM     14  C   UNL     1     -11.957  -4.627  13.041  0.00  0.00    +0.128 C 
ATOM     15  C   UNL     1     -13.062  -3.936  12.258  0.00  0.00    +0.127 C 
ATOM     16  C   UNL     1     -14.578  -4.444  10.306  0.00  0.00    +0.234 C 
ATOM     18  C   UNL     1     -14.754  -6.362  13.940  0.00  0.00    +0.239 C 
ATOM     19  C   UNL     1     -11.829  -6.149  14.976  0.00  0.00    +0.249 C 
ATOM     20  C   UNL     1     -12.390  -7.277  15.767  0.00  0.00    +0.059 A 
ATOM     22  C   UNL     1     -13.763  -7.524  15.931  0.00  0.00    +0.046 A 
ATOM     24  C   UNL     1     -11.462  -8.011  16.530  0.00  0.00    +0.023 A 
ATOM     25  C   UNL     1     -14.177  -8.451  16.904  0.00  0.00    +0.024 A 
ATOM     26  C   UNL     1     -11.890  -8.962  17.457  0.00  0.00    -0.017 A 
ATOM     27  C   UNL     1     -13.248  -9.171  17.653  0.00  0.00    +0.010 A 
ATOM     35  H   UNL     1     -15.722  -6.927  15.639  0.00  0.00    +0.155 HD
ENDROOT
BRANCH  16  17
ATOM      1  S   UNL     1     -16.209  -0.891   9.610  0.00  0.00    -0.143 S 
ATOM     11  N   UNL     1     -14.652  -2.788   8.605  0.00  0.00    -0.296 NA
ATOM     17  C   UNL     1     -14.666  -2.975  10.056  0.00  0.00    +0.151 C 
ATOM     21  C   UNL     1     -15.976  -2.401  10.580  0.00  0.00    +0.098 C 
ATOM     23  C   UNL     1     -15.007  -1.394   8.353  0.00  0.00    +0.151 C 
ATOM     36  H   UNL     1     -15.380  -3.373   8.191  0.00  0.00    +0.123 HD
ENDBRANCH  16  17
BRANCH  26  28
ATOM     28  C   UNL     1     -10.920  -9.710  18.228  0.00  0.00    -0.017 A 
ATOM     29  C   UNL     1      -9.575  -9.696  17.859  0.00  0.00    +0.021 A 
ATOM     30  C   UNL     1     -11.332 -10.446  19.339  0.00  0.00    +0.008 A 
ATOM     31  C   UNL     1      -8.642 -10.419  18.602  0.00  0.00    +0.055 A 
ATOM     32  C   UNL     1     -10.398 -11.168  20.082  0.00  0.00    +0.001 A 
ATOM     33  C   UNL     1      -9.053 -11.155  19.714  0.00  0.00    +0.012 A 
BRANCH  31  34
ATOM      2  F   UNL     1      -6.907  -9.478  17.251  0.00  0.00    -0.166 F 
ATOM      3  F   UNL     1      -6.357 -10.128  19.245  0.00  0.00    -0.166 F 
ATOM      4  F   UNL     1      -6.784 -11.601  17.703  0.00  0.00    -0.166 F 
ATOM     34  C   UNL     1      -7.203 -10.405  18.209  0.00  0.00    +0.417 C 
ENDBRANCH  31  34
ENDBRANCH  26  28
TORSDOF 3
ENDMDL
MODEL 10
REMARK VINA RESULT:      -6.9      8.103     10.862
REMARK  Name = 11884237
REMARK  3 active torsions:
REMARK  status: ('A' for Active; 'I' for Inactive)
REMARK    1  A    between atoms: C_16  and  C_17
REMARK    2  A    between atoms: C_26  and  C_28
REMARK    3  A    between atoms: C_31  and  C_34
REMARK                            x       y       z     vdW  Elec       q    Type
REMARK                         _______ _______ _______ _____ _____    ______ ____
ROOT
ATOM      5  O   UNL     1      -9.689  -7.219   4.364  0.00  0.00    -0.274 OA
ATOM      6  O   UNL     1      -6.439  -9.104   5.664  0.00  0.00    -0.273 OA
ATOM      7  O   UNL     1      -8.128 -11.660   9.970  0.00  0.00    -0.270 OA
ATOM      8  N   UNL     1      -8.196 -10.093   8.270  0.00  0.00    -0.283 N 
ATOM      9  N   UNL     1      -9.420  -8.947   5.901  0.00  0.00    -0.296 N 
ATOM     10  N   UNL     1      -5.354  -9.618   7.598  0.00  0.00    -0.283 N 
ATOM     12  C   UNL     1      -7.693  -8.846   7.709  0.00  0.00    +0.180 C 
ATOM     13  C   UNL     1      -8.750  -8.097   6.889  0.00  0.00    +0.139 C 
ATOM     14  C   UNL     1      -9.472 -10.594   7.755  0.00  0.00    +0.128 C 
ATOM     15  C   UNL     1      -9.617 -10.354   6.261  0.00  0.00    +0.127 C 
ATOM     16  C   UNL     1      -9.843  -8.393   4.689  0.00  0.00    +0.234 C 
ATOM     18  C   UNL     1      -6.469  -9.223   6.891  0.00  0.00    +0.239 C 
ATOM     19  C   UNL     1      -7.612 -10.717   9.368  0.00  0.00    +0.249 C 
ATOM     20  C   UNL     1      -6.280 -10.250   9.836  0.00  0.00    +0.059 A 
ATOM     22  C   UNL     1      -5.237  -9.849   8.985  0.00  0.00    +0.046 A 
ATOM     24  C   UNL     1      -6.025 -10.404  11.211  0.00  0.00    +0.023 A 
ATOM     25  C   UNL     1      -3.948  -9.680   9.520  0.00  0.00    +0.024 A 
ATOM     26  C   UNL     1      -4.750 -10.184  11.733  0.00  0.00    -0.017 A 
ATOM     27  C   UNL     1      -3.708  -9.836  10.884  0.00  0.00    +0.010 A 
ATOM     35  H   UNL     1      -4.488  -9.651   7.066  0.00  0.00    +0.155 HD
ENDROOT
BRANCH  16  17
ATOM      1  S   UNL     1     -10.830 -10.113   1.249  0.00  0.00    -0.143 S 
ATOM     11  N   UNL     1     -11.703  -8.571   3.222  0.00  0.00    -0.296 NA
ATOM     17  C   UNL     1     -10.544  -9.302   3.735  0.00  0.00    +0.151 C 
ATOM     21  C   UNL     1      -9.657  -9.650   2.546  0.00  0.00    +0.098 C 
ATOM     23  C   UNL     1     -12.230  -9.343   2.101  0.00  0.00    +0.151 C 
ATOM     36  H   UNL     1     -11.387  -7.671   2.857  0.00  0.00    +0.123 HD
ENDBRANCH  16  17
BRANCH  26  28
ATOM     28  C   UNL     1      -4.509 -10.343  13.151  0.00  0.00    -0.017 A 
ATOM     29  C   UNL     1      -3.203 -10.454  13.628  0.00  0.00    +0.021 A 
ATOM     30  C   UNL     1      -5.583 -10.388  14.039  0.00  0.00    +0.008 A 
ATOM     31  C   UNL     1      -2.972 -10.610  14.996  0.00  0.00    +0.055 A 
ATOM     32  C   UNL     1      -5.351 -10.542  15.406  0.00  0.00    +0.001 A 
ATOM     33  C   UNL     1      -4.046 -10.653  15.884  0.00  0.00    +0.012 A 
BRANCH  31  34
ATOM      2  F   UNL     1      -1.501 -10.878  16.863  0.00  0.00    -0.166 F 
ATOM      3  F   UNL     1      -0.894 -11.794  14.993  0.00  0.00    -0.166 F 
ATOM      4  F   UNL     1      -0.815  -9.632  15.218  0.00  0.00    -0.166 F 
ATOM     34  C   UNL     1      -1.576 -10.728  15.507  0.00  0.00    +0.417 C 
ENDBRANCH  31  34
ENDBRANCH  26  28
TORSDOF 3
ENDMDL
