MODEL 1
REMARK VINA RESULT:      -7.3      0.000      0.000
REMARK  Name = 26741977
REMARK  9 active torsions:
REMARK  status: ('A' for Active; 'I' for Inactive)
REMARK    1  A    between atoms: O_1  and  C_11
REMARK    2  A    between atoms: O_4  and  C_26
REMARK    3  A    between atoms: O_4  and  C_27
REMARK    4  A    between atoms: N_7  and  C_10
REMARK    5  A    between atoms: N_8  and  C_18
REMARK    6  A    between atoms: C_17  and  C_19
REMARK    7  A    between atoms: C_18  and  C_20
REMARK    8  A    between atoms: C_18  and  C_21
REMARK    9  A    between atoms: C_27  and  C_28
REMARK                            x       y       z     vdW  Elec       q    Type
REMARK                         _______ _______ _______ _____ _____    ______ ____
ROOT
ATOM      3  O   UNL     1      14.968   7.051  18.367  0.00  0.00    -0.270 OA
ATOM      7  N   UNL     1      14.362   7.263  20.595  0.00  0.00    -0.305 N 
ATOM     17  C   UNL     1      15.253   7.036  19.562  0.00  0.00    +0.244 C 
ATOM     29  H   UNL     1      14.666   7.225  21.562  0.00  0.00    +0.149 HD
ENDROOT
BRANCH   7  10
ATOM      2  O   UNL     1      14.877  10.231  21.357  0.00  0.00    -0.253 OA
ATOM      6  N   UNL     1      12.594   9.922  21.082  0.00  0.00    -0.284 N 
ATOM      8  N   UNL     1      13.450  11.218  22.863  0.00  0.00    -0.297 N 
ATOM     10  C   UNL     1      12.958   7.550  20.358  0.00  0.00    +0.119 C 
ATOM     11  C   UNL     1      12.138   7.067  21.569  0.00  0.00    +0.136 C 
ATOM     12  C   UNL     1      10.717   7.632  21.679  0.00  0.00    +0.035 C 
ATOM     13  C   UNL     1      12.784   9.019  19.948  0.00  0.00    +0.134 C 
ATOM     14  C   UNL     1      10.660   9.008  22.347  0.00  0.00    +0.022 C 
ATOM     15  C   UNL     1      11.199  10.139  21.482  0.00  0.00    +0.109 C 
ATOM     16  C   UNL     1      13.723  10.447  21.739  0.00  0.00    +0.302 C 
ATOM     31  H   UNL     1      12.516  11.237  23.255  0.00  0.00    +0.150 HD
BRANCH   8  18
ATOM     18  C   UNL     1      14.497  11.818  23.659  0.00  0.00    +0.068 C 
ATOM     20  C   UNL     1      14.234  11.587  25.141  0.00  0.00    +0.027 C 
ATOM     21  C   UNL     1      14.623  13.303  23.344  0.00  0.00    +0.027 C 
ENDBRANCH   8  18
BRANCH  11   1
ATOM      1  O   UNL     1      12.042   5.640  21.458  0.00  0.00    -0.390 OA
ATOM     30  H   UNL     1      11.237   5.363  21.927  0.00  0.00    +0.210 HD
ENDBRANCH  11   1
ENDBRANCH   7  10
BRANCH  17  19
ATOM     19  C   UNL     1      16.648   6.730  19.972  0.00  0.00    +0.037 A 
ATOM     22  C   UNL     1      17.404   5.813  19.241  0.00  0.00    +0.016 A 
ATOM     23  C   UNL     1      17.201   7.358  21.087  0.00  0.00    +0.016 A 
ATOM     24  C   UNL     1      18.713   5.524  19.627  0.00  0.00    +0.046 A 
ATOM     25  C   UNL     1      18.510   7.069  21.473  0.00  0.00    +0.046 A 
ATOM     26  C   UNL     1      19.266   6.152  20.743  0.00  0.00    +0.121 A 
BRANCH  26   4
ATOM      4  O   UNL     1      20.543   5.870  21.119  0.00  0.00    -0.483 OA
BRANCH   4  27
ATOM     27  C   UNL     1      21.216   4.834  20.406  0.00  0.00    +0.324 C 
BRANCH  27  28
ATOM      5  O   UNL     1      21.695   3.950  22.604  0.00  0.00    -0.272 OA
ATOM      9  N   UNL     1      22.429   2.792  20.757  0.00  0.00    -0.327 N 
ATOM     28  C   UNL     1      21.790   3.838  21.385  0.00  0.00    +0.248 C 
ATOM     32  H   UNL     1      22.493   2.723  19.745  0.00  0.00    +0.145 HD
ATOM     33  H   UNL     1      22.863   2.047  21.291  0.00  0.00    +0.145 HD
ENDBRANCH  27  28
ENDBRANCH   4  27
ENDBRANCH  26   4
ENDBRANCH  17  19
TORSDOF 7
ENDMDL
MODEL 2
REMARK VINA RESULT:      -6.6      3.466      8.612
REMARK  Name = 26741977
REMARK  9 active torsions:
REMARK  status: ('A' for Active; 'I' for Inactive)
REMARK    1  A    between atoms: O_1  and  C_11
REMARK    2  A    between atoms: O_4  and  C_26
REMARK    3  A    between atoms: O_4  and  C_27
REMARK    4  A    between atoms: N_7  and  C_10
REMARK    5  A    between atoms: N_8  and  C_18
REMARK    6  A    between atoms: C_17  and  C_19
REMARK    7  A    between atoms: C_18  and  C_20
REMARK    8  A    between atoms: C_18  and  C_21
REMARK    9  A    between atoms: C_27  and  C_28
REMARK                            x       y       z     vdW  Elec       q    Type
REMARK                         _______ _______ _______ _____ _____    ______ ____
ROOT
ATOM      3  O   UNL     1      20.152   4.612  20.120  0.00  0.00    -0.270 OA
ATOM      7  N   UNL     1      20.564   6.803  20.754  0.00  0.00    -0.305 N 
ATOM     17  C   UNL     1      19.757   5.748  20.371  0.00  0.00    +0.244 C 
ATOM     29  H   UNL     1      20.169   7.720  20.936  0.00  0.00    +0.149 HD
ENDROOT
BRANCH   7  10
ATOM      2  O   UNL     1      20.177   6.390  23.810  0.00  0.00    -0.253 OA
ATOM      6  N   UNL     1      22.449   6.543  23.364  0.00  0.00    -0.284 N 
ATOM      8  N   UNL     1      21.492   7.621  25.236  0.00  0.00    -0.297 N 
ATOM     10  C   UNL     1      22.002   6.666  20.900  0.00  0.00    +0.119 C 
ATOM     11  C   UNL     1      22.644   8.066  20.866  0.00  0.00    +0.136 C 
ATOM     12  C   UNL     1      24.080   8.153  21.396  0.00  0.00    +0.035 C 
ATOM     13  C   UNL     1      22.325   5.788  22.118  0.00  0.00    +0.134 C 
ATOM     14  C   UNL     1      24.158   8.292  22.919  0.00  0.00    +0.022 C 
ATOM     15  C   UNL     1      23.802   7.019  23.675  0.00  0.00    +0.109 C 
ATOM     16  C   UNL     1      21.294   6.818  24.119  0.00  0.00    +0.302 C 
ATOM     31  H   UNL     1      22.374   8.100  25.371  0.00  0.00    +0.150 HD
BRANCH   8  18
ATOM     18  C   UNL     1      20.407   8.009  26.109  0.00  0.00    +0.068 C 
ATOM     20  C   UNL     1      20.479   9.499  26.414  0.00  0.00    +0.027 C 
ATOM     21  C   UNL     1      20.427   7.181  27.388  0.00  0.00    +0.027 C 
ENDBRANCH   8  18
BRANCH  11   1
ATOM      1  O   UNL     1      22.651   8.481  19.493  0.00  0.00    -0.390 OA
ATOM     30  H   UNL     1      22.363   9.409  19.465  0.00  0.00    +0.210 HD
ENDBRANCH  11   1
ENDBRANCH   7  10
BRANCH  17  19
ATOM     19  C   UNL     1      18.310   6.058  20.242  0.00  0.00    +0.037 A 
ATOM     22  C   UNL     1      17.614   6.601  21.322  0.00  0.00    +0.016 A 
ATOM     23  C   UNL     1      17.647   5.805  19.042  0.00  0.00    +0.016 A 
ATOM     24  C   UNL     1      16.255   6.891  21.202  0.00  0.00    +0.046 A 
ATOM     25  C   UNL     1      16.287   6.095  18.921  0.00  0.00    +0.046 A 
ATOM     26  C   UNL     1      15.592   6.638  20.001  0.00  0.00    +0.121 A 
BRANCH  26   4
ATOM      4  O   UNL     1      14.266   6.921  19.883  0.00  0.00    -0.483 OA
BRANCH   4  27
ATOM     27  C   UNL     1      13.525   7.076  21.093  0.00  0.00    +0.324 C 
BRANCH  27  28
ATOM      5  O   UNL     1      11.321   7.297  20.125  0.00  0.00    -0.272 OA
ATOM      9  N   UNL     1      11.734   5.548  21.560  0.00  0.00    -0.327 N 
ATOM     28  C   UNL     1      12.087   6.679  20.859  0.00  0.00    +0.248 C 
ATOM     32  H   UNL     1      12.389   5.054  22.161  0.00  0.00    +0.145 HD
ATOM     33  H   UNL     1      10.797   5.165  21.499  0.00  0.00    +0.145 HD
ENDBRANCH  27  28
ENDBRANCH   4  27
ENDBRANCH  26   4
ENDBRANCH  17  19
TORSDOF 7
ENDMDL
MODEL 3
REMARK VINA RESULT:      -6.4      3.564      9.280
REMARK  Name = 26741977
REMARK  9 active torsions:
REMARK  status: ('A' for Active; 'I' for Inactive)
REMARK    1  A    between atoms: O_1  and  C_11
REMARK    2  A    between atoms: O_4  and  C_26
REMARK    3  A    between atoms: O_4  and  C_27
REMARK    4  A    between atoms: N_7  and  C_10
REMARK    5  A    between atoms: N_8  and  C_18
REMARK    6  A    between atoms: C_17  and  C_19
REMARK    7  A    between atoms: C_18  and  C_20
REMARK    8  A    between atoms: C_18  and  C_21
REMARK    9  A    between atoms: C_27  and  C_28
REMARK                            x       y       z     vdW  Elec       q    Type
REMARK                         _______ _______ _______ _____ _____    ______ ____
ROOT
ATOM      3  O   UNL     1      19.793   6.265  22.833  0.00  0.00    -0.270 OA
ATOM      7  N   UNL     1      20.948   6.025  20.838  0.00  0.00    -0.305 N 
ATOM     17  C   UNL     1      19.818   6.239  21.605  0.00  0.00    +0.244 C 
ATOM     29  H   UNL     1      20.893   6.007  19.825  0.00  0.00    +0.149 HD
ENDROOT
BRANCH   7  10
ATOM      2  O   UNL     1      21.708   8.965  20.177  0.00  0.00    -0.253 OA
ATOM      6  N   UNL     1      23.592   7.875  20.980  0.00  0.00    -0.284 N 
ATOM      8  N   UNL     1      23.720   9.348  19.137  0.00  0.00    -0.297 N 
ATOM     10  C   UNL     1      22.255   5.802  21.429  0.00  0.00    +0.119 C 
ATOM     11  C   UNL     1      23.134   5.033  20.424  0.00  0.00    +0.136 C 
ATOM     12  C   UNL     1      24.641   5.056  20.703  0.00  0.00    +0.035 C 
ATOM     13  C   UNL     1      22.820   7.124  21.969  0.00  0.00    +0.134 C 
ATOM     14  C   UNL     1      25.340   6.307  20.165  0.00  0.00    +0.022 C 
ATOM     15  C   UNL     1      25.029   7.575  20.948  0.00  0.00    +0.109 C 
ATOM     16  C   UNL     1      22.922   8.749  20.105  0.00  0.00    +0.302 C 
ATOM     31  H   UNL     1      24.668   9.027  18.987  0.00  0.00    +0.150 HD
BRANCH   8  18
ATOM     18  C   UNL     1      23.184  10.261  18.152  0.00  0.00    +0.068 C 
ATOM     20  C   UNL     1      24.013  10.209  16.876  0.00  0.00    +0.027 C 
ATOM     21  C   UNL     1      23.121  11.676  18.714  0.00  0.00    +0.027 C 
ENDBRANCH   8  18
BRANCH  11   1
ATOM      1  O   UNL     1      22.696   3.667  20.458  0.00  0.00    -0.390 OA
ATOM     30  H   UNL     1      22.875   3.324  21.350  0.00  0.00    +0.210 HD
ENDBRANCH  11   1
ENDBRANCH   7  10
BRANCH  17  19
ATOM     19  C   UNL     1      18.553   6.424  20.849  0.00  0.00    +0.037 A 
ATOM     22  C   UNL     1      18.320   5.687  19.687  0.00  0.00    +0.016 A 
ATOM     23  C   UNL     1      17.598   7.336  21.299  0.00  0.00    +0.016 A 
ATOM     24  C   UNL     1      17.134   5.863  18.976  0.00  0.00    +0.046 A 
ATOM     25  C   UNL     1      16.411   7.511  20.588  0.00  0.00    +0.046 A 
ATOM     26  C   UNL     1      16.178   6.774  19.426  0.00  0.00    +0.121 A 
BRANCH  26   4
ATOM      4  O   UNL     1      15.020   6.945  18.733  0.00  0.00    -0.483 OA
BRANCH   4  27
ATOM     27  C   UNL     1      13.976   7.669  19.382  0.00  0.00    +0.324 C 
BRANCH  27  28
ATOM      5  O   UNL     1      12.019   7.389  17.990  0.00  0.00    -0.272 OA
ATOM      9  N   UNL     1      12.199   6.145  19.917  0.00  0.00    -0.327 N 
ATOM     28  C   UNL     1      12.640   7.075  19.002  0.00  0.00    +0.248 C 
ATOM     32  H   UNL     1      12.733   5.903  20.746  0.00  0.00    +0.145 HD
ATOM     33  H   UNL     1      11.314   5.665  19.790  0.00  0.00    +0.145 HD
ENDBRANCH  27  28
ENDBRANCH   4  27
ENDBRANCH  26   4
ENDBRANCH  17  19
TORSDOF 7
ENDMDL
MODEL 4
REMARK VINA RESULT:      -6.4     28.039     29.820
REMARK  Name = 26741977
REMARK  9 active torsions:
REMARK  status: ('A' for Active; 'I' for Inactive)
REMARK    1  A    between atoms: O_1  and  C_11
REMARK    2  A    between atoms: O_4  and  C_26
REMARK    3  A    between atoms: O_4  and  C_27
REMARK    4  A    between atoms: N_7  and  C_10
REMARK    5  A    between atoms: N_8  and  C_18
REMARK    6  A    between atoms: C_17  and  C_19
REMARK    7  A    between atoms: C_18  and  C_20
REMARK    8  A    between atoms: C_18  and  C_21
REMARK    9  A    between atoms: C_27  and  C_28
REMARK                            x       y       z     vdW  Elec       q    Type
REMARK                         _______ _______ _______ _____ _____    ______ ____
ROOT
ATOM      3  O   UNL     1      -2.815 -11.798  13.966  0.00  0.00    -0.270 OA
ATOM      7  N   UNL     1      -4.874 -11.434  14.966  0.00  0.00    -0.305 N 
ATOM     17  C   UNL     1      -3.937 -11.297  13.959  0.00  0.00    +0.244 C 
ATOM     29  H   UNL     1      -5.780 -10.983  14.897  0.00  0.00    +0.149 HD
ENDROOT
BRANCH   7  10
ATOM      2  O   UNL     1      -7.904 -11.325  15.648  0.00  0.00    -0.253 OA
ATOM      6  N   UNL     1      -6.776 -12.287  17.434  0.00  0.00    -0.284 N 
ATOM      8  N   UNL     1      -8.505 -10.714  17.779  0.00  0.00    -0.297 N 
ATOM     10  C   UNL     1      -4.614 -12.207  16.167  0.00  0.00    +0.119 C 
ATOM     11  C   UNL     1      -4.031 -11.274  17.245  0.00  0.00    +0.136 C 
ATOM     12  C   UNL     1      -4.066 -11.812  18.680  0.00  0.00    +0.035 C 
ATOM     13  C   UNL     1      -5.862 -13.013  16.553  0.00  0.00    +0.134 C 
ATOM     14  C   UNL     1      -5.406 -11.581  19.383  0.00  0.00    +0.022 C 
ATOM     15  C   UNL     1      -6.535 -12.464  18.870  0.00  0.00    +0.109 C 
ATOM     16  C   UNL     1      -7.744 -11.436  16.868  0.00  0.00    +0.302 C 
ATOM     31  H   UNL     1      -8.243 -10.688  18.757  0.00  0.00    +0.150 HD
BRANCH   8  18
ATOM     18  C   UNL     1      -9.533  -9.785  17.362  0.00  0.00    +0.068 C 
ATOM     20  C   UNL     1      -8.946  -8.391  17.182  0.00  0.00    +0.027 C 
ATOM     21  C   UNL     1     -10.682  -9.777  18.361  0.00  0.00    +0.027 C 
ENDBRANCH   8  18
BRANCH  11   1
ATOM      1  O   UNL     1      -2.660 -11.044  16.890  0.00  0.00    -0.390 OA
ATOM     30  H   UNL     1      -2.183 -11.884  17.000  0.00  0.00    +0.210 HD
ENDBRANCH  11   1
ENDBRANCH   7  10
BRANCH  17  19
ATOM     19  C   UNL     1      -4.347 -10.452  12.808  0.00  0.00    +0.037 A 
ATOM     22  C   UNL     1      -5.596  -9.831  12.809  0.00  0.00    +0.016 A 
ATOM     23  C   UNL     1      -3.485 -10.281  11.725  0.00  0.00    +0.016 A 
ATOM     24  C   UNL     1      -5.983  -9.039  11.728  0.00  0.00    +0.046 A 
ATOM     25  C   UNL     1      -3.871  -9.489  10.644  0.00  0.00    +0.046 A 
ATOM     26  C   UNL     1      -5.120  -8.868  10.645  0.00  0.00    +0.121 A 
BRANCH  26   4
ATOM      4  O   UNL     1      -5.497  -8.095   9.590  0.00  0.00    -0.483 OA
BRANCH   4  27
ATOM     27  C   UNL     1      -6.518  -8.613   8.739  0.00  0.00    +0.324 C 
BRANCH  27  28
ATOM      5  O   UNL     1      -8.766  -7.903   9.278  0.00  0.00    -0.272 OA
ATOM      9  N   UNL     1      -7.427  -6.506   8.033  0.00  0.00    -0.327 N 
ATOM     28  C   UNL     1      -7.694  -7.665   8.728  0.00  0.00    +0.248 C 
ATOM     32  H   UNL     1      -6.531  -6.334   7.587  0.00  0.00    +0.145 HD
ATOM     33  H   UNL     1      -8.128  -5.777   7.942  0.00  0.00    +0.145 HD
ENDBRANCH  27  28
ENDBRANCH   4  27
ENDBRANCH  26   4
ENDBRANCH  17  19
TORSDOF 7
ENDMDL
MODEL 5
REMARK VINA RESULT:      -6.4     27.367     29.599
REMARK  Name = 26741977
REMARK  9 active torsions:
REMARK  status: ('A' for Active; 'I' for Inactive)
REMARK    1  A    between atoms: O_1  and  C_11
REMARK    2  A    between atoms: O_4  and  C_26
REMARK    3  A    between atoms: O_4  and  C_27
REMARK    4  A    between atoms: N_7  and  C_10
REMARK    5  A    between atoms: N_8  and  C_18
REMARK    6  A    between atoms: C_17  and  C_19
REMARK    7  A    between atoms: C_18  and  C_20
REMARK    8  A    between atoms: C_18  and  C_21
REMARK    9  A    between atoms: C_27  and  C_28
REMARK                            x       y       z     vdW  Elec       q    Type
REMARK                         _______ _______ _______ _____ _____    ______ ____
ROOT
ATOM      3  O   UNL     1      -1.832 -11.144  12.121  0.00  0.00    -0.270 OA
ATOM      7  N   UNL     1      -3.949 -10.490  11.439  0.00  0.00    -0.305 N 
ATOM     17  C   UNL     1      -2.979 -10.787  12.378  0.00  0.00    +0.244 C 
ATOM     29  H   UNL     1      -4.881 -10.210  11.725  0.00  0.00    +0.149 HD
ENDROOT
BRANCH   7  10
ATOM      2  O   UNL     1      -6.350  -8.582  10.938  0.00  0.00    -0.253 OA
ATOM      6  N   UNL     1      -5.581  -9.359   8.892  0.00  0.00    -0.284 N 
ATOM      8  N   UNL     1      -7.893  -9.190   9.349  0.00  0.00    -0.297 N 
ATOM     10  C   UNL     1      -3.696 -10.574  10.012  0.00  0.00    +0.119 C 
ATOM     11  C   UNL     1      -4.258 -11.908   9.482  0.00  0.00    +0.136 C 
ATOM     12  C   UNL     1      -4.440 -11.997   7.963  0.00  0.00    +0.035 C 
ATOM     13  C   UNL     1      -4.183  -9.295   9.315  0.00  0.00    +0.134 C 
ATOM     14  C   UNL     1      -5.758 -11.391   7.472  0.00  0.00    +0.022 C 
ATOM     15  C   UNL     1      -5.801  -9.871   7.534  0.00  0.00    +0.109 C 
ATOM     16  C   UNL     1      -6.593  -9.009   9.805  0.00  0.00    +0.302 C 
ATOM     31  H   UNL     1      -8.068  -9.700   8.492  0.00  0.00    +0.150 HD
BRANCH   8  18
ATOM     18  C   UNL     1      -9.047  -8.892  10.169  0.00  0.00    +0.068 C 
ATOM     20  C   UNL     1      -9.728 -10.179  10.613  0.00  0.00    +0.027 C 
ATOM     21  C   UNL     1     -10.014  -7.984   9.420  0.00  0.00    +0.027 C 
ENDBRANCH   8  18
BRANCH  11   1
ATOM      1  O   UNL     1      -3.332 -12.929   9.880  0.00  0.00    -0.390 OA
ATOM     30  H   UNL     1      -3.848 -13.659  10.263  0.00  0.00    +0.210 HD
ENDBRANCH  11   1
ENDBRANCH   7  10
BRANCH  17  19
ATOM     19  C   UNL     1      -3.403 -10.678  13.798  0.00  0.00    +0.037 A 
ATOM     22  C   UNL     1      -4.754 -10.524  14.112  0.00  0.00    +0.016 A 
ATOM     23  C   UNL     1      -2.452 -10.728  14.816  0.00  0.00    +0.016 A 
ATOM     24  C   UNL     1      -5.152 -10.419  15.445  0.00  0.00    +0.046 A 
ATOM     25  C   UNL     1      -2.850 -10.623  16.149  0.00  0.00    +0.046 A 
ATOM     26  C   UNL     1      -4.201 -10.469  16.463  0.00  0.00    +0.121 A 
BRANCH  26   4
ATOM      4  O   UNL     1      -4.589 -10.367  17.763  0.00  0.00    -0.483 OA
BRANCH   4  27
ATOM     27  C   UNL     1      -5.256 -11.493  18.332  0.00  0.00    +0.324 C 
BRANCH  27  28
ATOM      5  O   UNL     1      -3.490 -12.104  19.866  0.00  0.00    -0.272 OA
ATOM      9  N   UNL     1      -4.247 -13.671  18.361  0.00  0.00    -0.327 N 
ATOM     28  C   UNL     1      -4.239 -12.424  18.947  0.00  0.00    +0.248 C 
ATOM     32  H   UNL     1      -4.878 -13.910  17.601  0.00  0.00    +0.145 HD
ATOM     33  H   UNL     1      -3.614 -14.400  18.673  0.00  0.00    +0.145 HD
ENDBRANCH  27  28
ENDBRANCH   4  27
ENDBRANCH  26   4
ENDBRANCH  17  19
TORSDOF 7
ENDMDL
MODEL 6
REMARK VINA RESULT:      -6.2     29.640     32.666
REMARK  Name = 26741977
REMARK  9 active torsions:
REMARK  status: ('A' for Active; 'I' for Inactive)
REMARK    1  A    between atoms: O_1  and  C_11
REMARK    2  A    between atoms: O_4  and  C_26
REMARK    3  A    between atoms: O_4  and  C_27
REMARK    4  A    between atoms: N_7  and  C_10
REMARK    5  A    between atoms: N_8  and  C_18
REMARK    6  A    between atoms: C_17  and  C_19
REMARK    7  A    between atoms: C_18  and  C_20
REMARK    8  A    between atoms: C_18  and  C_21
REMARK    9  A    between atoms: C_27  and  C_28
REMARK                            x       y       z     vdW  Elec       q    Type
REMARK                         _______ _______ _______ _____ _____    ______ ____
ROOT
ATOM      3  O   UNL     1     -15.261  -6.490  14.661  0.00  0.00    -0.270 OA
ATOM      7  N   UNL     1     -13.857  -5.337  13.222  0.00  0.00    -0.305 N 
ATOM     17  C   UNL     1     -14.136  -6.141  14.311  0.00  0.00    +0.244 C 
ATOM     29  H   UNL     1     -12.901  -5.080  12.997  0.00  0.00    +0.149 HD
ENDROOT
BRANCH   7  10
ATOM      2  O   UNL     1     -12.427  -6.612  10.775  0.00  0.00    -0.253 OA
ATOM      6  N   UNL     1     -14.182  -5.302  10.008  0.00  0.00    -0.284 N 
ATOM      8  N   UNL     1     -12.082  -5.296   8.925  0.00  0.00    -0.297 N 
ATOM     10  C   UNL     1     -14.899  -4.810  12.360  0.00  0.00    +0.119 C 
ATOM     11  C   UNL     1     -14.635  -3.312  12.114  0.00  0.00    +0.136 C 
ATOM     12  C   UNL     1     -15.385  -2.689  10.931  0.00  0.00    +0.035 C 
ATOM     13  C   UNL     1     -15.051  -5.697  11.116  0.00  0.00    +0.134 C 
ATOM     14  C   UNL     1     -14.685  -2.905   9.586  0.00  0.00    +0.022 C 
ATOM     15  C   UNL     1     -14.764  -4.335   9.070  0.00  0.00    +0.109 C 
ATOM     16  C   UNL     1     -12.865  -5.798   9.957  0.00  0.00    +0.302 C 
ATOM     31  H   UNL     1     -12.403  -4.507   8.377  0.00  0.00    +0.150 HD
BRANCH   8  18
ATOM     18  C   UNL     1     -10.704  -5.692   8.740  0.00  0.00    +0.068 C 
ATOM     20  C   UNL     1      -9.790  -4.474   8.797  0.00  0.00    +0.027 C 
ATOM     21  C   UNL     1     -10.537  -6.448   7.428  0.00  0.00    +0.027 C 
ENDBRANCH   8  18
BRANCH  11   1
ATOM      1  O   UNL     1     -15.036  -2.623  13.306  0.00  0.00    -0.390 OA
ATOM     30  H   UNL     1     -14.947  -1.670  13.138  0.00  0.00    +0.210 HD
ENDBRANCH  11   1
ENDBRANCH   7  10
BRANCH  17  19
ATOM     19  C   UNL     1     -12.961  -6.576  15.108  0.00  0.00    +0.037 A 
ATOM     22  C   UNL     1     -13.050  -7.707  15.921  0.00  0.00    +0.016 A 
ATOM     23  C   UNL     1     -11.769  -5.855  15.045  0.00  0.00    +0.016 A 
ATOM     24  C   UNL     1     -11.947  -8.114  16.672  0.00  0.00    +0.046 A 
ATOM     25  C   UNL     1     -10.666  -6.262  15.796  0.00  0.00    +0.046 A 
ATOM     26  C   UNL     1     -10.755  -7.392  16.608  0.00  0.00    +0.121 A 
BRANCH  26   4
ATOM      4  O   UNL     1      -9.678  -7.790  17.340  0.00  0.00    -0.483 OA
BRANCH   4  27
ATOM     27  C   UNL     1      -9.397  -9.189  17.372  0.00  0.00    +0.324 C 
BRANCH  27  28
ATOM      5  O   UNL     1      -7.116  -9.175  16.570  0.00  0.00    -0.272 OA
ATOM      9  N   UNL     1      -7.533  -9.874  18.722  0.00  0.00    -0.327 N 
ATOM     28  C   UNL     1      -7.905  -9.400  17.483  0.00  0.00    +0.248 C 
ATOM     32  H   UNL     1      -8.207 -10.051  19.461  0.00  0.00    +0.145 HD
ATOM     33  H   UNL     1      -6.560 -10.062  18.939  0.00  0.00    +0.145 HD
ENDBRANCH  27  28
ENDBRANCH   4  27
ENDBRANCH  26   4
ENDBRANCH  17  19
TORSDOF 7
ENDMDL
MODEL 7
REMARK VINA RESULT:      -6.1     14.777     16.920
REMARK  Name = 26741977
REMARK  9 active torsions:
REMARK  status: ('A' for Active; 'I' for Inactive)
REMARK    1  A    between atoms: O_1  and  C_11
REMARK    2  A    between atoms: O_4  and  C_26
REMARK    3  A    between atoms: O_4  and  C_27
REMARK    4  A    between atoms: N_7  and  C_10
REMARK    5  A    between atoms: N_8  and  C_18
REMARK    6  A    between atoms: C_17  and  C_19
REMARK    7  A    between atoms: C_18  and  C_20
REMARK    8  A    between atoms: C_18  and  C_21
REMARK    9  A    between atoms: C_27  and  C_28
REMARK                            x       y       z     vdW  Elec       q    Type
REMARK                         _______ _______ _______ _____ _____    ______ ____
ROOT
ATOM      3  O   UNL     1       8.579   8.324   3.174  0.00  0.00    -0.270 OA
ATOM      7  N   UNL     1       7.981   9.722   4.924  0.00  0.00    -0.305 N 
ATOM     17  C   UNL     1       8.510   8.568   4.376  0.00  0.00    +0.244 C 
ATOM     29  H   UNL     1       7.948   9.852   5.929  0.00  0.00    +0.149 HD
ENDROOT
BRANCH   7  10
ATOM      2  O   UNL     1       9.140  11.799   6.924  0.00  0.00    -0.253 OA
ATOM      6  N   UNL     1       7.827  12.917   5.372  0.00  0.00    -0.284 N 
ATOM      8  N   UNL     1       7.748  13.468   7.669  0.00  0.00    -0.297 N 
ATOM     10  C   UNL     1       7.437  10.790   4.104  0.00  0.00    +0.119 C 
ATOM     11  C   UNL     1       5.927  10.915   4.384  0.00  0.00    +0.136 C 
ATOM     12  C   UNL     1       5.270  12.221   3.923  0.00  0.00    +0.035 C 
ATOM     13  C   UNL     1       8.278  12.063   4.274  0.00  0.00    +0.134 C 
ATOM     14  C   UNL     1       5.424  13.366   4.927  0.00  0.00    +0.022 C 
ATOM     15  C   UNL     1       6.834  13.934   5.008  0.00  0.00    +0.109 C 
ATOM     16  C   UNL     1       8.301  12.670   6.674  0.00  0.00    +0.302 C 
ATOM     31  H   UNL     1       6.943  14.049   7.469  0.00  0.00    +0.150 HD
BRANCH   8  18
ATOM     18  C   UNL     1       8.116  13.332   9.060  0.00  0.00    +0.068 C 
ATOM     20  C   UNL     1       6.875  13.367   9.943  0.00  0.00    +0.027 C 
ATOM     21  C   UNL     1       9.110  14.415   9.459  0.00  0.00    +0.027 C 
ENDBRANCH   8  18
BRANCH  11   1
ATOM      1  O   UNL     1       5.291   9.829   3.695  0.00  0.00    -0.390 OA
ATOM     30  H   UNL     1       4.963  10.173   2.846  0.00  0.00    +0.210 HD
ENDBRANCH  11   1
ENDBRANCH   7  10
BRANCH  17  19
ATOM     19  C   UNL     1       9.002   7.560   5.350  0.00  0.00    +0.037 A 
ATOM     22  C   UNL     1       9.587   6.378   4.896  0.00  0.00    +0.016 A 
ATOM     23  C   UNL     1       8.878   7.795   6.719  0.00  0.00    +0.016 A 
ATOM     24  C   UNL     1      10.047   5.431   5.810  0.00  0.00    +0.046 A 
ATOM     25  C   UNL     1       9.338   6.847   7.634  0.00  0.00    +0.046 A 
ATOM     26  C   UNL     1       9.923   5.665   7.179  0.00  0.00    +0.121 A 
BRANCH  26   4
ATOM      4  O   UNL     1      10.372   4.741   8.072  0.00  0.00    -0.483 OA
BRANCH   4  27
ATOM     27  C   UNL     1       9.389   4.061   8.851  0.00  0.00    +0.324 C 
BRANCH  27  28
ATOM      5  O   UNL     1      10.499   4.765  10.881  0.00  0.00    -0.272 OA
ATOM      9  N   UNL     1       8.199   4.729  10.826  0.00  0.00    -0.327 N 
ATOM     28  C   UNL     1       9.450   4.550  10.279  0.00  0.00    +0.248 C 
ATOM     32  H   UNL     1       7.347   4.544  10.305  0.00  0.00    +0.145 HD
ATOM     33  H   UNL     1       8.087   5.055  11.781  0.00  0.00    +0.145 HD
ENDBRANCH  27  28
ENDBRANCH   4  27
ENDBRANCH  26   4
ENDBRANCH  17  19
TORSDOF 7
ENDMDL
MODEL 8
REMARK VINA RESULT:      -6.0      3.561      7.759
REMARK  Name = 26741977
REMARK  9 active torsions:
REMARK  status: ('A' for Active; 'I' for Inactive)
REMARK    1  A    between atoms: O_1  and  C_11
REMARK    2  A    between atoms: O_4  and  C_26
REMARK    3  A    between atoms: O_4  and  C_27
REMARK    4  A    between atoms: N_7  and  C_10
REMARK    5  A    between atoms: N_8  and  C_18
REMARK    6  A    between atoms: C_17  and  C_19
REMARK    7  A    between atoms: C_18  and  C_20
REMARK    8  A    between atoms: C_18  and  C_21
REMARK    9  A    between atoms: C_27  and  C_28
REMARK                            x       y       z     vdW  Elec       q    Type
REMARK                         _______ _______ _______ _____ _____    ______ ____
ROOT
ATOM      3  O   UNL     1      16.295   6.004  22.003  0.00  0.00    -0.270 OA
ATOM      7  N   UNL     1      17.608   7.291  20.592  0.00  0.00    -0.305 N 
ATOM     17  C   UNL     1      16.432   6.682  20.988  0.00  0.00    +0.244 C 
ATOM     29  H   UNL     1      17.651   7.830  19.733  0.00  0.00    +0.149 HD
ENDROOT
BRANCH   7  10
ATOM      2  O   UNL     1      17.753  10.393  20.723  0.00  0.00    -0.253 OA
ATOM      6  N   UNL     1      19.705   9.521  21.625  0.00  0.00    -0.284 N 
ATOM      8  N   UNL     1      19.748  11.400  20.193  0.00  0.00    -0.297 N 
ATOM     10  C   UNL     1      18.834   7.185  21.363  0.00  0.00    +0.119 C 
ATOM     11  C   UNL     1      20.000   6.871  20.407  0.00  0.00    +0.136 C 
ATOM     12  C   UNL     1      21.406   7.113  20.969  0.00  0.00    +0.035 C 
ATOM     13  C   UNL     1      18.995   8.415  22.267  0.00  0.00    +0.134 C 
ATOM     14  C   UNL     1      21.865   8.569  20.850  0.00  0.00    +0.022 C 
ATOM     15  C   UNL     1      21.161   9.520  21.807  0.00  0.00    +0.109 C 
ATOM     16  C   UNL     1      18.982  10.439  20.841  0.00  0.00    +0.302 C 
ATOM     31  H   UNL     1      20.757  11.314  20.163  0.00  0.00    +0.150 HD
BRANCH   8  18
ATOM     18  C   UNL     1      19.162  12.408  19.338  0.00  0.00    +0.068 C 
ATOM     20  C   UNL     1      20.060  12.672  18.136  0.00  0.00    +0.027 C 
ATOM     21  C   UNL     1      18.897  13.686  20.122  0.00  0.00    +0.027 C 
ENDBRANCH   8  18
BRANCH  11   1
ATOM      1  O   UNL     1      19.891   5.481  20.068  0.00  0.00    -0.390 OA
ATOM     30  H   UNL     1      20.788   5.151  19.889  0.00  0.00    +0.210 HD
ENDBRANCH  11   1
ENDBRANCH   7  10
BRANCH  17  19
ATOM     19  C   UNL     1      15.274   6.865  20.075  0.00  0.00    +0.037 A 
ATOM     22  C   UNL     1      13.975   6.847  20.585  0.00  0.00    +0.016 A 
ATOM     23  C   UNL     1      15.485   7.054  18.710  0.00  0.00    +0.016 A 
ATOM     24  C   UNL     1      12.888   7.016  19.728  0.00  0.00    +0.046 A 
ATOM     25  C   UNL     1      14.397   7.224  17.853  0.00  0.00    +0.046 A 
ATOM     26  C   UNL     1      13.099   7.205  18.362  0.00  0.00    +0.121 A 
BRANCH  26   4
ATOM      4  O   UNL     1      12.037   7.371  17.526  0.00  0.00    -0.483 OA
BRANCH   4  27
ATOM     27  C   UNL     1      11.573   8.705  17.324  0.00  0.00    +0.324 C 
BRANCH  27  28
ATOM      5  O   UNL     1      12.570   8.889  15.129  0.00  0.00    -0.272 OA
ATOM      9  N   UNL     1      12.934  10.567  16.660  0.00  0.00    -0.327 N 
ATOM     28  C   UNL     1      12.398   9.368  16.247  0.00  0.00    +0.248 C 
ATOM     32  H   UNL     1      12.775  10.941  17.591  0.00  0.00    +0.145 HD
ATOM     33  H   UNL     1      13.512  11.124  16.039  0.00  0.00    +0.145 HD
ENDBRANCH  27  28
ENDBRANCH   4  27
ENDBRANCH  26   4
ENDBRANCH  17  19
TORSDOF 7
ENDMDL
MODEL 9
REMARK VINA RESULT:      -5.9     27.783     30.736
REMARK  Name = 26741977
REMARK  9 active torsions:
REMARK  status: ('A' for Active; 'I' for Inactive)
REMARK    1  A    between atoms: O_1  and  C_11
REMARK    2  A    between atoms: O_4  and  C_26
REMARK    3  A    between atoms: O_4  and  C_27
REMARK    4  A    between atoms: N_7  and  C_10
REMARK    5  A    between atoms: N_8  and  C_18
REMARK    6  A    between atoms: C_17  and  C_19
REMARK    7  A    between atoms: C_18  and  C_20
REMARK    8  A    between atoms: C_18  and  C_21
REMARK    9  A    between atoms: C_27  and  C_28
REMARK                            x       y       z     vdW  Elec       q    Type
REMARK                         _______ _______ _______ _____ _____    ______ ____
ROOT
ATOM      3  O   UNL     1      -4.982 -10.904   6.527  0.00  0.00    -0.270 OA
ATOM      7  N   UNL     1      -6.557  -9.318   7.143  0.00  0.00    -0.305 N 
ATOM     17  C   UNL     1      -5.485 -10.162   7.368  0.00  0.00    +0.244 C 
ATOM     29  H   UNL     1      -6.928  -8.739   7.889  0.00  0.00    +0.149 HD
ENDROOT
BRANCH   7  10
ATOM      2  O   UNL     1      -7.785  -6.595   8.002  0.00  0.00    -0.253 OA
ATOM      6  N   UNL     1      -8.701  -7.211   5.961  0.00  0.00    -0.284 N 
ATOM      8  N   UNL     1     -10.036  -6.279   7.674  0.00  0.00    -0.297 N 
ATOM     10  C   UNL     1      -7.213  -9.225   5.851  0.00  0.00    +0.119 C 
ATOM     11  C   UNL     1      -8.459 -10.131   5.857  0.00  0.00    +0.136 C 
ATOM     12  C   UNL     1      -9.481  -9.864   4.746  0.00  0.00    +0.035 C 
ATOM     13  C   UNL     1      -7.432  -7.752   5.477  0.00  0.00    +0.134 C 
ATOM     14  C   UNL     1     -10.457  -8.731   5.077  0.00  0.00    +0.022 C 
ATOM     15  C   UNL     1      -9.832  -7.344   5.035  0.00  0.00    +0.109 C 
ATOM     16  C   UNL     1      -8.771  -6.684   7.264  0.00  0.00    +0.302 C 
ATOM     31  H   UNL     1     -10.852  -6.520   7.124  0.00  0.00    +0.150 HD
BRANCH   8  18
ATOM     18  C   UNL     1     -10.283  -5.729   8.988  0.00  0.00    +0.068 C 
ATOM     20  C   UNL     1     -11.511  -6.378   9.612  0.00  0.00    +0.027 C 
ATOM     21  C   UNL     1     -10.434  -4.216   8.914  0.00  0.00    +0.027 C 
ENDBRANCH   8  18
BRANCH  11   1
ATOM      1  O   UNL     1      -7.988 -11.478   5.713  0.00  0.00    -0.390 OA
ATOM     30  H   UNL     1      -7.246 -11.597   6.330  0.00  0.00    +0.210 HD
ENDBRANCH  11   1
ENDBRANCH   7  10
BRANCH  17  19
ATOM     19  C   UNL     1      -4.943 -10.160   8.751  0.00  0.00    +0.037 A 
ATOM     22  C   UNL     1      -5.359 -11.129   9.664  0.00  0.00    +0.016 A 
ATOM     23  C   UNL     1      -4.021  -9.188   9.137  0.00  0.00    +0.016 A 
ATOM     24  C   UNL     1      -4.853 -11.126  10.964  0.00  0.00    +0.046 A 
ATOM     25  C   UNL     1      -3.513  -9.185  10.437  0.00  0.00    +0.046 A 
ATOM     26  C   UNL     1      -3.929 -10.154  11.350  0.00  0.00    +0.121 A 
BRANCH  26   4
ATOM      4  O   UNL     1      -3.434 -10.151  12.618  0.00  0.00    -0.483 OA
BRANCH   4  27
ATOM     27  C   UNL     1      -2.052 -10.467  12.776  0.00  0.00    +0.324 C 
BRANCH  27  28
ATOM      5  O   UNL     1      -1.873 -11.794  14.788  0.00  0.00    -0.272 OA
ATOM      9  N   UNL     1      -1.329  -9.561  14.878  0.00  0.00    -0.327 N 
ATOM     28  C   UNL     1      -1.752 -10.704  14.237  0.00  0.00    +0.248 C 
ATOM     32  H   UNL     1      -1.237  -8.671  14.398  0.00  0.00    +0.145 HD
ATOM     33  H   UNL     1      -1.092  -9.572  15.865  0.00  0.00    +0.145 HD
ENDBRANCH  27  28
ENDBRANCH   4  27
ENDBRANCH  26   4
ENDBRANCH  17  19
TORSDOF 7
ENDMDL
MODEL 10
REMARK VINA RESULT:      -5.8     16.080     18.037
REMARK  Name = 26741977
REMARK  9 active torsions:
REMARK  status: ('A' for Active; 'I' for Inactive)
REMARK    1  A    between atoms: O_1  and  C_11
REMARK    2  A    between atoms: O_4  and  C_26
REMARK    3  A    between atoms: O_4  and  C_27
REMARK    4  A    between atoms: N_7  and  C_10
REMARK    5  A    between atoms: N_8  and  C_18
REMARK    6  A    between atoms: C_17  and  C_19
REMARK    7  A    between atoms: C_18  and  C_20
REMARK    8  A    between atoms: C_18  and  C_21
REMARK    9  A    between atoms: C_27  and  C_28
REMARK                            x       y       z     vdW  Elec       q    Type
REMARK                         _______ _______ _______ _____ _____    ______ ____
ROOT
ATOM      3  O   UNL     1      15.765   7.769   1.097  0.00  0.00    -0.270 OA
ATOM      7  N   UNL     1      15.047   6.120   2.560  0.00  0.00    -0.305 N 
ATOM     17  C   UNL     1      15.718   7.281   2.224  0.00  0.00    +0.244 C 
ATOM     29  H   UNL     1      15.059   5.769   3.511  0.00  0.00    +0.149 HD
ENDROOT
BRANCH   7  10
ATOM      2  O   UNL     1      12.389   7.174   3.780  0.00  0.00    -0.253 OA
ATOM      6  N   UNL     1      11.887   5.553   2.197  0.00  0.00    -0.284 N 
ATOM      8  N   UNL     1      10.747   5.643   4.265  0.00  0.00    -0.297 N 
ATOM     10  C   UNL     1      14.308   5.341   1.582  0.00  0.00    +0.119 C 
ATOM     11  C   UNL     1      14.282   3.868   2.032  0.00  0.00    +0.136 C 
ATOM     12  C   UNL     1      13.231   2.983   1.352  0.00  0.00    +0.035 C 
ATOM     13  C   UNL     1      12.951   6.002   1.300  0.00  0.00    +0.134 C 
ATOM     14  C   UNL     1      11.847   3.076   1.999  0.00  0.00    +0.022 C 
ATOM     15  C   UNL     1      11.124   4.389   1.731  0.00  0.00    +0.109 C 
ATOM     16  C   UNL     1      11.718   6.195   3.438  0.00  0.00    +0.302 C 
ATOM     31  H   UNL     1      10.335   4.745   4.041  0.00  0.00    +0.150 HD
BRANCH   8  18
ATOM     18  C   UNL     1      10.459   6.174   5.578  0.00  0.00    +0.068 C 
ATOM     20  C   UNL     1       9.962   5.069   6.500  0.00  0.00    +0.027 C 
ATOM     21  C   UNL     1       9.451   7.312   5.485  0.00  0.00    +0.027 C 
ENDBRANCH   8  18
BRANCH  11   1
ATOM      1  O   UNL     1      15.577   3.326   1.740  0.00  0.00    -0.390 OA
ATOM     30  H   UNL     1      15.809   3.594   0.834  0.00  0.00    +0.210 HD
ENDBRANCH  11   1
ENDBRANCH   7  10
BRANCH  17  19
ATOM     19  C   UNL     1      16.447   7.946   3.334  0.00  0.00    +0.037 A 
ATOM     22  C   UNL     1      15.957   7.865   4.638  0.00  0.00    +0.016 A 
ATOM     23  C   UNL     1      17.621   8.653   3.073  0.00  0.00    +0.016 A 
ATOM     24  C   UNL     1      16.640   8.492   5.680  0.00  0.00    +0.046 A 
ATOM     25  C   UNL     1      18.304   9.280   4.116  0.00  0.00    +0.046 A 
ATOM     26  C   UNL     1      17.814   9.199   5.419  0.00  0.00    +0.121 A 
BRANCH  26   4
ATOM      4  O   UNL     1      18.481   9.810   6.436  0.00  0.00    -0.483 OA
BRANCH   4  27
ATOM     27  C   UNL     1      19.903   9.872   6.335  0.00  0.00    +0.324 C 
BRANCH  27  28
ATOM      5  O   UNL     1      20.918   7.686   6.523  0.00  0.00    -0.272 OA
ATOM      9  N   UNL     1      20.561   8.914   8.435  0.00  0.00    -0.327 N 
ATOM     28  C   UNL     1      20.512   8.705   7.075  0.00  0.00    +0.248 C 
ATOM     32  H   UNL     1      20.219   9.767   8.867  0.00  0.00    +0.145 HD
ATOM     33  H   UNL     1      20.947   8.212   9.059  0.00  0.00    +0.145 HD
ENDBRANCH  27  28
ENDBRANCH   4  27
ENDBRANCH  26   4
ENDBRANCH  17  19
TORSDOF 7
ENDMDL
