MODEL 1
REMARK VINA RESULT:      -6.8      0.000      0.000
REMARK  Name = 56775585
REMARK  7 active torsions:
REMARK  status: ('A' for Active; 'I' for Inactive)
REMARK    1  A    between atoms: O_3  and  C_20
REMARK    2  A    between atoms: N_4  and  C_7
REMARK    3  A    between atoms: N_4  and  C_11
REMARK    4  A    between atoms: C_7  and  C_10
REMARK    5  A    between atoms: C_10  and  C_12
REMARK    6  A    between atoms: C_11  and  C_13
REMARK    7  A    between atoms: C_15  and  C_20
REMARK                            x       y       z     vdW  Elec       q    Type
REMARK                         _______ _______ _______ _____ _____    ______ ____
ROOT
ATOM      4  N   UNL     1      12.713   8.208  21.472  0.00  0.00    -0.302 NA
ATOM     25  H   UNL     1      12.846   7.406  20.858  0.00  0.00    +0.123 HD
ENDROOT
BRANCH   4   7
ATOM      1  O   UNL     1      11.329  10.715  22.470  0.00  0.00    -0.376 OA
ATOM      7  C   UNL     1      11.579   9.072  21.131  0.00  0.00    +0.072 C 
ATOM      8  C   UNL     1      10.793   9.374  22.401  0.00  0.00    +0.184 C 
ATOM      9  C   UNL     1      12.027  10.526  21.218  0.00  0.00    +0.184 C 
BRANCH   7  10
ATOM     10  C   UNL     1      10.842   8.612  19.912  0.00  0.00    +0.085 C 
BRANCH  10  12
ATOM      2  O   UNL     1      13.042   7.196  17.420  0.00  0.00    -0.357 OA
ATOM      5  N   UNL     1      12.180   7.088  18.504  0.00  0.00    -0.083 NA
ATOM     12  C   UNL     1      11.802   8.341  18.772  0.00  0.00    +0.086 A 
ATOM     14  C   UNL     1      12.389   9.273  17.898  0.00  0.00    +0.073 A 
ATOM     15  C   UNL     1      13.159   8.502  17.069  0.00  0.00    +0.163 A 
BRANCH  15  20
ATOM     20  C   UNL     1      14.040   8.800  15.933  0.00  0.00    +0.232 C 
BRANCH  20   3
ATOM      3  O   UNL     1      13.591   9.974  15.251  0.00  0.00    -0.387 OA
ATOM     26  H   UNL     1      12.760   9.740  14.802  0.00  0.00    +0.210 HD
ENDBRANCH  20   3
ENDBRANCH  15  20
ENDBRANCH  10  12
ENDBRANCH   7  10
ENDBRANCH   4   7
BRANCH   4  11
ATOM     11  C   UNL     1      13.936   9.015  21.504  0.00  0.00    +0.118 C 
BRANCH  11  13
ATOM      6  N   UNL     1      16.126   6.345  20.002  0.00  0.00    -0.255 NA
ATOM     13  C   UNL     1      15.147   8.230  21.149  0.00  0.00    -0.015 A 
ATOM     16  C   UNL     1      16.405   8.603  21.603  0.00  0.00    +0.016 A 
ATOM     17  C   UNL     1      15.063   7.102  20.358  0.00  0.00    +0.116 A 
ATOM     18  C   UNL     1      17.532   7.847  21.256  0.00  0.00    +0.001 A 
ATOM     19  C   UNL     1      17.345   6.710  20.443  0.00  0.00    +0.071 A 
ATOM     21  C   UNL     1      18.818   8.199  21.699  0.00  0.00    +0.010 A 
ATOM     22  C   UNL     1      18.465   5.959  20.100  0.00  0.00    +0.028 A 
ATOM     23  C   UNL     1      19.922   7.429  21.341  0.00  0.00    +0.001 A 
ATOM     24  C   UNL     1      19.744   6.308  20.540  0.00  0.00    +0.002 A 
ENDBRANCH  11  13
ENDBRANCH   4  11
TORSDOF 7
ENDMDL
MODEL 2
REMARK VINA RESULT:      -6.4      1.678      4.459
REMARK  Name = 56775585
REMARK  7 active torsions:
REMARK  status: ('A' for Active; 'I' for Inactive)
REMARK    1  A    between atoms: O_3  and  C_20
REMARK    2  A    between atoms: N_4  and  C_7
REMARK    3  A    between atoms: N_4  and  C_11
REMARK    4  A    between atoms: C_7  and  C_10
REMARK    5  A    between atoms: C_10  and  C_12
REMARK    6  A    between atoms: C_11  and  C_13
REMARK    7  A    between atoms: C_15  and  C_20
REMARK                            x       y       z     vdW  Elec       q    Type
REMARK                         _______ _______ _______ _____ _____    ______ ____
ROOT
ATOM      4  N   UNL     1      13.700   7.958  20.011  0.00  0.00    -0.302 NA
ATOM     25  H   UNL     1      13.203   7.201  20.478  0.00  0.00    +0.123 HD
ENDROOT
BRANCH   4   7
ATOM      1  O   UNL     1      11.587   7.860  17.839  0.00  0.00    -0.376 OA
ATOM      7  C   UNL     1      12.858   8.866  19.227  0.00  0.00    +0.072 C 
ATOM      8  C   UNL     1      12.908   8.441  17.764  0.00  0.00    +0.184 C 
ATOM      9  C   UNL     1      11.437   8.317  19.202  0.00  0.00    +0.184 C 
BRANCH   7  10
ATOM     10  C   UNL     1      13.073  10.306  19.575  0.00  0.00    +0.085 C 
BRANCH  10  12
ATOM      2  O   UNL     1      13.133  10.652  23.171  0.00  0.00    -0.357 OA
ATOM      5  N   UNL     1      13.722  10.321  21.957  0.00  0.00    -0.083 NA
ATOM     12  C   UNL     1      12.779  10.556  21.039  0.00  0.00    +0.086 A 
ATOM     14  C   UNL     1      11.586  11.032  21.611  0.00  0.00    +0.073 A 
ATOM     15  C   UNL     1      11.861  11.073  22.952  0.00  0.00    +0.163 A 
BRANCH  15  20
ATOM     20  C   UNL     1      11.087  11.465  24.136  0.00  0.00    +0.232 C 
BRANCH  20   3
ATOM      3  O   UNL     1      11.374  10.587  25.228  0.00  0.00    -0.387 OA
ATOM     26  H   UNL     1      12.273  10.244  25.087  0.00  0.00    +0.210 HD
ENDBRANCH  20   3
ENDBRANCH  15  20
ENDBRANCH  10  12
ENDBRANCH   7  10
ENDBRANCH   4   7
BRANCH   4  11
ATOM     11  C   UNL     1      14.743   7.403  19.142  0.00  0.00    +0.118 C 
BRANCH  11  13
ATOM      6  N   UNL     1      17.600   8.103  21.492  0.00  0.00    -0.255 NA
ATOM     13  C   UNL     1      16.054   7.282  19.831  0.00  0.00    -0.015 A 
ATOM     16  C   UNL     1      16.954   6.280  19.493  0.00  0.00    +0.016 A 
ATOM     17  C   UNL     1      16.423   8.160  20.829  0.00  0.00    +0.116 A 
ATOM     18  C   UNL     1      18.185   6.185  20.155  0.00  0.00    +0.001 A 
ATOM     19  C   UNL     1      18.471   7.131  21.162  0.00  0.00    +0.071 A 
ATOM     21  C   UNL     1      19.117   5.184  19.836  0.00  0.00    +0.010 A 
ATOM     22  C   UNL     1      19.695   7.036  21.820  0.00  0.00    +0.028 A 
ATOM     23  C   UNL     1      20.333   5.113  20.509  0.00  0.00    +0.001 A 
ATOM     24  C   UNL     1      20.622   6.040  21.503  0.00  0.00    +0.002 A 
ENDBRANCH  11  13
ENDBRANCH   4  11
TORSDOF 7
ENDMDL
MODEL 3
REMARK VINA RESULT:      -6.4      1.788      3.839
REMARK  Name = 56775585
REMARK  7 active torsions:
REMARK  status: ('A' for Active; 'I' for Inactive)
REMARK    1  A    between atoms: O_3  and  C_20
REMARK    2  A    between atoms: N_4  and  C_7
REMARK    3  A    between atoms: N_4  and  C_11
REMARK    4  A    between atoms: C_7  and  C_10
REMARK    5  A    between atoms: C_10  and  C_12
REMARK    6  A    between atoms: C_11  and  C_13
REMARK    7  A    between atoms: C_15  and  C_20
REMARK                            x       y       z     vdW  Elec       q    Type
REMARK                         _______ _______ _______ _____ _____    ______ ____
ROOT
ATOM      4  N   UNL     1      14.975   8.104  18.491  0.00  0.00    -0.302 NA
ATOM     25  H   UNL     1      15.874   8.174  18.016  0.00  0.00    +0.123 HD
ENDROOT
BRANCH   4   7
ATOM      1  O   UNL     1      14.737  11.086  18.000  0.00  0.00    -0.376 OA
ATOM      7  C   UNL     1      13.976   9.094  18.082  0.00  0.00    +0.072 C 
ATOM      8  C   UNL     1      14.070  10.298  19.012  0.00  0.00    +0.184 C 
ATOM      9  C   UNL     1      14.596  10.015  17.039  0.00  0.00    +0.184 C 
BRANCH   7  10
ATOM     10  C   UNL     1      12.634   8.490  17.809  0.00  0.00    +0.085 C 
BRANCH  10  12
ATOM      2  O   UNL     1      11.440   6.548  20.613  0.00  0.00    -0.357 OA
ATOM      5  N   UNL     1      12.111   6.678  19.404  0.00  0.00    -0.083 NA
ATOM     12  C   UNL     1      12.006   7.972  19.087  0.00  0.00    +0.086 A 
ATOM     14  C   UNL     1      11.287   8.700  20.051  0.00  0.00    +0.073 A 
ATOM     15  C   UNL     1      10.953   7.758  20.988  0.00  0.00    +0.163 A 
BRANCH  15  20
ATOM     20  C   UNL     1      10.211   7.803  22.254  0.00  0.00    +0.232 C 
BRANCH  20   3
ATOM      3  O   UNL     1       9.689   9.115  22.476  0.00  0.00    -0.387 OA
ATOM     26  H   UNL     1       8.841   9.167  22.003  0.00  0.00    +0.210 HD
ENDBRANCH  20   3
ENDBRANCH  15  20
ENDBRANCH  10  12
ENDBRANCH   7  10
ENDBRANCH   4   7
BRANCH   4  11
ATOM     11  C   UNL     1      15.174   8.195  19.941  0.00  0.00    +0.118 C 
BRANCH  11  13
ATOM      6  N   UNL     1      18.576   8.515  21.523  0.00  0.00    -0.255 NA
ATOM     13  C   UNL     1      16.568   7.876  20.347  0.00  0.00    -0.015 A 
ATOM     16  C   UNL     1      17.177   6.691  19.958  0.00  0.00    +0.016 A 
ATOM     17  C   UNL     1      17.305   8.747  21.123  0.00  0.00    +0.116 A 
ATOM     18  C   UNL     1      18.492   6.411  20.352  0.00  0.00    +0.001 A 
ATOM     19  C   UNL     1      19.164   7.364  21.145  0.00  0.00    +0.071 A 
ATOM     21  C   UNL     1      19.136   5.221  19.975  0.00  0.00    +0.010 A 
ATOM     22  C   UNL     1      20.471   7.086  21.536  0.00  0.00    +0.028 A 
ATOM     23  C   UNL     1      20.443   4.969  20.379  0.00  0.00    +0.001 A 
ATOM     24  C   UNL     1      21.111   5.903  21.161  0.00  0.00    +0.002 A 
ENDBRANCH  11  13
ENDBRANCH   4  11
TORSDOF 7
ENDMDL
MODEL 4
REMARK VINA RESULT:      -6.3      1.987      3.521
REMARK  Name = 56775585
REMARK  7 active torsions:
REMARK  status: ('A' for Active; 'I' for Inactive)
REMARK    1  A    between atoms: O_3  and  C_20
REMARK    2  A    between atoms: N_4  and  C_7
REMARK    3  A    between atoms: N_4  and  C_11
REMARK    4  A    between atoms: C_7  and  C_10
REMARK    5  A    between atoms: C_10  and  C_12
REMARK    6  A    between atoms: C_11  and  C_13
REMARK    7  A    between atoms: C_15  and  C_20
REMARK                            x       y       z     vdW  Elec       q    Type
REMARK                         _______ _______ _______ _____ _____    ______ ____
ROOT
ATOM      4  N   UNL     1      14.514   9.132  17.910  0.00  0.00    -0.302 NA
ATOM     25  H   UNL     1      15.382   9.173  17.378  0.00  0.00    +0.123 HD
ENDROOT
BRANCH   4   7
ATOM      1  O   UNL     1      14.111  12.022  17.089  0.00  0.00    -0.376 OA
ATOM      7  C   UNL     1      13.451  10.023  17.438  0.00  0.00    +0.072 C 
ATOM      8  C   UNL     1      13.526  11.331  18.216  0.00  0.00    +0.184 C 
ATOM      9  C   UNL     1      13.982  10.841  16.266  0.00  0.00    +0.184 C 
BRANCH   7  10
ATOM     10  C   UNL     1      12.130   9.333  17.300  0.00  0.00    +0.085 C 
BRANCH  10  12
ATOM      2  O   UNL     1      11.989   6.412  19.423  0.00  0.00    -0.357 OA
ATOM      5  N   UNL     1      12.303   7.053  18.231  0.00  0.00    -0.083 NA
ATOM     12  C   UNL     1      11.931   8.323  18.412  0.00  0.00    +0.086 A 
ATOM     14  C   UNL     1      11.381   8.541  19.687  0.00  0.00    +0.073 A 
ATOM     15  C   UNL     1      11.440   7.309  20.282  0.00  0.00    +0.163 A 
BRANCH  15  20
ATOM     20  C   UNL     1      11.045   6.797  21.600  0.00  0.00    +0.232 C 
BRANCH  20   3
ATOM      3  O   UNL     1      11.519   5.459  21.774  0.00  0.00    -0.387 OA
ATOM     26  H   UNL     1      11.744   5.359  22.715  0.00  0.00    +0.210 HD
ENDBRANCH  20   3
ENDBRANCH  15  20
ENDBRANCH  10  12
ENDBRANCH   7  10
ENDBRANCH   4   7
BRANCH   4  11
ATOM     11  C   UNL     1      14.785   9.418  19.322  0.00  0.00    +0.118 C 
BRANCH  11  13
ATOM      6  N   UNL     1      17.045   6.479  19.982  0.00  0.00    -0.255 NA
ATOM     13  C   UNL     1      15.902   8.602  19.865  0.00  0.00    -0.015 A 
ATOM     16  C   UNL     1      16.834   9.148  20.737  0.00  0.00    +0.016 A 
ATOM     17  C   UNL     1      16.052   7.273  19.522  0.00  0.00    +0.116 A 
ATOM     18  C   UNL     1      17.879   8.359  21.237  0.00  0.00    +0.001 A 
ATOM     19  C   UNL     1      17.947   7.011  20.828  0.00  0.00    +0.071 A 
ATOM     21  C   UNL     1      18.837   8.882  22.121  0.00  0.00    +0.010 A 
ATOM     22  C   UNL     1      18.985   6.228  21.326  0.00  0.00    +0.028 A 
ATOM     23  C   UNL     1      19.865   8.076  22.604  0.00  0.00    +0.001 A 
ATOM     24  C   UNL     1      19.938   6.747  22.205  0.00  0.00    +0.002 A 
ENDBRANCH  11  13
ENDBRANCH   4  11
TORSDOF 7
ENDMDL
MODEL 5
REMARK VINA RESULT:      -6.3      1.647      2.184
REMARK  Name = 56775585
REMARK  7 active torsions:
REMARK  status: ('A' for Active; 'I' for Inactive)
REMARK    1  A    between atoms: O_3  and  C_20
REMARK    2  A    between atoms: N_4  and  C_7
REMARK    3  A    between atoms: N_4  and  C_11
REMARK    4  A    between atoms: C_7  and  C_10
REMARK    5  A    between atoms: C_10  and  C_12
REMARK    6  A    between atoms: C_11  and  C_13
REMARK    7  A    between atoms: C_15  and  C_20
REMARK                            x       y       z     vdW  Elec       q    Type
REMARK                         _______ _______ _______ _____ _____    ______ ____
ROOT
ATOM      4  N   UNL     1      13.710  10.154  22.708  0.00  0.00    -0.302 NA
ATOM     25  H   UNL     1      14.163   9.380  23.192  0.00  0.00    +0.123 HD
ENDROOT
BRANCH   4   7
ATOM      1  O   UNL     1      10.994  11.467  22.410  0.00  0.00    -0.376 OA
ATOM      7  C   UNL     1      12.378   9.859  22.173  0.00  0.00    +0.072 C 
ATOM      8  C   UNL     1      11.333  10.299  23.192  0.00  0.00    +0.184 C 
ATOM      9  C   UNL     1      11.900  11.056  21.361  0.00  0.00    +0.184 C 
BRANCH   7  10
ATOM     10  C   UNL     1      12.279   8.491  21.575  0.00  0.00    +0.085 C 
BRANCH  10  12
ATOM      2  O   UNL     1      10.478   8.533  18.442  0.00  0.00    -0.357 OA
ATOM      5  N   UNL     1      10.540   8.403  19.824  0.00  0.00    -0.083 NA
ATOM     12  C   UNL     1      11.831   8.566  20.130  0.00  0.00    +0.086 A 
ATOM     14  C   UNL     1      12.623   8.799  18.992  0.00  0.00    +0.073 A 
ATOM     15  C   UNL     1      11.725   8.768  17.959  0.00  0.00    +0.163 A 
BRANCH  15  20
ATOM     20  C   UNL     1      11.843   8.932  16.504  0.00  0.00    +0.232 C 
BRANCH  20   3
ATOM      3  O   UNL     1      13.073   8.367  16.040  0.00  0.00    -0.387 OA
ATOM     26  H   UNL     1      13.732   8.509  16.742  0.00  0.00    +0.210 HD
ENDBRANCH  20   3
ENDBRANCH  15  20
ENDBRANCH  10  12
ENDBRANCH   7  10
ENDBRANCH   4   7
BRANCH   4  11
ATOM     11  C   UNL     1      14.569  10.626  21.618  0.00  0.00    +0.118 C 
BRANCH  11  13
ATOM      6  N   UNL     1      18.183   9.628  21.965  0.00  0.00    -0.255 NA
ATOM     13  C   UNL     1      15.825   9.840  21.498  0.00  0.00    -0.015 A 
ATOM     16  C   UNL     1      15.849   8.620  20.836  0.00  0.00    +0.016 A 
ATOM     17  C   UNL     1      17.009  10.295  22.040  0.00  0.00    +0.116 A 
ATOM     18  C   UNL     1      17.044   7.896  20.735  0.00  0.00    +0.001 A 
ATOM     19  C   UNL     1      18.204   8.445  21.323  0.00  0.00    +0.071 A 
ATOM     21  C   UNL     1      17.102   6.659  20.072  0.00  0.00    +0.010 A 
ATOM     22  C   UNL     1      19.391   7.725  21.222  0.00  0.00    +0.028 A 
ATOM     23  C   UNL     1      18.303   5.961  19.986  0.00  0.00    +0.001 A 
ATOM     24  C   UNL     1      19.449   6.495  20.562  0.00  0.00    +0.002 A 
ENDBRANCH  11  13
ENDBRANCH   4  11
TORSDOF 7
ENDMDL
MODEL 6
REMARK VINA RESULT:      -6.2      2.652      3.800
REMARK  Name = 56775585
REMARK  7 active torsions:
REMARK  status: ('A' for Active; 'I' for Inactive)
REMARK    1  A    between atoms: O_3  and  C_20
REMARK    2  A    between atoms: N_4  and  C_7
REMARK    3  A    between atoms: N_4  and  C_11
REMARK    4  A    between atoms: C_7  and  C_10
REMARK    5  A    between atoms: C_10  and  C_12
REMARK    6  A    between atoms: C_11  and  C_13
REMARK    7  A    between atoms: C_15  and  C_20
REMARK                            x       y       z     vdW  Elec       q    Type
REMARK                         _______ _______ _______ _____ _____    ______ ____
ROOT
ATOM      4  N   UNL     1      13.510  10.422  22.775  0.00  0.00    -0.302 NA
ATOM     25  H   UNL     1      13.114   9.504  22.579  0.00  0.00    +0.123 HD
ENDROOT
BRANCH   4   7
ATOM      1  O   UNL     1      13.388  13.276  23.791  0.00  0.00    -0.376 OA
ATOM      7  C   UNL     1      12.530  11.487  23.005  0.00  0.00    +0.072 C 
ATOM      8  C   UNL     1      12.785  12.099  24.377  0.00  0.00    +0.184 C 
ATOM      9  C   UNL     1      13.090  12.795  22.461  0.00  0.00    +0.184 C 
BRANCH   7  10
ATOM     10  C   UNL     1      11.136  11.086  22.634  0.00  0.00    +0.085 C 
BRANCH  10  12
ATOM      2  O   UNL     1      11.250   8.178  20.492  0.00  0.00    -0.357 OA
ATOM      5  N   UNL     1      11.331   9.547  20.713  0.00  0.00    -0.083 NA
ATOM     12  C   UNL     1      11.118   9.700  22.024  0.00  0.00    +0.086 A 
ATOM     14  C   UNL     1      10.900   8.473  22.674  0.00  0.00    +0.073 A 
ATOM     15  C   UNL     1      10.994   7.549  21.668  0.00  0.00    +0.163 A 
BRANCH  15  20
ATOM     20  C   UNL     1      10.876   6.087  21.616  0.00  0.00    +0.232 C 
BRANCH  20   3
ATOM      3  O   UNL     1      12.171   5.488  21.527  0.00  0.00    -0.387 OA
ATOM     26  H   UNL     1      12.070   4.555  21.784  0.00  0.00    +0.210 HD
ENDBRANCH  20   3
ENDBRANCH  15  20
ENDBRANCH  10  12
ENDBRANCH   7  10
ENDBRANCH   4   7
BRANCH   4  11
ATOM     11  C   UNL     1      14.401  10.820  21.681  0.00  0.00    +0.118 C 
BRANCH  11  13
ATOM      6  N   UNL     1      17.588   8.815  21.688  0.00  0.00    -0.255 NA
ATOM     13  C   UNL     1      15.398   9.770  21.346  0.00  0.00    -0.015 A 
ATOM     16  C   UNL     1      15.116   8.782  20.413  0.00  0.00    +0.016 A 
ATOM     17  C   UNL     1      16.638   9.741  21.950  0.00  0.00    +0.116 A 
ATOM     18  C   UNL     1      16.071   7.802  20.113  0.00  0.00    +0.001 A 
ATOM     19  C   UNL     1      17.311   7.857  20.783  0.00  0.00    +0.071 A 
ATOM     21  C   UNL     1      15.816   6.788  19.174  0.00  0.00    +0.010 A 
ATOM     22  C   UNL     1      18.261   6.884  20.484  0.00  0.00    +0.028 A 
ATOM     23  C   UNL     1      16.784   5.828  18.894  0.00  0.00    +0.001 A 
ATOM     24  C   UNL     1      18.008   5.876  19.550  0.00  0.00    +0.002 A 
ENDBRANCH  11  13
ENDBRANCH   4  11
TORSDOF 7
ENDMDL
MODEL 7
REMARK VINA RESULT:      -6.2     13.987     17.957
REMARK  Name = 56775585
REMARK  7 active torsions:
REMARK  status: ('A' for Active; 'I' for Inactive)
REMARK    1  A    between atoms: O_3  and  C_20
REMARK    2  A    between atoms: N_4  and  C_7
REMARK    3  A    between atoms: N_4  and  C_11
REMARK    4  A    between atoms: C_7  and  C_10
REMARK    5  A    between atoms: C_10  and  C_12
REMARK    6  A    between atoms: C_11  and  C_13
REMARK    7  A    between atoms: C_15  and  C_20
REMARK                            x       y       z     vdW  Elec       q    Type
REMARK                         _______ _______ _______ _____ _____    ______ ____
ROOT
ATOM      4  N   UNL     1      10.880   5.705   4.310  0.00  0.00    -0.302 NA
ATOM     25  H   UNL     1      10.626   4.829   4.763  0.00  0.00    +0.123 HD
ENDROOT
BRANCH   4   7
ATOM      1  O   UNL     1      12.207   8.354   4.952  0.00  0.00    -0.376 OA
ATOM      7  C   UNL     1      10.644   6.910   5.110  0.00  0.00    +0.072 C 
ATOM      8  C   UNL     1      11.925   7.262   5.856  0.00  0.00    +0.184 C 
ATOM      9  C   UNL     1      10.959   8.134   4.258  0.00  0.00    +0.184 C 
BRANCH   7  10
ATOM     10  C   UNL     1       9.351   6.865   5.864  0.00  0.00    +0.085 C 
BRANCH  10  12
ATOM      2  O   UNL     1       9.790   4.071   8.113  0.00  0.00    -0.357 OA
ATOM      5  N   UNL     1       9.793   4.644   6.847  0.00  0.00    -0.083 NA
ATOM     12  C   UNL     1       9.449   5.920   7.044  0.00  0.00    +0.086 A 
ATOM     14  C   UNL     1       9.218   6.207   8.400  0.00  0.00    +0.073 A 
ATOM     15  C   UNL     1       9.445   5.012   9.029  0.00  0.00    +0.163 A 
BRANCH  15  20
ATOM     20  C   UNL     1       9.392   4.574  10.430  0.00  0.00    +0.232 C 
BRANCH  20   3
ATOM      3  O   UNL     1       8.074   4.756  10.956  0.00  0.00    -0.387 OA
ATOM     26  H   UNL     1       8.098   5.556  11.508  0.00  0.00    +0.210 HD
ENDBRANCH  20   3
ENDBRANCH  15  20
ENDBRANCH  10  12
ENDBRANCH   7  10
ENDBRANCH   4   7
BRANCH   4  11
ATOM     11  C   UNL     1      10.166   5.829   3.036  0.00  0.00    +0.118 C 
BRANCH  11  13
ATOM      6  N   UNL     1      12.617   3.635   1.203  0.00  0.00    -0.255 NA
ATOM     13  C   UNL     1      10.833   5.088   1.934  0.00  0.00    -0.015 A 
ATOM     16  C   UNL     1      10.342   5.132   0.636  0.00  0.00    +0.016 A 
ATOM     17  C   UNL     1      11.964   4.331   2.161  0.00  0.00    +0.116 A 
ATOM     18  C   UNL     1      10.987   4.425  -0.387  0.00  0.00    +0.001 A 
ATOM     19  C   UNL     1      12.138   3.679  -0.055  0.00  0.00    +0.071 A 
ATOM     21  C   UNL     1      10.515   4.449  -1.710  0.00  0.00    +0.010 A 
ATOM     22  C   UNL     1      12.779   2.978  -1.072  0.00  0.00    +0.028 A 
ATOM     23  C   UNL     1      11.176   3.738  -2.707  0.00  0.00    +0.001 A 
ATOM     24  C   UNL     1      12.310   3.001  -2.387  0.00  0.00    +0.002 A 
ENDBRANCH  11  13
ENDBRANCH   4  11
TORSDOF 7
ENDMDL
MODEL 8
REMARK VINA RESULT:      -6.1     13.543     17.484
REMARK  Name = 56775585
REMARK  7 active torsions:
REMARK  status: ('A' for Active; 'I' for Inactive)
REMARK    1  A    between atoms: O_3  and  C_20
REMARK    2  A    between atoms: N_4  and  C_7
REMARK    3  A    between atoms: N_4  and  C_11
REMARK    4  A    between atoms: C_7  and  C_10
REMARK    5  A    between atoms: C_10  and  C_12
REMARK    6  A    between atoms: C_11  and  C_13
REMARK    7  A    between atoms: C_15  and  C_20
REMARK                            x       y       z     vdW  Elec       q    Type
REMARK                         _______ _______ _______ _____ _____    ______ ____
ROOT
ATOM      4  N   UNL     1      10.846   7.178   4.486  0.00  0.00    -0.302 NA
ATOM     25  H   UNL     1      11.738   7.235   4.973  0.00  0.00    +0.123 HD
ENDROOT
BRANCH   4   7
ATOM      1  O   UNL     1       7.918   7.824   4.040  0.00  0.00    -0.376 OA
ATOM      7  C   UNL     1       9.707   7.757   5.202  0.00  0.00    +0.072 C 
ATOM      8  C   UNL     1       9.002   8.748   4.282  0.00  0.00    +0.184 C 
ATOM      9  C   UNL     1       8.484   6.877   4.973  0.00  0.00    +0.184 C 
BRANCH   7  10
ATOM     10  C   UNL     1      10.047   8.176   6.598  0.00  0.00    +0.085 C 
BRANCH  10  12
ATOM      2  O   UNL     1      10.779   5.212   8.530  0.00  0.00    -0.357 OA
ATOM      5  N   UNL     1      11.109   6.180   7.589  0.00  0.00    -0.083 NA
ATOM     12  C   UNL     1      10.044   6.985   7.534  0.00  0.00    +0.086 A 
ATOM     14  C   UNL     1       9.022   6.578   8.409  0.00  0.00    +0.073 A 
ATOM     15  C   UNL     1       9.534   5.460   9.010  0.00  0.00    +0.163 A 
BRANCH  15  20
ATOM     20  C   UNL     1       9.024   4.526  10.022  0.00  0.00    +0.232 C 
BRANCH  20   3
ATOM      3  O   UNL     1       9.995   4.334  11.054  0.00  0.00    -0.387 OA
ATOM     26  H   UNL     1       9.570   4.585  11.892  0.00  0.00    +0.210 HD
ENDBRANCH  20   3
ENDBRANCH  15  20
ENDBRANCH  10  12
ENDBRANCH   7  10
ENDBRANCH   4   7
BRANCH   4  11
ATOM     11  C   UNL     1      10.547   5.779   4.163  0.00  0.00    +0.118 C 
BRANCH  11  13
ATOM      6  N   UNL     1      10.165   5.855   0.418  0.00  0.00    -0.255 NA
ATOM     13  C   UNL     1      10.757   5.468   2.725  0.00  0.00    -0.015 A 
ATOM     16  C   UNL     1      11.701   4.533   2.323  0.00  0.00    +0.016 A 
ATOM     17  C   UNL     1      10.022   6.095   1.741  0.00  0.00    +0.116 A 
ATOM     18  C   UNL     1      11.882   4.255   0.962  0.00  0.00    +0.001 A 
ATOM     19  C   UNL     1      11.081   4.949   0.030  0.00  0.00    +0.071 A 
ATOM     21  C   UNL     1      12.829   3.314   0.522  0.00  0.00    +0.010 A 
ATOM     22  C   UNL     1      11.261   4.671  -1.322  0.00  0.00    +0.028 A 
ATOM     23  C   UNL     1      12.987   3.056  -0.837  0.00  0.00    +0.001 A 
ATOM     24  C   UNL     1      12.202   3.736  -1.760  0.00  0.00    +0.002 A 
ENDBRANCH  11  13
ENDBRANCH   4  11
TORSDOF 7
ENDMDL
MODEL 9
REMARK VINA RESULT:      -6.1     27.093     28.313
REMARK  Name = 56775585
REMARK  7 active torsions:
REMARK  status: ('A' for Active; 'I' for Inactive)
REMARK    1  A    between atoms: O_3  and  C_20
REMARK    2  A    between atoms: N_4  and  C_7
REMARK    3  A    between atoms: N_4  and  C_11
REMARK    4  A    between atoms: C_7  and  C_10
REMARK    5  A    between atoms: C_10  and  C_12
REMARK    6  A    between atoms: C_11  and  C_13
REMARK    7  A    between atoms: C_15  and  C_20
REMARK                            x       y       z     vdW  Elec       q    Type
REMARK                         _______ _______ _______ _____ _____    ______ ____
ROOT
ATOM      4  N   UNL     1      -3.168 -11.481  16.454  0.00  0.00    -0.302 NA
ATOM     25  H   UNL     1      -2.268 -11.735  16.858  0.00  0.00    +0.123 HD
ENDROOT
BRANCH   4   7
ATOM      1  O   UNL     1      -4.323 -13.315  18.574  0.00  0.00    -0.376 OA
ATOM      7  C   UNL     1      -4.305 -11.549  17.376  0.00  0.00    +0.072 C 
ATOM      8  C   UNL     1      -4.910 -12.946  17.306  0.00  0.00    +0.184 C 
ATOM      9  C   UNL     1      -3.799 -11.978  18.748  0.00  0.00    +0.184 C 
BRANCH   7  10
ATOM     10  C   UNL     1      -5.208 -10.359  17.276  0.00  0.00    +0.085 C 
BRANCH  10  12
ATOM      2  O   UNL     1      -7.481 -10.548  20.079  0.00  0.00    -0.357 OA
ATOM      5  N   UNL     1      -6.219 -10.362  19.529  0.00  0.00    -0.083 NA
ATOM     12  C   UNL     1      -6.391 -10.501  18.211  0.00  0.00    +0.086 A 
ATOM     14  C   UNL     1      -7.729 -10.773  17.875  0.00  0.00    +0.073 A 
ATOM     15  C   UNL     1      -8.371 -10.792  19.084  0.00  0.00    +0.163 A 
BRANCH  15  20
ATOM     20  C   UNL     1      -9.764 -11.013  19.492  0.00  0.00    +0.232 C 
BRANCH  20   3
ATOM      3  O   UNL     1     -10.061 -10.262  20.672  0.00  0.00    -0.387 OA
ATOM     26  H   UNL     1      -9.434 -10.552  21.357  0.00  0.00    +0.210 HD
ENDBRANCH  20   3
ENDBRANCH  15  20
ENDBRANCH  10  12
ENDBRANCH   7  10
ENDBRANCH   4   7
BRANCH   4  11
ATOM     11  C   UNL     1      -3.445 -12.328  15.290  0.00  0.00    +0.118 C 
BRANCH  11  13
ATOM      6  N   UNL     1      -1.971 -10.943  12.113  0.00  0.00    -0.255 NA
ATOM     13  C   UNL     1      -3.322 -11.589  14.006  0.00  0.00    -0.015 A 
ATOM     16  C   UNL     1      -4.389 -10.867  13.487  0.00  0.00    +0.016 A 
ATOM     17  C   UNL     1      -2.145 -11.595  13.286  0.00  0.00    +0.116 A 
ATOM     18  C   UNL     1      -4.250 -10.178  12.275  0.00  0.00    +0.001 A 
ATOM     19  C   UNL     1      -3.007 -10.244  11.612  0.00  0.00    +0.071 A 
ATOM     21  C   UNL     1      -5.310  -9.439  11.723  0.00  0.00    +0.010 A 
ATOM     22  C   UNL     1      -2.870  -9.559  10.408  0.00  0.00    +0.028 A 
ATOM     23  C   UNL     1      -5.145  -8.763  10.518  0.00  0.00    +0.001 A 
ATOM     24  C   UNL     1      -3.923  -8.824   9.860  0.00  0.00    +0.002 A 
ENDBRANCH  11  13
ENDBRANCH   4  11
TORSDOF 7
ENDMDL
MODEL 10
REMARK VINA RESULT:      -6.1      2.319      4.408
REMARK  Name = 56775585
REMARK  7 active torsions:
REMARK  status: ('A' for Active; 'I' for Inactive)
REMARK    1  A    between atoms: O_3  and  C_20
REMARK    2  A    between atoms: N_4  and  C_7
REMARK    3  A    between atoms: N_4  and  C_11
REMARK    4  A    between atoms: C_7  and  C_10
REMARK    5  A    between atoms: C_10  and  C_12
REMARK    6  A    between atoms: C_11  and  C_13
REMARK    7  A    between atoms: C_15  and  C_20
REMARK                            x       y       z     vdW  Elec       q    Type
REMARK                         _______ _______ _______ _____ _____    ______ ____
ROOT
ATOM      4  N   UNL     1      14.472   7.567  20.686  0.00  0.00    -0.302 NA
ATOM     25  H   UNL     1      14.554   6.855  21.410  0.00  0.00    +0.123 HD
ENDROOT
BRANCH   4   7
ATOM      1  O   UNL     1      11.812   6.214  20.154  0.00  0.00    -0.376 OA
ATOM      7  C   UNL     1      13.100   7.909  20.301  0.00  0.00    +0.072 C 
ATOM      8  C   UNL     1      12.640   6.941  19.218  0.00  0.00    +0.184 C 
ATOM      9  C   UNL     1      12.135   7.152  21.205  0.00  0.00    +0.184 C 
BRANCH   7  10
ATOM     10  C   UNL     1      12.901   9.378  20.096  0.00  0.00    +0.085 C 
BRANCH  10  12
ATOM      2  O   UNL     1      10.939  10.828  22.762  0.00  0.00    -0.357 OA
ATOM      5  N   UNL     1      11.067  10.220  21.519  0.00  0.00    -0.083 NA
ATOM     12  C   UNL     1      12.380  10.032  21.359  0.00  0.00    +0.086 A 
ATOM     14  C   UNL     1      13.123  10.499  22.458  0.00  0.00    +0.073 A 
ATOM     15  C   UNL     1      12.170  10.989  23.311  0.00  0.00    +0.163 A 
BRANCH  15  20
ATOM     20  C   UNL     1      12.219  11.622  24.634  0.00  0.00    +0.232 C 
BRANCH  20   3
ATOM      3  O   UNL     1      11.295  10.986  25.523  0.00  0.00    -0.387 OA
ATOM     26  H   UNL     1      11.785  10.284  25.985  0.00  0.00    +0.210 HD
ENDBRANCH  20   3
ENDBRANCH  15  20
ENDBRANCH  10  12
ENDBRANCH   7  10
ENDBRANCH   4   7
BRANCH   4  11
ATOM     11  C   UNL     1      15.213   7.147  19.493  0.00  0.00    +0.118 C 
BRANCH  11  13
ATOM      6  N   UNL     1      18.474   5.277  19.275  0.00  0.00    -0.255 NA
ATOM     13  C   UNL     1      16.592   6.690  19.809  0.00  0.00    -0.015 A 
ATOM     16  C   UNL     1      17.291   7.208  20.891  0.00  0.00    +0.016 A 
ATOM     17  C   UNL     1      17.224   5.735  19.039  0.00  0.00    +0.116 A 
ATOM     18  C   UNL     1      18.589   6.761  21.171  0.00  0.00    +0.001 A 
ATOM     19  C   UNL     1      19.150   5.781  20.325  0.00  0.00    +0.071 A 
ATOM     21  C   UNL     1      19.323   7.265  22.258  0.00  0.00    +0.010 A 
ATOM     22  C   UNL     1      20.440   5.338  20.604  0.00  0.00    +0.028 A 
ATOM     23  C   UNL     1      20.611   6.803  22.513  0.00  0.00    +0.001 A 
ATOM     24  C   UNL     1      21.170   5.838  21.685  0.00  0.00    +0.002 A 
ENDBRANCH  11  13
ENDBRANCH   4  11
TORSDOF 7
ENDMDL
