MODEL 1
REMARK VINA RESULT:      -6.8      0.000      0.000
REMARK  Name = 11882071
REMARK  12 active torsions:
REMARK  status: ('A' for Active; 'I' for Inactive)
REMARK    1  A    between atoms: O_6  and  C_33
REMARK    2  A    between atoms: O_6  and  C_36
REMARK    3  A    between atoms: N_8  and  C_12
REMARK    4  A    between atoms: N_9  and  C_18
REMARK    5  A    between atoms: N_10  and  C_25
REMARK    6  A    between atoms: C_13  and  C_16
REMARK    7  A    between atoms: C_17  and  C_20
REMARK    8  A    between atoms: C_18  and  C_21
REMARK    9  A    between atoms: C_18  and  C_22
REMARK   10  A    between atoms: C_21  and  C_24
REMARK   11  A    between atoms: C_23  and  C_26
REMARK   12  A    between atoms: C_23  and  C_27
REMARK                            x       y       z     vdW  Elec       q    Type
REMARK                         _______ _______ _______ _____ _____    ______ ____
ROOT
ATOM      3  O   UNL     1      17.548  10.960  20.199  0.00  0.00    -0.271 OA
ATOM      7  N   UNL     1      15.661  10.799  21.527  0.00  0.00    -0.285 N 
ATOM     12  C   UNL     1      14.145  11.059  23.339  0.00  0.00    +0.105 C 
ATOM     13  C   UNL     1      14.644  10.065  22.285  0.00  0.00    +0.182 C 
ATOM     14  C   UNL     1      14.372  12.420  22.678  0.00  0.00    +0.043 C 
ATOM     15  C   UNL     1      15.645  12.217  21.868  0.00  0.00    +0.111 C 
ATOM     17  C   UNL     1      16.644  10.289  20.698  0.00  0.00    +0.240 C 
ENDROOT
BRANCH  12   8
ATOM      4  O   UNL     1      13.338  11.949  25.939  0.00  0.00    -0.252 OA
ATOM      8  N   UNL     1      14.901  10.945  24.563  0.00  0.00    -0.294 N 
ATOM     10  N   UNL     1      15.376  11.163  26.798  0.00  0.00    -0.269 N 
ATOM     19  C   UNL     1      14.432  11.409  25.798  0.00  0.00    +0.304 C 
ATOM     37  H   UNL     1      15.788  10.450  24.542  0.00  0.00    +0.151 HD
ATOM     39  H   UNL     1      16.238  10.704  26.512  0.00  0.00    +0.156 HD
BRANCH  10  25
ATOM     25  C   UNL     1      15.284  11.478  28.175  0.00  0.00    +0.038 A 
ATOM     29  C   UNL     1      15.511  10.489  29.132  0.00  0.00    +0.069 A 
ATOM     30  C   UNL     1      14.969  12.777  28.575  0.00  0.00    +0.023 A 
ATOM     33  C   UNL     1      15.420  10.799  30.490  0.00  0.00    +0.122 A 
ATOM     34  C   UNL     1      14.878  13.086  29.932  0.00  0.00    +0.005 A 
ATOM     35  C   UNL     1      15.104  12.097  30.888  0.00  0.00    +0.046 A 
BRANCH  33   6
ATOM      6  O   UNL     1      15.640   9.834  31.424  0.00  0.00    -0.495 OA
ATOM     36  C   UNL     1      15.790  10.262  32.777  0.00  0.00    +0.277 C 
ENDBRANCH  33   6
ENDBRANCH  10  25
ENDBRANCH  12   8
BRANCH  13  16
ATOM      2  O   UNL     1      13.042  10.555  20.583  0.00  0.00    -0.274 OA
ATOM      9  N   UNL     1      13.165   8.388  21.425  0.00  0.00    -0.302 N 
ATOM     16  C   UNL     1      13.540   9.718  21.330  0.00  0.00    +0.236 C 
ATOM     38  H   UNL     1      13.661   7.782  22.073  0.00  0.00    +0.150 HD
BRANCH   9  18
ATOM     18  C   UNL     1      12.109   7.806  20.628  0.00  0.00    +0.163 C 
BRANCH  18  22
ATOM      5  O   UNL     1      11.379   5.805  21.799  0.00  0.00    -0.274 OA
ATOM     11  N   UNL     1      10.267   7.777  22.194  0.00  0.00    -0.328 N 
ATOM     22  C   UNL     1      11.227   7.004  21.574  0.00  0.00    +0.231 C 
ATOM     40  H   UNL     1       9.621   7.368  22.862  0.00  0.00    +0.145 HD
ATOM     41  H   UNL     1      10.159   8.769  22.007  0.00  0.00    +0.145 HD
ENDBRANCH  18  22
BRANCH  18  21
ATOM     21  C   UNL     1      12.651   6.907  19.511  0.00  0.00    +0.074 C 
BRANCH  21  24
ATOM      1  S   UNL     1      11.723   8.644  17.539  0.00  0.00    -0.102 S 
ATOM     24  C   UNL     1      12.949   7.680  18.247  0.00  0.00    -0.008 A 
ATOM     28  C   UNL     1      14.126   7.732  17.532  0.00  0.00    +0.011 A 
ATOM     31  C   UNL     1      14.019   8.574  16.388  0.00  0.00    +0.008 A 
ATOM     32  C   UNL     1      12.765   9.134  16.272  0.00  0.00    +0.045 A 
ENDBRANCH  21  24
ENDBRANCH  18  21
ENDBRANCH   9  18
ENDBRANCH  13  16
BRANCH  17  20
ATOM     20  C   UNL     1      16.592   8.845  20.399  0.00  0.00    +0.066 C 
ATOM     23  C   UNL     1      17.435   7.926  20.904  0.00  0.00    -0.071 C 
ATOM     26  C   UNL     1      17.413   6.449  20.624  0.00  0.00    +0.039 C 
ATOM     27  C   UNL     1      18.529   8.355  21.847  0.00  0.00    +0.039 C 
ENDBRANCH  17  20
TORSDOF 9
ENDMDL
MODEL 2
REMARK VINA RESULT:      -6.7     28.178     31.198
REMARK  Name = 11882071
REMARK  12 active torsions:
REMARK  status: ('A' for Active; 'I' for Inactive)
REMARK    1  A    between atoms: O_6  and  C_33
REMARK    2  A    between atoms: O_6  and  C_36
REMARK    3  A    between atoms: N_8  and  C_12
REMARK    4  A    between atoms: N_9  and  C_18
REMARK    5  A    between atoms: N_10  and  C_25
REMARK    6  A    between atoms: C_13  and  C_16
REMARK    7  A    between atoms: C_17  and  C_20
REMARK    8  A    between atoms: C_18  and  C_21
REMARK    9  A    between atoms: C_18  and  C_22
REMARK   10  A    between atoms: C_21  and  C_24
REMARK   11  A    between atoms: C_23  and  C_26
REMARK   12  A    between atoms: C_23  and  C_27
REMARK                            x       y       z     vdW  Elec       q    Type
REMARK                         _______ _______ _______ _____ _____    ______ ____
ROOT
ATOM      3  O   UNL     1      15.572  -6.714  -5.419  0.00  0.00    -0.271 OA
ATOM      7  N   UNL     1      17.057  -7.569  -3.865  0.00  0.00    -0.285 N 
ATOM     12  C   UNL     1      18.205  -9.073  -2.426  0.00  0.00    +0.105 C 
ATOM     13  C   UNL     1      17.685  -7.637  -2.542  0.00  0.00    +0.182 C 
ATOM     14  C   UNL     1      18.467  -9.473  -3.880  0.00  0.00    +0.043 C 
ATOM     15  C   UNL     1      17.368  -8.757  -4.652  0.00  0.00    +0.111 C 
ATOM     17  C   UNL     1      16.158  -6.630  -4.340  0.00  0.00    +0.240 C 
ENDROOT
BRANCH  12   8
ATOM      4  O   UNL     1      18.625 -10.884  -0.248  0.00  0.00    -0.252 OA
ATOM      8  N   UNL     1      17.220  -9.937  -1.820  0.00  0.00    -0.294 N 
ATOM     10  N   UNL     1      16.366 -11.507  -0.380  0.00  0.00    -0.269 N 
ATOM     19  C   UNL     1      17.509 -10.797  -0.755  0.00  0.00    +0.304 C 
ATOM     37  H   UNL     1      16.257  -9.874  -2.139  0.00  0.00    +0.151 HD
ATOM     39  H   UNL     1      15.516 -11.316  -0.906  0.00  0.00    +0.156 HD
BRANCH  10  25
ATOM     25  C   UNL     1      16.239 -12.469   0.649  0.00  0.00    +0.038 A 
ATOM     29  C   UNL     1      15.517 -12.165   1.802  0.00  0.00    +0.069 A 
ATOM     30  C   UNL     1      16.837 -13.723   0.510  0.00  0.00    +0.023 A 
ATOM     33  C   UNL     1      15.392 -13.115   2.818  0.00  0.00    +0.122 A 
ATOM     34  C   UNL     1      16.712 -14.671   1.525  0.00  0.00    +0.005 A 
ATOM     35  C   UNL     1      15.990 -14.367   2.678  0.00  0.00    +0.046 A 
BRANCH  33   6
ATOM      6  O   UNL     1      14.687 -12.818   3.944  0.00  0.00    -0.495 OA
ATOM     36  C   UNL     1      15.436 -12.592   5.137  0.00  0.00    +0.277 C 
ENDBRANCH  33   6
ENDBRANCH  10  25
ENDBRANCH  12   8
BRANCH  13  16
ATOM      2  O   UNL     1      19.595  -6.565  -3.494  0.00  0.00    -0.274 OA
ATOM      9  N   UNL     1      18.904  -5.949  -1.358  0.00  0.00    -0.302 N 
ATOM     16  C   UNL     1      18.828  -6.665  -2.541  0.00  0.00    +0.236 C 
ATOM     38  H   UNL     1      18.202  -6.107  -0.640  0.00  0.00    +0.150 HD
BRANCH   9  18
ATOM     18  C   UNL     1      19.930  -4.965  -1.095  0.00  0.00    +0.163 C 
BRANCH  18  22
ATOM      5  O   UNL     1      21.370  -5.030   0.862  0.00  0.00    -0.274 OA
ATOM     11  N   UNL     1      19.093  -5.016   1.172  0.00  0.00    -0.328 N 
ATOM     22  C   UNL     1      20.233  -5.023   0.396  0.00  0.00    +0.231 C 
ATOM     40  H   UNL     1      19.154  -5.036   2.185  0.00  0.00    +0.145 HD
ATOM     41  H   UNL     1      18.159  -4.998   0.774  0.00  0.00    +0.145 HD
ENDBRANCH  18  22
BRANCH  18  21
ATOM     21  C   UNL     1      19.495  -3.550  -1.497  0.00  0.00    +0.074 C 
BRANCH  21  24
ATOM      1  S   UNL     1      21.946  -3.679  -2.815  0.00  0.00    -0.102 S 
ATOM     24  C   UNL     1      20.453  -2.912  -2.475  0.00  0.00    -0.008 A 
ATOM     28  C   UNL     1      20.304  -1.736  -3.177  0.00  0.00    +0.011 A 
ATOM     31  C   UNL     1      21.430  -1.462  -4.006  0.00  0.00    +0.008 A 
ATOM     32  C   UNL     1      22.397  -2.439  -3.906  0.00  0.00    +0.045 A 
ENDBRANCH  21  24
ENDBRANCH  18  21
ENDBRANCH   9  18
ENDBRANCH  13  16
BRANCH  17  20
ATOM     20  C   UNL     1      15.897  -5.455  -3.485  0.00  0.00    +0.066 C 
ATOM     23  C   UNL     1      16.471  -4.249  -3.643  0.00  0.00    -0.071 C 
ATOM     26  C   UNL     1      16.231  -3.030  -2.796  0.00  0.00    +0.039 C 
ATOM     27  C   UNL     1      17.459  -4.033  -4.760  0.00  0.00    +0.039 C 
ENDBRANCH  17  20
TORSDOF 9
ENDMDL
MODEL 3
REMARK VINA RESULT:      -6.5     17.046     19.757
REMARK  Name = 11882071
REMARK  12 active torsions:
REMARK  status: ('A' for Active; 'I' for Inactive)
REMARK    1  A    between atoms: O_6  and  C_33
REMARK    2  A    between atoms: O_6  and  C_36
REMARK    3  A    between atoms: N_8  and  C_12
REMARK    4  A    between atoms: N_9  and  C_18
REMARK    5  A    between atoms: N_10  and  C_25
REMARK    6  A    between atoms: C_13  and  C_16
REMARK    7  A    between atoms: C_17  and  C_20
REMARK    8  A    between atoms: C_18  and  C_21
REMARK    9  A    between atoms: C_18  and  C_22
REMARK   10  A    between atoms: C_21  and  C_24
REMARK   11  A    between atoms: C_23  and  C_26
REMARK   12  A    between atoms: C_23  and  C_27
REMARK                            x       y       z     vdW  Elec       q    Type
REMARK                         _______ _______ _______ _____ _____    ______ ____
ROOT
ATOM      3  O   UNL     1       7.870   7.720   6.947  0.00  0.00    -0.271 OA
ATOM      7  N   UNL     1       9.953   7.005   6.237  0.00  0.00    -0.285 N 
ATOM     12  C   UNL     1      12.308   6.774   6.016  0.00  0.00    +0.105 C 
ATOM     13  C   UNL     1      10.993   6.777   5.230  0.00  0.00    +0.182 C 
ATOM     14  C   UNL     1      11.887   6.299   7.409  0.00  0.00    +0.043 C 
ATOM     15  C   UNL     1      10.497   6.894   7.585  0.00  0.00    +0.111 C 
ATOM     17  C   UNL     1       8.648   7.422   6.040  0.00  0.00    +0.240 C 
ENDROOT
BRANCH  12   8
ATOM      4  O   UNL     1      15.042   7.426   6.567  0.00  0.00    -0.252 OA
ATOM      8  N   UNL     1      12.885   8.096   6.072  0.00  0.00    -0.294 N 
ATOM     10  N   UNL     1      14.505   9.700   6.338  0.00  0.00    -0.269 N 
ATOM     19  C   UNL     1      14.237   8.329   6.349  0.00  0.00    +0.304 C 
ATOM     37  H   UNL     1      12.299   8.892   5.838  0.00  0.00    +0.151 HD
ATOM     39  H   UNL     1      13.721  10.318   6.141  0.00  0.00    +0.156 HD
BRANCH  10  25
ATOM     25  C   UNL     1      15.743  10.345   6.570  0.00  0.00    +0.038 A 
ATOM     29  C   UNL     1      16.921   9.792   6.067  0.00  0.00    +0.069 A 
ATOM     30  C   UNL     1      15.786  11.533   7.300  0.00  0.00    +0.023 A 
ATOM     33  C   UNL     1      18.142  10.428   6.295  0.00  0.00    +0.122 A 
ATOM     34  C   UNL     1      17.006  12.168   7.528  0.00  0.00    +0.005 A 
ATOM     35  C   UNL     1      18.184  11.615   7.026  0.00  0.00    +0.046 A 
BRANCH  33   6
ATOM      6  O   UNL     1      19.292   9.889   5.806  0.00  0.00    -0.495 OA
ATOM     36  C   UNL     1      19.528   8.508   6.074  0.00  0.00    +0.277 C 
ENDBRANCH  33   6
ENDBRANCH  10  25
ENDBRANCH  12   8
BRANCH  13  16
ATOM      2  O   UNL     1      10.005   4.604   5.164  0.00  0.00    -0.274 OA
ATOM      9  N   UNL     1      11.443   5.241   3.448  0.00  0.00    -0.302 N 
ATOM     16  C   UNL     1      10.742   5.426   4.627  0.00  0.00    +0.236 C 
ATOM     38  H   UNL     1      12.014   6.002   3.089  0.00  0.00    +0.150 HD
BRANCH   9  18
ATOM     18  C   UNL     1      11.391   4.016   2.681  0.00  0.00    +0.163 C 
BRANCH  18  22
ATOM      5  O   UNL     1      13.094   2.828   1.417  0.00  0.00    -0.274 OA
ATOM     11  N   UNL     1      13.559   4.951   2.163  0.00  0.00    -0.328 N 
ATOM     22  C   UNL     1      12.756   3.837   2.032  0.00  0.00    +0.231 C 
ATOM     40  H   UNL     1      14.491   4.970   1.761  0.00  0.00    +0.145 HD
ATOM     41  H   UNL     1      13.264   5.783   2.664  0.00  0.00    +0.145 HD
ENDBRANCH  18  22
BRANCH  18  21
ATOM     21  C   UNL     1      10.291   4.045   1.614  0.00  0.00    +0.074 C 
BRANCH  21  24
ATOM      1  S   UNL     1      10.974   5.016  -0.907  0.00  0.00    -0.102 S 
ATOM     24  C   UNL     1      10.414   5.239   0.696  0.00  0.00    -0.008 A 
ATOM     28  C   UNL     1      10.130   6.560   0.966  0.00  0.00    +0.011 A 
ATOM     31  C   UNL     1      10.375   7.400  -0.159  0.00  0.00    +0.008 A 
ATOM     32  C   UNL     1      10.836   6.689  -1.245  0.00  0.00    +0.045 A 
ENDBRANCH  21  24
ENDBRANCH  18  21
ENDBRANCH   9  18
ENDBRANCH  13  16
BRANCH  17  20
ATOM     20  C   UNL     1       8.170   7.508   4.646  0.00  0.00    +0.066 C 
ATOM     23  C   UNL     1       8.155   8.632   3.908  0.00  0.00    -0.071 C 
ATOM     26  C   UNL     1       7.677   8.759   2.488  0.00  0.00    +0.039 C 
ATOM     27  C   UNL     1       8.651   9.923   4.506  0.00  0.00    +0.039 C 
ENDBRANCH  17  20
TORSDOF 9
ENDMDL
MODEL 4
REMARK VINA RESULT:      -6.3     17.141     20.719
REMARK  Name = 11882071
REMARK  12 active torsions:
REMARK  status: ('A' for Active; 'I' for Inactive)
REMARK    1  A    between atoms: O_6  and  C_33
REMARK    2  A    between atoms: O_6  and  C_36
REMARK    3  A    between atoms: N_8  and  C_12
REMARK    4  A    between atoms: N_9  and  C_18
REMARK    5  A    between atoms: N_10  and  C_25
REMARK    6  A    between atoms: C_13  and  C_16
REMARK    7  A    between atoms: C_17  and  C_20
REMARK    8  A    between atoms: C_18  and  C_21
REMARK    9  A    between atoms: C_18  and  C_22
REMARK   10  A    between atoms: C_21  and  C_24
REMARK   11  A    between atoms: C_23  and  C_26
REMARK   12  A    between atoms: C_23  and  C_27
REMARK                            x       y       z     vdW  Elec       q    Type
REMARK                         _______ _______ _______ _____ _____    ______ ____
ROOT
ATOM      3  O   UNL     1      13.325   7.149  -0.398  0.00  0.00    -0.271 OA
ATOM      7  N   UNL     1      14.104   7.667   1.718  0.00  0.00    -0.285 N 
ATOM     12  C   UNL     1      15.523   8.342   3.500  0.00  0.00    +0.105 C 
ATOM     13  C   UNL     1      14.410   7.363   3.118  0.00  0.00    +0.182 C 
ATOM     14  C   UNL     1      15.275   9.538   2.577  0.00  0.00    +0.043 C 
ATOM     15  C   UNL     1      14.757   8.900   1.296  0.00  0.00    +0.111 C 
ATOM     17  C   UNL     1      13.427   6.883   0.799  0.00  0.00    +0.240 C 
ENDROOT
BRANCH  12   8
ATOM      4  O   UNL     1      18.017   9.259   4.568  0.00  0.00    -0.252 OA
ATOM      8  N   UNL     1      16.827   7.768   3.263  0.00  0.00    -0.294 N 
ATOM     10  N   UNL     1      19.104   7.523   3.421  0.00  0.00    -0.269 N 
ATOM     19  C   UNL     1      18.001   8.280   3.826  0.00  0.00    +0.304 C 
ATOM     37  H   UNL     1      16.889   6.916   2.714  0.00  0.00    +0.151 HD
ATOM     39  H   UNL     1      18.917   6.739   2.799  0.00  0.00    +0.156 HD
BRANCH  10  25
ATOM     25  C   UNL     1      20.462   7.712   3.768  0.00  0.00    +0.038 A 
ATOM     29  C   UNL     1      21.186   8.761   3.203  0.00  0.00    +0.069 A 
ATOM     30  C   UNL     1      21.076   6.850   4.677  0.00  0.00    +0.023 A 
ATOM     33  C   UNL     1      22.526   8.947   3.546  0.00  0.00    +0.122 A 
ATOM     34  C   UNL     1      22.415   7.036   5.019  0.00  0.00    +0.005 A 
ATOM     35  C   UNL     1      23.140   8.085   4.454  0.00  0.00    +0.046 A 
BRANCH  33   6
ATOM      6  O   UNL     1      23.234   9.971   2.994  0.00  0.00    -0.495 OA
ATOM     36  C   UNL     1      24.586  10.131   3.422  0.00  0.00    +0.277 C 
ENDBRANCH  33   6
ENDBRANCH  10  25
ENDBRANCH  12   8
BRANCH  13  16
ATOM      2  O   UNL     1      12.376   8.522   3.594  0.00  0.00    -0.274 OA
ATOM      9  N   UNL     1      13.068   6.825   5.029  0.00  0.00    -0.302 N 
ATOM     16  C   UNL     1      13.171   7.644   3.917  0.00  0.00    +0.236 C 
ATOM     38  H   UNL     1      13.782   6.119   5.188  0.00  0.00    +0.150 HD
BRANCH   9  18
ATOM     18  C   UNL     1      11.978   6.909   5.974  0.00  0.00    +0.163 C 
BRANCH  18  22
ATOM      5  O   UNL     1      11.725   5.848   8.147  0.00  0.00    -0.274 OA
ATOM     11  N   UNL     1      13.846   6.258   7.363  0.00  0.00    -0.328 N 
ATOM     22  C   UNL     1      12.470   6.299   7.279  0.00  0.00    +0.231 C 
ATOM     40  H   UNL     1      14.305   5.861   8.177  0.00  0.00    +0.145 HD
ATOM     41  H   UNL     1      14.450   6.624   6.634  0.00  0.00    +0.145 HD
ENDBRANCH  18  22
BRANCH  18  21
ATOM     21  C   UNL     1      10.723   6.178   5.482  0.00  0.00    +0.074 C 
BRANCH  21  24
ATOM      1  S   UNL     1       9.057   8.266   6.275  0.00  0.00    -0.102 S 
ATOM     24  C   UNL     1       9.610   7.132   5.116  0.00  0.00    -0.008 A 
ATOM     28  C   UNL     1       8.928   7.236   3.924  0.00  0.00    +0.011 A 
ATOM     31  C   UNL     1       7.939   8.261   3.962  0.00  0.00    +0.008 A 
ATOM     32  C   UNL     1       7.903   8.901   5.182  0.00  0.00    +0.045 A 
ENDBRANCH  21  24
ENDBRANCH  18  21
ENDBRANCH   9  18
ENDBRANCH  13  16
BRANCH  17  20
ATOM     20  C   UNL     1      12.791   5.650   1.304  0.00  0.00    +0.066 C 
ATOM     23  C   UNL     1      13.364   4.434   1.298  0.00  0.00    -0.071 C 
ATOM     26  C   UNL     1      12.750   3.157   1.802  0.00  0.00    +0.039 C 
ATOM     27  C   UNL     1      14.756   4.267   0.745  0.00  0.00    +0.039 C 
ENDBRANCH  17  20
TORSDOF 9
ENDMDL
MODEL 5
REMARK VINA RESULT:      -6.2     28.609     31.204
REMARK  Name = 11882071
REMARK  12 active torsions:
REMARK  status: ('A' for Active; 'I' for Inactive)
REMARK    1  A    between atoms: O_6  and  C_33
REMARK    2  A    between atoms: O_6  and  C_36
REMARK    3  A    between atoms: N_8  and  C_12
REMARK    4  A    between atoms: N_9  and  C_18
REMARK    5  A    between atoms: N_10  and  C_25
REMARK    6  A    between atoms: C_13  and  C_16
REMARK    7  A    between atoms: C_17  and  C_20
REMARK    8  A    between atoms: C_18  and  C_21
REMARK    9  A    between atoms: C_18  and  C_22
REMARK   10  A    between atoms: C_21  and  C_24
REMARK   11  A    between atoms: C_23  and  C_26
REMARK   12  A    between atoms: C_23  and  C_27
REMARK                            x       y       z     vdW  Elec       q    Type
REMARK                         _______ _______ _______ _____ _____    ______ ____
ROOT
ATOM      3  O   UNL     1      16.851  -9.582  -5.506  0.00  0.00    -0.271 OA
ATOM      7  N   UNL     1      17.855  -9.373  -3.432  0.00  0.00    -0.285 N 
ATOM     12  C   UNL     1      18.692  -9.879  -1.267  0.00  0.00    +0.105 C 
ATOM     13  C   UNL     1      18.007  -8.789  -2.097  0.00  0.00    +0.182 C 
ATOM     14  C   UNL     1      19.487 -10.670  -2.308  0.00  0.00    +0.043 C 
ATOM     15  C   UNL     1      18.605 -10.618  -3.547  0.00  0.00    +0.111 C 
ATOM     17  C   UNL     1      17.021  -8.961  -4.457  0.00  0.00    +0.240 C 
ENDROOT
BRANCH  12   8
ATOM      4  O   UNL     1      18.768 -10.771   1.454  0.00  0.00    -0.252 OA
ATOM      8  N   UNL     1      17.722 -10.720  -0.607  0.00  0.00    -0.294 N 
ATOM     10  N   UNL     1      16.753 -11.921   1.093  0.00  0.00    -0.269 N 
ATOM     19  C   UNL     1      17.834 -11.112   0.731  0.00  0.00    +0.304 C 
ATOM     37  H   UNL     1      16.886 -10.989  -1.118  0.00  0.00    +0.151 HD
ATOM     39  H   UNL     1      16.062 -12.110   0.370  0.00  0.00    +0.156 HD
BRANCH  10  25
ATOM     25  C   UNL     1      16.497 -12.518   2.349  0.00  0.00    +0.038 A 
ATOM     29  C   UNL     1      16.945 -13.812   2.610  0.00  0.00    +0.069 A 
ATOM     30  C   UNL     1      15.796 -11.811   3.328  0.00  0.00    +0.023 A 
ATOM     33  C   UNL     1      16.693 -14.401   3.850  0.00  0.00    +0.122 A 
ATOM     34  C   UNL     1      15.544 -12.400   4.566  0.00  0.00    +0.005 A 
ATOM     35  C   UNL     1      15.992 -13.695   4.827  0.00  0.00    +0.046 A 
BRANCH  33   6
ATOM      6  O   UNL     1      17.130 -15.664   4.105  0.00  0.00    -0.495 OA
ATOM     36  C   UNL     1      16.222 -16.545   4.765  0.00  0.00    +0.277 C 
ENDBRANCH  33   6
ENDBRANCH  10  25
ENDBRANCH  12   8
BRANCH  13  16
ATOM      2  O   UNL     1      19.540  -7.374  -3.258  0.00  0.00    -0.274 OA
ATOM      9  N   UNL     1      18.926  -6.824  -1.081  0.00  0.00    -0.302 N 
ATOM     16  C   UNL     1      18.903  -7.594  -2.232  0.00  0.00    +0.236 C 
ATOM     38  H   UNL     1      18.343  -7.097  -0.295  0.00  0.00    +0.150 HD
BRANCH   9  18
ATOM     18  C   UNL     1      19.729  -5.629  -0.946  0.00  0.00    +0.163 C 
BRANCH  18  22
ATOM      5  O   UNL     1      21.897  -5.536   0.149  0.00  0.00    -0.274 OA
ATOM     11  N   UNL     1      20.139  -6.498   1.272  0.00  0.00    -0.328 N 
ATOM     22  C   UNL     1      20.719  -5.882   0.183  0.00  0.00    +0.231 C 
ATOM     40  H   UNL     1      20.686  -6.711   2.101  0.00  0.00    +0.145 HD
ATOM     41  H   UNL     1      19.161  -6.769   1.292  0.00  0.00    +0.145 HD
ENDBRANCH  18  22
BRANCH  18  21
ATOM     21  C   UNL     1      18.879  -4.389  -0.643  0.00  0.00    +0.074 C 
BRANCH  21  24
ATOM      1  S   UNL     1      19.045  -2.385  -2.572  0.00  0.00    -0.102 S 
ATOM     24  C   UNL     1      18.301  -3.771  -1.895  0.00  0.00    -0.008 A 
ATOM     28  C   UNL     1      17.200  -4.172  -2.619  0.00  0.00    +0.011 A 
ATOM     31  C   UNL     1      16.964  -3.332  -3.745  0.00  0.00    +0.008 A 
ATOM     32  C   UNL     1      17.896  -2.320  -3.839  0.00  0.00    +0.045 A 
ENDBRANCH  21  24
ENDBRANCH  18  21
ENDBRANCH   9  18
ENDBRANCH  13  16
BRANCH  17  20
ATOM     20  C   UNL     1      16.296  -7.689  -4.267  0.00  0.00    +0.066 C 
ATOM     23  C   UNL     1      15.069  -7.579  -3.729  0.00  0.00    -0.071 C 
ATOM     26  C   UNL     1      14.299  -6.305  -3.518  0.00  0.00    +0.039 C 
ATOM     27  C   UNL     1      14.340  -8.817  -3.273  0.00  0.00    +0.039 C 
ENDBRANCH  17  20
TORSDOF 9
ENDMDL
MODEL 6
REMARK VINA RESULT:      -6.0     23.959     26.552
REMARK  Name = 11882071
REMARK  12 active torsions:
REMARK  status: ('A' for Active; 'I' for Inactive)
REMARK    1  A    between atoms: O_6  and  C_33
REMARK    2  A    between atoms: O_6  and  C_36
REMARK    3  A    between atoms: N_8  and  C_12
REMARK    4  A    between atoms: N_9  and  C_18
REMARK    5  A    between atoms: N_10  and  C_25
REMARK    6  A    between atoms: C_13  and  C_16
REMARK    7  A    between atoms: C_17  and  C_20
REMARK    8  A    between atoms: C_18  and  C_21
REMARK    9  A    between atoms: C_18  and  C_22
REMARK   10  A    between atoms: C_21  and  C_24
REMARK   11  A    between atoms: C_23  and  C_26
REMARK   12  A    between atoms: C_23  and  C_27
REMARK                            x       y       z     vdW  Elec       q    Type
REMARK                         _______ _______ _______ _____ _____    ______ ____
ROOT
ATOM      3  O   UNL     1      -8.295  12.227  32.327  0.00  0.00    -0.271 OA
ATOM      7  N   UNL     1      -8.228  11.173  34.385  0.00  0.00    -0.285 N 
ATOM     12  C   UNL     1      -7.434  10.258  36.429  0.00  0.00    +0.105 C 
ATOM     13  C   UNL     1      -8.434  10.040  35.291  0.00  0.00    +0.182 C 
ATOM     14  C   UNL     1      -7.258  11.778  36.461  0.00  0.00    +0.043 C 
ATOM     15  C   UNL     1      -7.370  12.180  34.997  0.00  0.00    +0.111 C 
ATOM     17  C   UNL     1      -8.622  11.297  33.064  0.00  0.00    +0.240 C 
ENDROOT
BRANCH  12   8
ATOM      4  O   UNL     1      -5.118  10.214  38.115  0.00  0.00    -0.252 OA
ATOM      8  N   UNL     1      -6.179   9.597  36.156  0.00  0.00    -0.294 N 
ATOM     10  N   UNL     1      -4.020   8.902  36.507  0.00  0.00    -0.269 N 
ATOM     19  C   UNL     1      -5.093   9.625  37.037  0.00  0.00    +0.304 C 
ATOM     37  H   UNL     1      -6.102   9.033  35.315  0.00  0.00    +0.151 HD
ATOM     39  H   UNL     1      -4.163   8.473  35.595  0.00  0.00    +0.156 HD
BRANCH  10  25
ATOM     25  C   UNL     1      -2.746   8.690  37.085  0.00  0.00    +0.038 A 
ATOM     29  C   UNL     1      -2.598   7.781  38.131  0.00  0.00    +0.069 A 
ATOM     30  C   UNL     1      -1.638   9.390  36.607  0.00  0.00    +0.023 A 
ATOM     33  C   UNL     1      -1.341   7.571  38.701  0.00  0.00    +0.122 A 
ATOM     34  C   UNL     1      -0.382   9.181  37.176  0.00  0.00    +0.005 A 
ATOM     35  C   UNL     1      -0.234   8.271  38.223  0.00  0.00    +0.046 A 
BRANCH  33   6
ATOM      6  O   UNL     1      -1.197   6.684  39.723  0.00  0.00    -0.495 OA
ATOM     36  C   UNL     1      -2.136   5.612  39.790  0.00  0.00    +0.277 C 
ENDBRANCH  33   6
ENDBRANCH  10  25
ENDBRANCH  12   8
BRANCH  13  16
ATOM      2  O   UNL     1     -10.471  11.184  35.786  0.00  0.00    -0.274 OA
ATOM      9  N   UNL     1     -10.295   8.921  36.304  0.00  0.00    -0.302 N 
ATOM     16  C   UNL     1      -9.841  10.131  35.806  0.00  0.00    +0.236 C 
ATOM     38  H   UNL     1      -9.686   8.108  36.254  0.00  0.00    +0.150 HD
BRANCH   9  18
ATOM     18  C   UNL     1     -11.610   8.747  36.880  0.00  0.00    +0.163 C 
BRANCH  18  22
ATOM      5  O   UNL     1     -10.452   8.895  39.012  0.00  0.00    -0.274 OA
ATOM     11  N   UNL     1     -12.653   9.545  38.909  0.00  0.00    -0.328 N 
ATOM     22  C   UNL     1     -11.488   9.043  38.368  0.00  0.00    +0.231 C 
ATOM     40  H   UNL     1     -12.704   9.798  39.890  0.00  0.00    +0.145 HD
ATOM     41  H   UNL     1     -13.500   9.673  38.363  0.00  0.00    +0.145 HD
ENDBRANCH  18  22
BRANCH  18  21
ATOM     21  C   UNL     1     -12.158   7.332  36.659  0.00  0.00    +0.074 C 
BRANCH  21  24
ATOM      1  S   UNL     1     -13.905   5.788  35.134  0.00  0.00    -0.102 S 
ATOM     24  C   UNL     1     -13.109   7.262  35.486  0.00  0.00    -0.008 A 
ATOM     28  C   UNL     1     -13.453   8.261  34.602  0.00  0.00    +0.011 A 
ATOM     31  C   UNL     1     -14.384   7.810  33.622  0.00  0.00    +0.008 A 
ATOM     32  C   UNL     1     -14.716   6.483  33.796  0.00  0.00    +0.045 A 
ENDBRANCH  21  24
ENDBRANCH  18  21
ENDBRANCH   9  18
ENDBRANCH  13  16
BRANCH  17  20
ATOM     20  C   UNL     1      -9.491  10.237  32.518  0.00  0.00    +0.066 C 
ATOM     23  C   UNL     1     -10.791  10.394  32.209  0.00  0.00    -0.071 C 
ATOM     26  C   UNL     1     -11.707   9.340  31.652  0.00  0.00    +0.039 C 
ATOM     27  C   UNL     1     -11.452  11.731  32.420  0.00  0.00    +0.039 C 
ENDBRANCH  17  20
TORSDOF 9
ENDMDL
MODEL 7
REMARK VINA RESULT:      -6.0     16.704     21.302
REMARK  Name = 11882071
REMARK  12 active torsions:
REMARK  status: ('A' for Active; 'I' for Inactive)
REMARK    1  A    between atoms: O_6  and  C_33
REMARK    2  A    between atoms: O_6  and  C_36
REMARK    3  A    between atoms: N_8  and  C_12
REMARK    4  A    between atoms: N_9  and  C_18
REMARK    5  A    between atoms: N_10  and  C_25
REMARK    6  A    between atoms: C_13  and  C_16
REMARK    7  A    between atoms: C_17  and  C_20
REMARK    8  A    between atoms: C_18  and  C_21
REMARK    9  A    between atoms: C_18  and  C_22
REMARK   10  A    between atoms: C_21  and  C_24
REMARK   11  A    between atoms: C_23  and  C_26
REMARK   12  A    between atoms: C_23  and  C_27
REMARK                            x       y       z     vdW  Elec       q    Type
REMARK                         _______ _______ _______ _____ _____    ______ ____
ROOT
ATOM      3  O   UNL     1      13.130   8.230   7.349  0.00  0.00    -0.271 OA
ATOM      7  N   UNL     1      11.175   7.234   6.616  0.00  0.00    -0.285 N 
ATOM     12  C   UNL     1       9.597   5.602   5.913  0.00  0.00    +0.105 C 
ATOM     13  C   UNL     1      10.072   7.038   5.671  0.00  0.00    +0.182 C 
ATOM     14  C   UNL     1       9.954   5.353   7.380  0.00  0.00    +0.043 C 
ATOM     15  C   UNL     1      11.246   6.135   7.571  0.00  0.00    +0.111 C 
ATOM     17  C   UNL     1      12.157   8.209   6.595  0.00  0.00    +0.240 C 
ENDROOT
BRANCH  12   8
ATOM      4  O   UNL     1      10.356   6.041   3.186  0.00  0.00    -0.252 OA
ATOM      8  N   UNL     1      10.284   4.673   5.047  0.00  0.00    -0.294 N 
ATOM     10  N   UNL     1      11.273   3.881   3.134  0.00  0.00    -0.269 N 
ATOM     19  C   UNL     1      10.618   4.967   3.721  0.00  0.00    +0.304 C 
ATOM     37  H   UNL     1      10.595   3.787   5.436  0.00  0.00    +0.151 HD
ATOM     39  H   UNL     1      11.412   3.060   3.718  0.00  0.00    +0.156 HD
BRANCH  10  25
ATOM     25  C   UNL     1      11.772   3.778   1.814  0.00  0.00    +0.038 A 
ATOM     29  C   UNL     1      10.900   3.876   0.730  0.00  0.00    +0.069 A 
ATOM     30  C   UNL     1      13.136   3.579   1.596  0.00  0.00    +0.023 A 
ATOM     33  C   UNL     1      11.391   3.775  -0.572  0.00  0.00    +0.122 A 
ATOM     34  C   UNL     1      13.626   3.478   0.294  0.00  0.00    +0.005 A 
ATOM     35  C   UNL     1      12.754   3.576  -0.789  0.00  0.00    +0.046 A 
BRANCH  33   6
ATOM      6  O   UNL     1      10.540   3.871  -1.630  0.00  0.00    -0.495 OA
ATOM     36  C   UNL     1      10.824   3.057  -2.767  0.00  0.00    +0.277 C 
ENDBRANCH  33   6
ENDBRANCH  10  25
ENDBRANCH  12   8
BRANCH  13  16
ATOM      2  O   UNL     1       8.376   7.933   7.095  0.00  0.00    -0.274 OA
ATOM      9  N   UNL     1       8.786   8.961   5.047  0.00  0.00    -0.302 N 
ATOM     16  C   UNL     1       8.993   8.014   6.037  0.00  0.00    +0.236 C 
ATOM     38  H   UNL     1       9.369   8.939   4.215  0.00  0.00    +0.150 HD
BRANCH   9  18
ATOM     18  C   UNL     1       7.786  10.001   5.145  0.00  0.00    +0.163 C 
BRANCH  18  22
ATOM      5  O   UNL     1       5.676  10.224   3.960  0.00  0.00    -0.274 OA
ATOM     11  N   UNL     1       7.429   9.188   2.896  0.00  0.00    -0.328 N 
ATOM     22  C   UNL     1       6.835   9.817   3.971  0.00  0.00    +0.231 C 
ATOM     40  H   UNL     1       6.909   9.017   2.041  0.00  0.00    +0.145 HD
ATOM     41  H   UNL     1       8.392   8.867   2.914  0.00  0.00    +0.145 HD
ENDBRANCH  18  22
BRANCH  18  21
ATOM     21  C   UNL     1       8.403  11.404   5.118  0.00  0.00    +0.074 C 
BRANCH  21  24
ATOM      1  S   UNL     1       7.873  13.426   6.961  0.00  0.00    -0.102 S 
ATOM     24  C   UNL     1       8.628  11.958   6.507  0.00  0.00    -0.008 A 
ATOM     28  C   UNL     1       9.394  11.433   7.524  0.00  0.00    +0.011 A 
ATOM     31  C   UNL     1       9.361  12.247   8.693  0.00  0.00    +0.008 A 
ATOM     32  C   UNL     1       8.569  13.363   8.524  0.00  0.00    +0.045 A 
ENDBRANCH  21  24
ENDBRANCH  18  21
ENDBRANCH   9  18
ENDBRANCH  13  16
BRANCH  17  20
ATOM     20  C   UNL     1      12.014   9.290   5.599  0.00  0.00    +0.066 C 
ATOM     23  C   UNL     1      12.541   9.267   4.362  0.00  0.00    -0.071 C 
ATOM     26  C   UNL     1      12.417  10.345   3.322  0.00  0.00    +0.039 C 
ATOM     27  C   UNL     1      13.345   8.074   3.915  0.00  0.00    +0.039 C 
ENDBRANCH  17  20
TORSDOF 9
ENDMDL
MODEL 8
REMARK VINA RESULT:      -6.0     29.388     31.689
REMARK  Name = 11882071
REMARK  12 active torsions:
REMARK  status: ('A' for Active; 'I' for Inactive)
REMARK    1  A    between atoms: O_6  and  C_33
REMARK    2  A    between atoms: O_6  and  C_36
REMARK    3  A    between atoms: N_8  and  C_12
REMARK    4  A    between atoms: N_9  and  C_18
REMARK    5  A    between atoms: N_10  and  C_25
REMARK    6  A    between atoms: C_13  and  C_16
REMARK    7  A    between atoms: C_17  and  C_20
REMARK    8  A    between atoms: C_18  and  C_21
REMARK    9  A    between atoms: C_18  and  C_22
REMARK   10  A    between atoms: C_21  and  C_24
REMARK   11  A    between atoms: C_23  and  C_26
REMARK   12  A    between atoms: C_23  and  C_27
REMARK                            x       y       z     vdW  Elec       q    Type
REMARK                         _______ _______ _______ _____ _____    ______ ____
ROOT
ATOM      3  O   UNL     1      -4.935 -11.219   7.206  0.00  0.00    -0.271 OA
ATOM      7  N   UNL     1      -5.725 -10.026   9.024  0.00  0.00    -0.285 N 
ATOM     12  C   UNL     1      -5.831  -8.907  11.118  0.00  0.00    +0.105 C 
ATOM     13  C   UNL     1      -6.626  -9.796  10.156  0.00  0.00    +0.182 C 
ATOM     14  C   UNL     1      -4.879  -8.146  10.193  0.00  0.00    +0.043 C 
ATOM     15  C   UNL     1      -4.556  -9.158   9.103  0.00  0.00    +0.111 C 
ATOM     17  C   UNL     1      -5.805 -11.006   8.051  0.00  0.00    +0.240 C 
ENDROOT
BRANCH  12   8
ATOM      4  O   UNL     1      -6.776  -9.821  13.663  0.00  0.00    -0.252 OA
ATOM      8  N   UNL     1      -5.099  -9.700  12.077  0.00  0.00    -0.294 N 
ATOM     10  N   UNL     1      -4.699 -10.858  14.018  0.00  0.00    -0.269 N 
ATOM     19  C   UNL     1      -5.636 -10.106  13.303  0.00  0.00    +0.304 C 
ATOM     37  H   UNL     1      -4.173 -10.033  11.824  0.00  0.00    +0.151 HD
ATOM     39  H   UNL     1      -3.795 -11.002  13.575  0.00  0.00    +0.156 HD
BRANCH  10  25
ATOM     25  C   UNL     1      -4.852 -11.448  15.295  0.00  0.00    +0.038 A 
ATOM     29  C   UNL     1      -4.932 -10.642  16.430  0.00  0.00    +0.069 A 
ATOM     30  C   UNL     1      -4.923 -12.836  15.418  0.00  0.00    +0.023 A 
ATOM     33  C   UNL     1      -5.083 -11.225  17.689  0.00  0.00    +0.122 A 
ATOM     34  C   UNL     1      -5.074 -13.418  16.676  0.00  0.00    +0.005 A 
ATOM     35  C   UNL     1      -5.153 -12.612  17.811  0.00  0.00    +0.046 A 
BRANCH  33   6
ATOM      6  O   UNL     1      -5.160 -10.439  18.798  0.00  0.00    -0.495 OA
ATOM     36  C   UNL     1      -6.224 -10.705  19.710  0.00  0.00    +0.277 C 
ENDBRANCH  33   6
ENDBRANCH  10  25
ENDBRANCH  12   8
BRANCH  13  16
ATOM      2  O   UNL     1      -8.929  -9.162  10.154  0.00  0.00    -0.274 OA
ATOM      9  N   UNL     1      -7.520  -8.299   8.513  0.00  0.00    -0.302 N 
ATOM     16  C   UNL     1      -7.823  -9.058   9.631  0.00  0.00    +0.236 C 
ATOM     38  H   UNL     1      -6.561  -8.279   8.177  0.00  0.00    +0.150 HD
BRANCH   9  18
ATOM     18  C   UNL     1      -8.503  -7.511   7.804  0.00  0.00    +0.163 C 
BRANCH  18  22
ATOM      5  O   UNL     1      -8.937  -7.236   5.428  0.00  0.00    -0.274 OA
ATOM     11  N   UNL     1      -6.975  -8.240   6.078  0.00  0.00    -0.328 N 
ATOM     22  C   UNL     1      -8.197  -7.648   6.319  0.00  0.00    +0.231 C 
ATOM     40  H   UNL     1      -6.641  -8.377   5.129  0.00  0.00    +0.145 HD
ATOM     41  H   UNL     1      -6.368  -8.565   6.824  0.00  0.00    +0.145 HD
ENDBRANCH  18  22
BRANCH  18  21
ATOM     21  C   UNL     1      -8.477  -6.036   8.221  0.00  0.00    +0.074 C 
BRANCH  21  24
ATOM      1  S   UNL     1     -11.141  -6.634   8.778  0.00  0.00    -0.102 S 
ATOM     24  C   UNL     1      -9.845  -5.527   8.613  0.00  0.00    -0.008 A 
ATOM     28  C   UNL     1     -10.235  -4.232   8.873  0.00  0.00    +0.011 A 
ATOM     31  C   UNL     1     -11.616  -4.147   9.212  0.00  0.00    +0.008 A 
ATOM     32  C   UNL     1     -12.229  -5.382   9.199  0.00  0.00    +0.045 A 
ENDBRANCH  21  24
ENDBRANCH  18  21
ENDBRANCH   9  18
ENDBRANCH  13  16
BRANCH  17  20
ATOM     20  C   UNL     1      -7.021 -11.844   8.036  0.00  0.00    +0.066 C 
ATOM     23  C   UNL     1      -7.133 -13.044   8.632  0.00  0.00    -0.071 C 
ATOM     26  C   UNL     1      -8.351 -13.925   8.640  0.00  0.00    +0.039 C 
ATOM     27  C   UNL     1      -5.958 -13.618   9.381  0.00  0.00    +0.039 C 
ENDBRANCH  17  20
TORSDOF 9
ENDMDL
MODEL 9
REMARK VINA RESULT:      -5.9      6.081     10.130
REMARK  Name = 11882071
REMARK  12 active torsions:
REMARK  status: ('A' for Active; 'I' for Inactive)
REMARK    1  A    between atoms: O_6  and  C_33
REMARK    2  A    between atoms: O_6  and  C_36
REMARK    3  A    between atoms: N_8  and  C_12
REMARK    4  A    between atoms: N_9  and  C_18
REMARK    5  A    between atoms: N_10  and  C_25
REMARK    6  A    between atoms: C_13  and  C_16
REMARK    7  A    between atoms: C_17  and  C_20
REMARK    8  A    between atoms: C_18  and  C_21
REMARK    9  A    between atoms: C_18  and  C_22
REMARK   10  A    between atoms: C_21  and  C_24
REMARK   11  A    between atoms: C_23  and  C_26
REMARK   12  A    between atoms: C_23  and  C_27
REMARK                            x       y       z     vdW  Elec       q    Type
REMARK                         _______ _______ _______ _____ _____    ______ ____
ROOT
ATOM      3  O   UNL     1      20.712   8.906  25.792  0.00  0.00    -0.271 OA
ATOM      7  N   UNL     1      20.361   7.779  23.802  0.00  0.00    -0.285 N 
ATOM     12  C   UNL     1      19.368   7.017  21.783  0.00  0.00    +0.105 C 
ATOM     13  C   UNL     1      20.213   6.574  22.981  0.00  0.00    +0.182 C 
ATOM     14  C   UNL     1      19.696   8.506  21.648  0.00  0.00    +0.043 C 
ATOM     15  C   UNL     1      19.893   8.960  23.087  0.00  0.00    +0.111 C 
ATOM     17  C   UNL     1      20.738   7.868  25.131  0.00  0.00    +0.240 C 
ENDROOT
BRANCH  12   8
ATOM      4  O   UNL     1      17.193   7.915  20.150  0.00  0.00    -0.252 OA
ATOM      8  N   UNL     1      17.960   6.818  22.034  0.00  0.00    -0.294 N 
ATOM     10  N   UNL     1      15.696   6.951  21.680  0.00  0.00    -0.269 N 
ATOM     19  C   UNL     1      16.957   7.292  21.182  0.00  0.00    +0.304 C 
ATOM     37  H   UNL     1      17.685   6.254  22.833  0.00  0.00    +0.151 HD
ATOM     39  H   UNL     1      15.675   6.431  22.555  0.00  0.00    +0.156 HD
BRANCH  10  25
ATOM     25  C   UNL     1      14.432   7.243  21.117  0.00  0.00    +0.038 A 
ATOM     29  C   UNL     1      13.554   8.099  21.782  0.00  0.00    +0.069 A 
ATOM     30  C   UNL     1      14.063   6.676  19.896  0.00  0.00    +0.023 A 
ATOM     33  C   UNL     1      12.306   8.387  21.226  0.00  0.00    +0.122 A 
ATOM     34  C   UNL     1      12.817   6.964  19.342  0.00  0.00    +0.005 A 
ATOM     35  C   UNL     1      11.939   7.819  20.006  0.00  0.00    +0.046 A 
BRANCH  33   6
ATOM      6  O   UNL     1      11.449   9.222  21.874  0.00  0.00    -0.495 OA
ATOM     36  C   UNL     1      10.544   8.629  22.804  0.00  0.00    +0.277 C 
ENDBRANCH  33   6
ENDBRANCH  10  25
ENDBRANCH  12   8
BRANCH  13  16
ATOM      2  O   UNL     1      22.442   6.997  22.237  0.00  0.00    -0.274 OA
ATOM      9  N   UNL     1      21.733   4.793  22.477  0.00  0.00    -0.302 N 
ATOM     16  C   UNL     1      21.586   6.169  22.531  0.00  0.00    +0.236 C 
ATOM     38  H   UNL     1      20.955   4.203  22.760  0.00  0.00    +0.150 HD
BRANCH   9  18
ATOM     18  C   UNL     1      22.954   4.146  22.053  0.00  0.00    +0.163 C 
BRANCH  18  22
ATOM      5  O   UNL     1      23.299   2.083  20.813  0.00  0.00    -0.274 OA
ATOM     11  N   UNL     1      21.255   3.123  20.670  0.00  0.00    -0.328 N 
ATOM     22  C   UNL     1      22.557   3.016  21.112  0.00  0.00    +0.231 C 
ATOM     40  H   UNL     1      20.858   2.426  20.049  0.00  0.00    +0.145 HD
ATOM     41  H   UNL     1      20.649   3.893  20.934  0.00  0.00    +0.145 HD
ENDBRANCH  18  22
BRANCH  18  21
ATOM     21  C   UNL     1      23.762   3.598  23.235  0.00  0.00    +0.074 C 
BRANCH  21  24
ATOM      1  S   UNL     1      25.666   5.331  22.170  0.00  0.00    -0.102 S 
ATOM     24  C   UNL     1      25.068   4.334  23.427  0.00  0.00    -0.008 A 
ATOM     28  C   UNL     1      25.903   4.326  24.523  0.00  0.00    +0.011 A 
ATOM     31  C   UNL     1      27.049   5.150  24.327  0.00  0.00    +0.008 A 
ATOM     32  C   UNL     1      27.046   5.757  23.090  0.00  0.00    +0.045 A 
ENDBRANCH  21  24
ENDBRANCH  18  21
ENDBRANCH   9  18
ENDBRANCH  13  16
BRANCH  17  20
ATOM     20  C   UNL     1      21.202   6.629  25.785  0.00  0.00    +0.066 C 
ATOM     23  C   UNL     1      22.491   6.300  25.980  0.00  0.00    -0.071 C 
ATOM     26  C   UNL     1      23.002   5.050  26.641  0.00  0.00    +0.039 C 
ATOM     27  C   UNL     1      23.578   7.233  25.513  0.00  0.00    +0.039 C 
ENDBRANCH  17  20
TORSDOF 9
ENDMDL
MODEL 10
REMARK VINA RESULT:      -5.9     17.323     21.181
REMARK  Name = 11882071
REMARK  12 active torsions:
REMARK  status: ('A' for Active; 'I' for Inactive)
REMARK    1  A    between atoms: O_6  and  C_33
REMARK    2  A    between atoms: O_6  and  C_36
REMARK    3  A    between atoms: N_8  and  C_12
REMARK    4  A    between atoms: N_9  and  C_18
REMARK    5  A    between atoms: N_10  and  C_25
REMARK    6  A    between atoms: C_13  and  C_16
REMARK    7  A    between atoms: C_17  and  C_20
REMARK    8  A    between atoms: C_18  and  C_21
REMARK    9  A    between atoms: C_18  and  C_22
REMARK   10  A    between atoms: C_21  and  C_24
REMARK   11  A    between atoms: C_23  and  C_26
REMARK   12  A    between atoms: C_23  and  C_27
REMARK                            x       y       z     vdW  Elec       q    Type
REMARK                         _______ _______ _______ _____ _____    ______ ____
ROOT
ATOM      3  O   UNL     1      13.770   5.535  -0.939  0.00  0.00    -0.271 OA
ATOM      7  N   UNL     1      14.541   6.817   0.826  0.00  0.00    -0.285 N 
ATOM     12  C   UNL     1      15.922   8.195   2.183  0.00  0.00    +0.105 C 
ATOM     13  C   UNL     1      14.916   7.041   2.225  0.00  0.00    +0.182 C 
ATOM     14  C   UNL     1      15.516   8.974   0.930  0.00  0.00    +0.043 C 
ATOM     15  C   UNL     1      15.040   7.890  -0.026  0.00  0.00    +0.111 C 
ATOM     17  C   UNL     1      13.934   5.705   0.269  0.00  0.00    +0.240 C 
ENDROOT
BRANCH  12   8
ATOM      4  O   UNL     1      18.170   8.998   3.766  0.00  0.00    -0.252 OA
ATOM      8  N   UNL     1      17.275   7.704   2.072  0.00  0.00    -0.294 N 
ATOM     10  N   UNL     1      19.511   7.502   2.551  0.00  0.00    -0.269 N 
ATOM     19  C   UNL     1      18.320   8.152   2.888  0.00  0.00    +0.304 C 
ATOM     37  H   UNL     1      17.467   6.954   1.414  0.00  0.00    +0.151 HD
ATOM     39  H   UNL     1      19.464   6.825   1.793  0.00  0.00    +0.156 HD
BRANCH  10  25
ATOM     25  C   UNL     1      20.788   7.671   3.136  0.00  0.00    +0.038 A 
ATOM     29  C   UNL     1      21.760   8.427   2.481  0.00  0.00    +0.069 A 
ATOM     30  C   UNL     1      21.075   7.084   4.368  0.00  0.00    +0.023 A 
ATOM     33  C   UNL     1      23.020   8.594   3.058  0.00  0.00    +0.122 A 
ATOM     34  C   UNL     1      22.334   7.250   4.945  0.00  0.00    +0.005 A 
ATOM     35  C   UNL     1      23.306   8.006   4.289  0.00  0.00    +0.046 A 
BRANCH  33   6
ATOM      6  O   UNL     1      23.969   9.330   2.419  0.00  0.00    -0.495 OA
ATOM     36  C   UNL     1      24.748  10.220   3.217  0.00  0.00    +0.277 C 
ENDBRANCH  33   6
ENDBRANCH  10  25
ENDBRANCH  12   8
BRANCH  13  16
ATOM      2  O   UNL     1      12.774   8.080   2.407  0.00  0.00    -0.274 OA
ATOM      9  N   UNL     1      13.701   7.070   4.289  0.00  0.00    -0.302 N 
ATOM     16  C   UNL     1      13.675   7.455   2.959  0.00  0.00    +0.236 C 
ATOM     38  H   UNL     1      14.497   6.541   4.633  0.00  0.00    +0.150 HD
BRANCH   9  18
ATOM     18  C   UNL     1      12.634   7.368   5.218  0.00  0.00    +0.163 C 
BRANCH  18  22
ATOM      5  O   UNL     1      13.262   8.611   7.210  0.00  0.00    -0.274 OA
ATOM     11  N   UNL     1      13.824   6.387   7.080  0.00  0.00    -0.328 N 
ATOM     22  C   UNL     1      13.273   7.552   6.587  0.00  0.00    +0.231 C 
ATOM     40  H   UNL     1      14.270   6.368   7.992  0.00  0.00    +0.145 HD
ATOM     41  H   UNL     1      13.816   5.515   6.560  0.00  0.00    +0.145 HD
ENDBRANCH  18  22
BRANCH  18  21
ATOM     21  C   UNL     1      11.578   6.257   5.266  0.00  0.00    +0.074 C 
BRANCH  21  24
ATOM      1  S   UNL     1       9.412   7.953   5.707  0.00  0.00    -0.102 S 
ATOM     24  C   UNL     1      10.400   6.623   6.139  0.00  0.00    -0.008 A 
ATOM     28  C   UNL     1       9.973   6.017   7.300  0.00  0.00    +0.011 A 
ATOM     31  C   UNL     1       8.819   6.653   7.842  0.00  0.00    +0.008 A 
ATOM     32  C   UNL     1       8.407   7.721   7.073  0.00  0.00    +0.045 A 
ENDBRANCH  21  24
ENDBRANCH  18  21
ENDBRANCH   9  18
ENDBRANCH  13  16
BRANCH  17  20
ATOM     20  C   UNL     1      13.455   4.663   1.198  0.00  0.00    +0.066 C 
ATOM     23  C   UNL     1      12.167   4.464   1.530  0.00  0.00    -0.071 C 
ATOM     26  C   UNL     1      11.640   3.416   2.470  0.00  0.00    +0.039 C 
ATOM     27  C   UNL     1      11.098   5.346   0.936  0.00  0.00    +0.039 C 
ENDBRANCH  17  20
TORSDOF 9
ENDMDL
