REMARK  Name = 40779445
REMARK  8 active torsions:
REMARK  status: ('A' for Active; 'I' for Inactive)
REMARK    1  A    between atoms: O_2  and  C_21
REMARK    2  A    between atoms: O_2  and  C_29
REMARK    3  A    between atoms: N_4  and  C_18
REMARK    4  A    between atoms: N_5  and  C_15
REMARK    5  A    between atoms: C_8  and  C_14
REMARK    6  A    between atoms: C_9  and  C_15
REMARK    7  A    between atoms: C_17  and  C_20
REMARK    8  A    between atoms: C_19  and  C_21
REMARK                            x       y       z     vdW  Elec       q    Type
REMARK                         _______ _______ _______ _____ _____    ______ ____
ROOT
ATOM      3  N   UNL     1      -4.663  -1.064   0.868  0.00  0.00    -0.297 NA
ATOM      7  C   UNL     1      -3.283  -1.113  -1.340  0.00  0.00    +0.002 C 
ATOM      8  C   UNL     1      -2.828  -2.254  -0.389  0.00  0.00    +0.055 C 
ATOM      9  C   UNL     1      -4.130   0.292   0.571  0.00  0.00    +0.074 C 
ATOM     10  C   UNL     1      -3.143   0.242  -0.615  0.00  0.00    +0.024 C 
ATOM     11  C   UNL     1      -4.788  -1.330  -1.609  0.00  0.00    +0.019 C 
ATOM     12  C   UNL     1      -3.548  -2.037   0.973  0.00  0.00    +0.094 C 
ATOM     13  C   UNL     1      -5.527  -1.471  -0.267  0.00  0.00    +0.085 C 
ENDROOT
BRANCH   8  14
ATOM      4  N   UNL     1      -0.807  -3.728   0.042  0.00  0.00    -0.270 N 
ATOM      6  N   UNL     1       0.532  -3.731   0.155  0.00  0.00    -0.171 NA
ATOM     14  C   UNL     1      -1.335  -2.498  -0.221  0.00  0.00    +0.044 A 
ATOM     16  C   UNL     1      -0.267  -1.636  -0.284  0.00  0.00    +0.053 A 
ATOM     17  C   UNL     1       0.856  -2.451  -0.045  0.00  0.00    +0.093 A 
ATOM     18  C   UNL     1      -1.532  -4.967   0.203  0.00  0.00    +0.172 C 
BRANCH  17  20
ATOM     20  C   UNL     1       2.232  -2.029  -0.003  0.00  0.00    +0.003 A 
ATOM     22  C   UNL     1       2.552  -0.736   0.413  0.00  0.00    +0.018 A 
ATOM     23  C   UNL     1       3.241  -2.911  -0.376  0.00  0.00    +0.011 A 
ATOM     24  C   UNL     1       3.889  -0.309   0.461  0.00  0.00    -0.017 A 
ATOM     25  C   UNL     1       4.575  -2.504  -0.335  0.00  0.00    +0.009 A 
ATOM     26  C   UNL     1       4.916  -1.206   0.081  0.00  0.00    -0.018 A 
ATOM     27  C   UNL     1       4.230   0.988   0.876  0.00  0.00    +0.008 A 
ATOM     28  C   UNL     1       6.253  -0.780   0.129  0.00  0.00    +0.008 A 
ATOM     30  C   UNL     1       5.564   1.395   0.917  0.00  0.00    +0.001 A 
ATOM     31  C   UNL     1       6.574   0.513   0.544  0.00  0.00    +0.001 A 
ENDBRANCH  17  20
ENDBRANCH   8  14
BRANCH   9  15
ATOM     15  C   UNL     1      -3.510   0.957   1.802  0.00  0.00    +0.123 C 
BRANCH  15   5
ATOM      1  O   UNL     1      -0.844   2.066   1.973  0.00  0.00    -0.272 OA
ATOM      5  N   UNL     1      -3.113   2.300   1.512  0.00  0.00    -0.311 N 
ATOM     19  C   UNL     1      -1.800   2.752   1.621  0.00  0.00    +0.251 C 
ATOM     37  H   UNL     1      -3.841   2.960   1.253  0.00  0.00    +0.149 HD
BRANCH  19  21
ATOM     21  C   UNL     1      -1.666   4.214   1.251  0.00  0.00    +0.324 C 
BRANCH  21   2
ATOM      2  O   UNL     1      -0.393   4.474   0.699  0.00  0.00    -0.483 OA
BRANCH   2  29
ATOM     29  C   UNL     1      -0.052   3.789  -0.443  0.00  0.00    +0.121 A 
ATOM     32  C   UNL     1      -1.042   3.400  -1.344  0.00  0.00    +0.045 A 
ATOM     33  C   UNL     1       1.284   3.482  -0.700  0.00  0.00    +0.045 A 
ATOM     34  C   UNL     1      -0.697   2.704  -2.503  0.00  0.00    +0.004 A 
ATOM     35  C   UNL     1       1.630   2.787  -1.858  0.00  0.00    +0.004 A 
ATOM     36  C   UNL     1       0.640   2.398  -2.760  0.00  0.00    +0.000 A 
ENDBRANCH   2  29
ENDBRANCH  21   2
ENDBRANCH  19  21
ENDBRANCH  15   5
ENDBRANCH   9  15
TORSDOF 7
