REMARK  Name = 40777165
REMARK  7 active torsions:
REMARK  status: ('A' for Active; 'I' for Inactive)
REMARK    1  A    between atoms: N_7  and  C_17
REMARK    2  A    between atoms: C_11  and  C_18
REMARK    3  A    between atoms: C_12  and  C_17
REMARK    4  A    between atoms: C_20  and  C_23
REMARK    5  A    between atoms: C_21  and  C_24
REMARK    6  A    between atoms: C_22  and  C_25
REMARK    7  A    between atoms: C_31  and  C_34
REMARK                            x       y       z     vdW  Elec       q    Type
REMARK                         _______ _______ _______ _____ _____    ______ ____
ROOT
ATOM      6  N   UNL     1      -2.202  -2.379   1.496  0.00  0.00    -0.297 NA
ATOM     10  C   UNL     1      -1.877  -2.512  -1.085  0.00  0.00    +0.002 C 
ATOM     11  C   UNL     1      -0.512  -2.295  -0.375  0.00  0.00    +0.055 C 
ATOM     12  C   UNL     1      -3.157  -1.465   0.816  0.00  0.00    +0.074 C 
ATOM     13  C   UNL     1      -2.842  -1.373  -0.693  0.00  0.00    +0.024 C 
ATOM     14  C   UNL     1      -2.468  -3.822  -0.521  0.00  0.00    +0.019 C 
ATOM     15  C   UNL     1      -0.808  -2.025   1.128  0.00  0.00    +0.094 C 
ATOM     16  C   UNL     1      -2.471  -3.756   1.016  0.00  0.00    +0.085 C 
ENDROOT
BRANCH  11  18
ATOM      8  N   UNL     1       0.036  -0.617  -2.069  0.00  0.00    -0.237 NA
ATOM      9  N   UNL     1       2.135   0.567  -2.071  0.00  0.00    -0.232 NA
ATOM     18  C   UNL     1       0.451  -1.274  -0.966  0.00  0.00    +0.050 A 
ATOM     19  C   UNL     1       1.677  -1.069  -0.366  0.00  0.00    +0.052 A 
ATOM     20  C   UNL     1       2.486  -0.127  -0.968  0.00  0.00    +0.075 A 
ATOM     21  C   UNL     1       0.915   0.276  -2.562  0.00  0.00    +0.127 A 
ATOM     24  C   UNL     1       0.494   1.021  -3.783  0.00  0.00    +0.088 C 
BRANCH  20  23
ATOM     23  C   UNL     1       3.793   0.180  -0.440  0.00  0.00    +0.000 A 
ATOM     26  C   UNL     1       3.923   0.670   0.860  0.00  0.00    +0.010 A 
ATOM     27  C   UNL     1       4.928  -0.013  -1.228  0.00  0.00    +0.010 A 
ATOM     29  C   UNL     1       5.186   0.967   1.371  0.00  0.00    +0.013 A 
ATOM     30  C   UNL     1       6.191   0.283  -0.717  0.00  0.00    +0.013 A 
ATOM     31  C   UNL     1       6.321   0.773   0.582  0.00  0.00    +0.055 A 
BRANCH  31  34
ATOM      1  F   UNL     1       8.514   0.016   1.163  0.00  0.00    -0.166 F 
ATOM      2  F   UNL     1       7.623   1.559   2.409  0.00  0.00    -0.166 F 
ATOM      3  F   UNL     1       8.340   2.044   0.415  0.00  0.00    -0.166 F 
ATOM     34  C   UNL     1       7.671   1.090   1.128  0.00  0.00    +0.417 C 
ENDBRANCH  31  34
ENDBRANCH  20  23
ENDBRANCH  11  18
BRANCH  12  17
ATOM     17  C   UNL     1      -3.209  -0.084   1.472  0.00  0.00    +0.123 C 
BRANCH  17   7
ATOM      4  O   UNL     1      -5.960   0.111   2.270  0.00  0.00    -0.267 OA
ATOM      7  N   UNL     1      -4.218   0.731   0.868  0.00  0.00    -0.307 N 
ATOM     22  C   UNL     1      -5.536   0.765   1.321  0.00  0.00    +0.279 C 
ATOM     35  H   UNL     1      -3.959   1.300   0.067  0.00  0.00    +0.149 HD
BRANCH  22  25
ATOM      5  O   UNL     1      -5.976   2.335  -0.491  0.00  0.00    -0.458 OA
ATOM     25  C   UNL     1      -6.469   1.642   0.569  0.00  0.00    +0.189 A 
ATOM     28  C   UNL     1      -7.808   1.908   0.739  0.00  0.00    +0.054 A 
ATOM     32  C   UNL     1      -8.160   2.823  -0.283  0.00  0.00    +0.042 A 
ATOM     33  C   UNL     1      -7.010   3.051  -1.004  0.00  0.00    +0.196 A 
ENDBRANCH  22  25
ENDBRANCH  17   7
ENDBRANCH  12  17
TORSDOF 6
