REMARK  Name = 45783461
REMARK  9 active torsions:
REMARK  status: ('A' for Active; 'I' for Inactive)
REMARK    1  A    between atoms: O_2  and  C_22
REMARK    2  A    between atoms: O_2  and  C_25
REMARK    3  A    between atoms: O_3  and  C_26
REMARK    4  A    between atoms: O_3  and  C_27
REMARK    5  A    between atoms: N_4  and  C_14
REMARK    6  A    between atoms: C_10  and  C_15
REMARK    7  A    between atoms: C_14  and  C_16
REMARK    8  A    between atoms: C_17  and  C_20
REMARK    9  A    between atoms: C_25  and  C_26
REMARK                            x       y       z     vdW  Elec       q    Type
REMARK                         _______ _______ _______ _____ _____    ______ ____
ROOT
ATOM      1  O   UNL     1      -2.515  -2.128   0.684  0.00  0.00    -0.336 OA
ATOM      5  N   UNL     1      -1.117  -0.764  -0.412  0.00  0.00    -0.189 NA
ATOM      8  N   UNL     1      -1.226  -2.619   0.921  0.00  0.00    -0.054 NA
ATOM     15  C   UNL     1      -2.362  -1.035  -0.109  0.00  0.00    +0.245 A 
ATOM     17  C   UNL     1      -0.457  -1.762   0.243  0.00  0.00    +0.221 A 
ENDROOT
BRANCH  17  20
ATOM      9  N   UNL     1       1.499  -2.911   0.889  0.00  0.00    -0.252 NA
ATOM     20  C   UNL     1       0.972  -1.876   0.197  0.00  0.00    +0.115 A 
ATOM     21  C   UNL     1       1.724  -0.962  -0.523  0.00  0.00    +0.077 A 
ATOM     22  C   UNL     1       3.105  -1.120  -0.533  0.00  0.00    +0.124 A 
ATOM     23  C   UNL     1       2.845  -3.032   0.856  0.00  0.00    +0.115 A 
ATOM     24  C   UNL     1       3.685  -2.172   0.167  0.00  0.00    +0.065 A 
BRANCH  22   2
ATOM      2  O   UNL     1       3.887  -0.248  -1.226  0.00  0.00    -0.490 OA
BRANCH   2  25
ATOM     25  C   UNL     1       3.410   1.091  -1.357  0.00  0.00    +0.257 C 
BRANCH  25  26
ATOM     26  C   UNL     1       4.595   2.034  -1.423  0.00  0.00    +0.200 C 
BRANCH  26   3
ATOM      3  O   UNL     1       5.346   1.922  -0.221  0.00  0.00    -0.380 OA
ATOM     27  C   UNL     1       6.485   2.771  -0.237  0.00  0.00    +0.194 C 
ENDBRANCH  26   3
ENDBRANCH  25  26
ENDBRANCH   2  25
ENDBRANCH  22   2
ENDBRANCH  17  20
BRANCH  15  10
ATOM      4  N   UNL     1      -3.401   1.122  -0.785  0.00  0.00    -0.284 NA
ATOM     10  C   UNL     1      -3.629  -0.311  -0.513  0.00  0.00    +0.146 C 
ATOM     11  C   UNL     1      -4.240  -0.864  -1.815  0.00  0.00    +0.030 C 
ATOM     12  C   UNL     1      -4.374   0.342  -2.734  0.00  0.00    +0.017 C 
ATOM     13  C   UNL     1      -4.399   1.518  -1.779  0.00  0.00    +0.085 C 
BRANCH   4  14
ATOM     14  C   UNL     1      -3.462   1.950   0.413  0.00  0.00    +0.159 C 
BRANCH  14  16
ATOM      6  N   UNL     1      -2.171   1.465   2.505  0.00  0.00    -0.347 N 
ATOM      7  N   UNL     1      -0.979   2.205   0.783  0.00  0.00    -0.239 NA
ATOM     16  C   UNL     1      -2.183   1.886   1.204  0.00  0.00    +0.121 A 
ATOM     18  C   UNL     1      -0.877   1.519   2.941  0.00  0.00    +0.104 A 
ATOM     19  C   UNL     1      -0.161   1.979   1.862  0.00  0.00    +0.130 A 
ATOM     28  H   UNL     1      -2.971   1.166   3.047  0.00  0.00    +0.167 HD
ENDBRANCH  14  16
ENDBRANCH   4  14
ENDBRANCH  15  10
TORSDOF 8
