REMARK  Name = 7673970
REMARK  8 active torsions:
REMARK  status: ('A' for Active; 'I' for Inactive)
REMARK    1  A    between atoms: O_5  and  C_30
REMARK    2  A    between atoms: O_5  and  C_37
REMARK    3  A    between atoms: N_9  and  C_16
REMARK    4  A    between atoms: N_11  and  C_27
REMARK    5  A    between atoms: C_12  and  C_17
REMARK    6  A    between atoms: C_20  and  C_24
REMARK    7  A    between atoms: C_35  and  C_36
REMARK    8  A    between atoms: C_36  and  C_38
REMARK                            x       y       z     vdW  Elec       q    Type
REMARK                         _______ _______ _______ _____ _____    ______ ____
ROOT
ATOM      2  O   UNL     1      -3.186  -0.885  -1.440  0.00  0.00    -0.270 OA
ATOM      4  O   UNL     1       2.426   2.059   0.273  0.00  0.00    -0.252 OA
ATOM      7  N   UNL     1      -1.629  -0.727   0.297  0.00  0.00    -0.283 N 
ATOM      8  N   UNL     1       0.961   0.332   0.747  0.00  0.00    -0.282 N 
ATOM     11  N   UNL     1       3.263  -0.104   0.480  0.00  0.00    -0.269 N 
ATOM     12  C   UNL     1      -1.402   0.708   0.093  0.00  0.00    +0.179 C 
ATOM     13  C   UNL     1      -0.182   1.240   0.851  0.00  0.00    +0.141 C 
ATOM     14  C   UNL     1      -0.787  -1.362   1.318  0.00  0.00    +0.128 C 
ATOM     15  C   UNL     1       0.683  -1.090   1.004  0.00  0.00    +0.128 C 
ATOM     20  C   UNL     1      -2.477  -1.411  -0.583  0.00  0.00    +0.247 C 
ATOM     23  C   UNL     1       2.249   0.857   0.482  0.00  0.00    +0.307 C 
ATOM     41  H   UNL     1       3.010  -1.070   0.658  0.00  0.00    +0.156 HD
ENDROOT
BRANCH  20  24
ATOM     24  C   UNL     1      -2.558  -2.874  -0.477  0.00  0.00    +0.037 A 
ATOM     25  C   UNL     1      -1.690  -3.671  -1.218  0.00  0.00    +0.016 A 
ATOM     26  C   UNL     1      -3.504  -3.455   0.363  0.00  0.00    +0.016 A 
ATOM     28  C   UNL     1      -1.768  -5.060  -1.117  0.00  0.00    +0.046 A 
ATOM     29  C   UNL     1      -3.581  -4.844   0.464  0.00  0.00    +0.046 A 
ATOM     30  C   UNL     1      -2.713  -5.647  -0.277  0.00  0.00    +0.120 A 
BRANCH  30   5
ATOM      5  O   UNL     1      -2.791  -7.002  -0.180  0.00  0.00    -0.495 OA
ATOM     37  C   UNL     1      -3.782  -7.535   0.697  0.00  0.00    +0.277 C 
ENDBRANCH  30   5
ENDBRANCH  20  24
BRANCH  11  27
ATOM     27  C   UNL     1       4.647   0.093   0.245  0.00  0.00    +0.035 A 
ATOM     31  C   UNL     1       5.130   1.373  -0.018  0.00  0.00    +0.024 A 
ATOM     32  C   UNL     1       5.518  -0.993   0.280  0.00  0.00    +0.024 A 
ATOM     33  C   UNL     1       6.492   1.567  -0.249  0.00  0.00    +0.013 A 
ATOM     34  C   UNL     1       6.880  -0.800   0.049  0.00  0.00    +0.013 A 
ATOM     35  C   UNL     1       7.367   0.480  -0.216  0.00  0.00    +0.017 A 
BRANCH  35  36
ATOM      6  O   UNL     1       9.593  -0.270  -0.431  0.00  0.00    -0.292 OA
ATOM     36  C   UNL     1       8.787   0.682  -0.455  0.00  0.00    +0.160 C 
ATOM     38  C   UNL     1       9.327   2.079  -0.744  0.00  0.00    +0.091 C 
ENDBRANCH  35  36
ENDBRANCH  11  27
BRANCH  12  17
ATOM      1  O   UNL     1      -3.280   0.958   1.545  0.00  0.00    -0.274 OA
ATOM      9  N   UNL     1      -2.942   2.526  -0.143  0.00  0.00    -0.302 N 
ATOM     17  C   UNL     1      -2.635   1.396   0.595  0.00  0.00    +0.236 C 
ATOM     39  H   UNL     1      -2.317   2.811  -0.891  0.00  0.00    +0.150 HD
BRANCH   9  16
ATOM      3  O   UNL     1      -4.574   3.178  -2.236  0.00  0.00    -0.274 OA
ATOM     10  N   UNL     1      -5.259   5.087  -1.185  0.00  0.00    -0.314 N 
ATOM     16  C   UNL     1      -4.092   3.352   0.123  0.00  0.00    +0.159 C 
ATOM     18  C   UNL     1      -3.753   4.447   1.124  0.00  0.00    +0.033 C 
ATOM     19  C   UNL     1      -4.928   5.404   1.250  0.00  0.00    +0.021 C 
ATOM     21  C   UNL     1      -5.191   6.046  -0.098  0.00  0.00    +0.104 C 
ATOM     22  C   UNL     1      -4.620   3.864  -1.213  0.00  0.00    +0.233 C 
ATOM     40  H   UNL     1      -5.666   5.411  -2.057  0.00  0.00    +0.149 HD
ENDBRANCH   9  16
ENDBRANCH  12  17
TORSDOF 6
