MODEL 1
REMARK VINA RESULT:      -6.5      0.000      0.000
REMARK  Name = 45783553
REMARK  11 active torsions:
REMARK  status: ('A' for Active; 'I' for Inactive)
REMARK    1  A    between atoms: O_3  and  C_22
REMARK    2  A    between atoms: O_4  and  C_26
REMARK    3  A    between atoms: O_4  and  C_27
REMARK    4  A    between atoms: O_5  and  C_28
REMARK    5  A    between atoms: O_5  and  C_29
REMARK    6  A    between atoms: N_6  and  C_14
REMARK    7  A    between atoms: C_10  and  C_15
REMARK    8  A    between atoms: C_14  and  C_16
REMARK    9  A    between atoms: C_18  and  C_21
REMARK   10  A    between atoms: C_19  and  C_22
REMARK   11  A    between atoms: C_27  and  C_28
REMARK                            x       y       z     vdW  Elec       q    Type
REMARK                         _______ _______ _______ _____ _____    ______ ____
ROOT
ATOM      1  O   UNL     1      15.607   8.321  19.962  0.00  0.00    -0.336 OA
ATOM      7  N   UNL     1      16.524   6.390  19.297  0.00  0.00    -0.190 NA
ATOM      8  N   UNL     1      16.811   8.201  20.666  0.00  0.00    -0.056 NA
ATOM     15  C   UNL     1      15.515   7.214  19.179  0.00  0.00    +0.245 A 
ATOM     18  C   UNL     1      17.294   7.037  20.220  0.00  0.00    +0.204 A 
ENDROOT
BRANCH  18  21
ATOM      9  N   UNL     1      20.322   4.883  20.389  0.00  0.00    -0.221 NA
ATOM     21  C   UNL     1      18.541   6.493  20.677  0.00  0.00    +0.041 A 
ATOM     23  C   UNL     1      19.174   7.005  21.803  0.00  0.00    +0.018 A 
ATOM     24  C   UNL     1      19.149   5.441  20.011  0.00  0.00    +0.126 A 
ATOM     25  C   UNL     1      20.382   6.458  22.224  0.00  0.00    +0.068 A 
ATOM     26  C   UNL     1      20.909   5.407  21.490  0.00  0.00    +0.215 A 
BRANCH  26   4
ATOM      4  O   UNL     1      22.097   4.850  21.883  0.00  0.00    -0.474 OA
BRANCH   4  27
ATOM     27  C   UNL     1      22.824   4.128  20.896  0.00  0.00    +0.258 C 
BRANCH  27  28
ATOM     28  C   UNL     1      23.132   2.740  21.426  0.00  0.00    +0.200 C 
BRANCH  28   5
ATOM      5  O   UNL     1      23.981   2.069  20.503  0.00  0.00    -0.380 OA
ATOM     29  C   UNL     1      24.830   2.980  19.819  0.00  0.00    +0.194 C 
ENDBRANCH  28   5
ENDBRANCH  27  28
ENDBRANCH   4  27
ENDBRANCH  26   4
ENDBRANCH  18  21
BRANCH  15  10
ATOM      6  N   UNL     1      13.085   7.692  18.940  0.00  0.00    -0.284 NA
ATOM     10  C   UNL     1      14.283   7.105  18.306  0.00  0.00    +0.146 C 
ATOM     11  C   UNL     1      14.430   7.860  16.973  0.00  0.00    +0.030 C 
ATOM     12  C   UNL     1      13.238   8.804  16.918  0.00  0.00    +0.017 C 
ATOM     13  C   UNL     1      12.231   8.163  17.851  0.00  0.00    +0.085 C 
BRANCH   6  14
ATOM     14  C   UNL     1      12.387   6.763  19.821  0.00  0.00    +0.159 C 
BRANCH  14  16
ATOM      2  O   UNL     1      12.155   8.719  21.249  0.00  0.00    -0.461 OA
ATOM     16  C   UNL     1      11.694   7.476  20.951  0.00  0.00    +0.119 A 
ATOM     17  C   UNL     1      10.654   7.134  21.783  0.00  0.00    +0.046 A 
ATOM     19  C   UNL     1      11.401   9.176  22.283  0.00  0.00    +0.131 A 
ATOM     20  C   UNL     1      10.463   8.238  22.648  0.00  0.00    +0.047 A 
BRANCH  19  22
ATOM     22  C   UNL     1      11.723  10.521  22.780  0.00  0.00    +0.230 C 
BRANCH  22   3
ATOM      3  O   UNL     1      10.524  11.262  23.015  0.00  0.00    -0.387 OA
ATOM     30  H   UNL     1      10.388  11.834  22.240  0.00  0.00    +0.210 HD
ENDBRANCH  22   3
ENDBRANCH  19  22
ENDBRANCH  14  16
ENDBRANCH   6  14
ENDBRANCH  15  10
TORSDOF 10
ENDMDL
MODEL 2
REMARK VINA RESULT:      -6.5      2.140      4.163
REMARK  Name = 45783553
REMARK  11 active torsions:
REMARK  status: ('A' for Active; 'I' for Inactive)
REMARK    1  A    between atoms: O_3  and  C_22
REMARK    2  A    between atoms: O_4  and  C_26
REMARK    3  A    between atoms: O_4  and  C_27
REMARK    4  A    between atoms: O_5  and  C_28
REMARK    5  A    between atoms: O_5  and  C_29
REMARK    6  A    between atoms: N_6  and  C_14
REMARK    7  A    between atoms: C_10  and  C_15
REMARK    8  A    between atoms: C_14  and  C_16
REMARK    9  A    between atoms: C_18  and  C_21
REMARK   10  A    between atoms: C_19  and  C_22
REMARK   11  A    between atoms: C_27  and  C_28
REMARK                            x       y       z     vdW  Elec       q    Type
REMARK                         _______ _______ _______ _____ _____    ______ ____
ROOT
ATOM      1  O   UNL     1      14.460   6.779  19.474  0.00  0.00    -0.336 OA
ATOM      7  N   UNL     1      15.674   7.514  21.206  0.00  0.00    -0.190 NA
ATOM      8  N   UNL     1      15.738   6.231  19.313  0.00  0.00    -0.056 NA
ATOM     15  C   UNL     1      14.509   7.521  20.612  0.00  0.00    +0.245 A 
ATOM     18  C   UNL     1      16.396   6.710  20.373  0.00  0.00    +0.204 A 
ENDROOT
BRANCH  18  21
ATOM      9  N   UNL     1      19.778   6.815  21.919  0.00  0.00    -0.221 NA
ATOM     21  C   UNL     1      17.775   6.405  20.628  0.00  0.00    +0.041 A 
ATOM     23  C   UNL     1      18.447   5.447  19.876  0.00  0.00    +0.018 A 
ATOM     24  C   UNL     1      18.479   7.054  21.629  0.00  0.00    +0.126 A 
ATOM     25  C   UNL     1      19.783   5.172  20.145  0.00  0.00    +0.068 A 
ATOM     26  C   UNL     1      20.398   5.877  21.167  0.00  0.00    +0.215 A 
BRANCH  26   4
ATOM      4  O   UNL     1      21.714   5.625  21.450  0.00  0.00    -0.474 OA
BRANCH   4  27
ATOM     27  C   UNL     1      22.014   5.210  22.778  0.00  0.00    +0.258 C 
BRANCH  27  28
ATOM     28  C   UNL     1      22.776   3.898  22.726  0.00  0.00    +0.200 C 
BRANCH  28   5
ATOM      5  O   UNL     1      22.323   3.142  21.610  0.00  0.00    -0.380 OA
ATOM     29  C   UNL     1      23.398   2.484  20.956  0.00  0.00    +0.194 C 
ENDBRANCH  28   5
ENDBRANCH  27  28
ENDBRANCH   4  27
ENDBRANCH  26   4
ENDBRANCH  18  21
BRANCH  15  10
ATOM      6  N   UNL     1      12.401   8.599  19.848  0.00  0.00    -0.284 NA
ATOM     10  C   UNL     1      13.231   8.228  21.011  0.00  0.00    +0.146 C 
ATOM     11  C   UNL     1      12.314   7.352  21.883  0.00  0.00    +0.030 C 
ATOM     12  C   UNL     1      10.974   7.338  21.161  0.00  0.00    +0.017 C 
ATOM     13  C   UNL     1      11.014   8.592  20.312  0.00  0.00    +0.085 C 
BRANCH   6  14
ATOM     14  C   UNL     1      12.775   9.880  19.260  0.00  0.00    +0.159 C 
BRANCH  14  16
ATOM      2  O   UNL     1      14.049  10.352  17.241  0.00  0.00    -0.461 OA
ATOM     16  C   UNL     1      12.931   9.785  17.765  0.00  0.00    +0.119 A 
ATOM     17  C   UNL     1      12.161   9.228  16.772  0.00  0.00    +0.046 A 
ATOM     19  C   UNL     1      13.992  10.155  15.897  0.00  0.00    +0.131 A 
ATOM     20  C   UNL     1      12.849   9.468  15.559  0.00  0.00    +0.047 A 
BRANCH  19  22
ATOM     22  C   UNL     1      15.113  10.690  15.113  0.00  0.00    +0.230 C 
BRANCH  22   3
ATOM      3  O   UNL     1      15.492   9.762  14.094  0.00  0.00    -0.387 OA
ATOM     30  H   UNL     1      15.207  10.140  13.245  0.00  0.00    +0.210 HD
ENDBRANCH  22   3
ENDBRANCH  19  22
ENDBRANCH  14  16
ENDBRANCH   6  14
ENDBRANCH  15  10
TORSDOF 10
ENDMDL
MODEL 3
REMARK VINA RESULT:      -6.3      1.921      2.368
REMARK  Name = 45783553
REMARK  11 active torsions:
REMARK  status: ('A' for Active; 'I' for Inactive)
REMARK    1  A    between atoms: O_3  and  C_22
REMARK    2  A    between atoms: O_4  and  C_26
REMARK    3  A    between atoms: O_4  and  C_27
REMARK    4  A    between atoms: O_5  and  C_28
REMARK    5  A    between atoms: O_5  and  C_29
REMARK    6  A    between atoms: N_6  and  C_14
REMARK    7  A    between atoms: C_10  and  C_15
REMARK    8  A    between atoms: C_14  and  C_16
REMARK    9  A    between atoms: C_18  and  C_21
REMARK   10  A    between atoms: C_19  and  C_22
REMARK   11  A    between atoms: C_27  and  C_28
REMARK                            x       y       z     vdW  Elec       q    Type
REMARK                         _______ _______ _______ _____ _____    ______ ____
ROOT
ATOM      1  O   UNL     1      14.209   7.112  20.841  0.00  0.00    -0.336 OA
ATOM      7  N   UNL     1      15.859   7.467  19.369  0.00  0.00    -0.190 NA
ATOM      8  N   UNL     1      15.404   6.996  21.562  0.00  0.00    -0.056 NA
ATOM     15  C   UNL     1      14.567   7.390  19.560  0.00  0.00    +0.245 A 
ATOM     18  C   UNL     1      16.331   7.218  20.625  0.00  0.00    +0.204 A 
ENDROOT
BRANCH  18  21
ATOM      9  N   UNL     1      19.647   8.238  21.967  0.00  0.00    -0.221 NA
ATOM     21  C   UNL     1      17.737   7.197  20.911  0.00  0.00    +0.041 A 
ATOM     23  C   UNL     1      18.548   6.169  20.441  0.00  0.00    +0.018 A 
ATOM     24  C   UNL     1      18.330   8.198  21.663  0.00  0.00    +0.126 A 
ATOM     25  C   UNL     1      19.907   6.175  20.734  0.00  0.00    +0.068 A 
ATOM     26  C   UNL     1      20.404   7.222  21.493  0.00  0.00    +0.215 A 
BRANCH  26   4
ATOM      4  O   UNL     1      21.739   7.251  21.794  0.00  0.00    -0.474 OA
BRANCH   4  27
ATOM     27  C   UNL     1      22.485   6.073  21.510  0.00  0.00    +0.258 C 
BRANCH  27  28
ATOM     28  C   UNL     1      22.914   5.432  22.817  0.00  0.00    +0.200 C 
BRANCH  28   5
ATOM      5  O   UNL     1      21.947   4.460  23.197  0.00  0.00    -0.380 OA
ATOM     29  C   UNL     1      22.153   3.229  22.519  0.00  0.00    +0.194 C 
ENDBRANCH  28   5
ENDBRANCH  27  28
ENDBRANCH   4  27
ENDBRANCH  26   4
ENDBRANCH  18  21
BRANCH  15  10
ATOM      6  N   UNL     1      12.753   8.867  18.711  0.00  0.00    -0.284 NA
ATOM     10  C   UNL     1      13.437   7.566  18.567  0.00  0.00    +0.146 C 
ATOM     11  C   UNL     1      13.920   7.537  17.106  0.00  0.00    +0.030 C 
ATOM     12  C   UNL     1      13.409   8.833  16.493  0.00  0.00    +0.017 C 
ATOM     13  C   UNL     1      12.245   9.215  17.385  0.00  0.00    +0.085 C 
BRANCH   6  14
ATOM     14  C   UNL     1      11.697   8.853  19.716  0.00  0.00    +0.159 C 
BRANCH  14  16
ATOM      2  O   UNL     1      11.213   9.840  21.888  0.00  0.00    -0.461 OA
ATOM     16  C   UNL     1      11.836   9.993  20.690  0.00  0.00    +0.119 A 
ATOM     17  C   UNL     1      12.482  11.206  20.634  0.00  0.00    +0.046 A 
ATOM     19  C   UNL     1      11.463  10.967  22.604  0.00  0.00    +0.131 A 
ATOM     20  C   UNL     1      12.240  11.839  21.876  0.00  0.00    +0.047 A 
BRANCH  19  22
ATOM     22  C   UNL     1      10.881  11.025  23.952  0.00  0.00    +0.230 C 
BRANCH  22   3
ATOM      3  O   UNL     1       9.881  12.045  24.015  0.00  0.00    -0.387 OA
ATOM     30  H   UNL     1      10.224  12.809  23.520  0.00  0.00    +0.210 HD
ENDBRANCH  22   3
ENDBRANCH  19  22
ENDBRANCH  14  16
ENDBRANCH   6  14
ENDBRANCH  15  10
TORSDOF 10
ENDMDL
MODEL 4
REMARK VINA RESULT:      -6.2      1.852      2.692
REMARK  Name = 45783553
REMARK  11 active torsions:
REMARK  status: ('A' for Active; 'I' for Inactive)
REMARK    1  A    between atoms: O_3  and  C_22
REMARK    2  A    between atoms: O_4  and  C_26
REMARK    3  A    between atoms: O_4  and  C_27
REMARK    4  A    between atoms: O_5  and  C_28
REMARK    5  A    between atoms: O_5  and  C_29
REMARK    6  A    between atoms: N_6  and  C_14
REMARK    7  A    between atoms: C_10  and  C_15
REMARK    8  A    between atoms: C_14  and  C_16
REMARK    9  A    between atoms: C_18  and  C_21
REMARK   10  A    between atoms: C_19  and  C_22
REMARK   11  A    between atoms: C_27  and  C_28
REMARK                            x       y       z     vdW  Elec       q    Type
REMARK                         _______ _______ _______ _____ _____    ______ ____
ROOT
ATOM      1  O   UNL     1      14.987   6.840  19.310  0.00  0.00    -0.336 OA
ATOM      7  N   UNL     1      16.553   8.096  20.302  0.00  0.00    -0.190 NA
ATOM      8  N   UNL     1      16.116   6.022  19.440  0.00  0.00    -0.056 NA
ATOM     15  C   UNL     1      15.329   8.043  19.842  0.00  0.00    +0.245 A 
ATOM     18  C   UNL     1      16.997   6.834  20.033  0.00  0.00    +0.204 A 
ENDROOT
BRANCH  18  21
ATOM      9  N   UNL     1      20.114   4.807  20.113  0.00  0.00    -0.221 NA
ATOM     21  C   UNL     1      18.328   6.415  20.370  0.00  0.00    +0.041 A 
ATOM     23  C   UNL     1      19.113   7.160  21.243  0.00  0.00    +0.018 A 
ATOM     24  C   UNL     1      18.869   5.257  19.837  0.00  0.00    +0.126 A 
ATOM     25  C   UNL     1      20.398   6.730  21.552  0.00  0.00    +0.068 A 
ATOM     26  C   UNL     1      20.848   5.557  20.966  0.00  0.00    +0.215 A 
BRANCH  26   4
ATOM      4  O   UNL     1      22.111   5.111  21.255  0.00  0.00    -0.474 OA
BRANCH   4  27
ATOM     27  C   UNL     1      22.360   4.720  22.600  0.00  0.00    +0.258 C 
BRANCH  27  28
ATOM     28  C   UNL     1      22.308   3.206  22.692  0.00  0.00    +0.200 C 
BRANCH  28   5
ATOM      5  O   UNL     1      22.197   2.828  24.059  0.00  0.00    -0.380 OA
ATOM     29  C   UNL     1      22.982   1.679  24.346  0.00  0.00    +0.194 C 
ENDBRANCH  28   5
ENDBRANCH  27  28
ENDBRANCH   4  27
ENDBRANCH  26   4
ENDBRANCH  18  21
BRANCH  15  10
ATOM      6  N   UNL     1      14.566  10.234  20.740  0.00  0.00    -0.284 NA
ATOM     10  C   UNL     1      14.263   9.118  19.822  0.00  0.00    +0.146 C 
ATOM     11  C   UNL     1      14.109   9.778  18.440  0.00  0.00    +0.030 C 
ATOM     12  C   UNL     1      14.282  11.269  18.691  0.00  0.00    +0.017 C 
ATOM     13  C   UNL     1      13.946  11.425  20.161  0.00  0.00    +0.085 C 
BRANCH   6  14
ATOM     14  C   UNL     1      14.118   9.993  22.106  0.00  0.00    +0.159 C 
BRANCH  14  16
ATOM      2  O   UNL     1      12.549   8.147  21.874  0.00  0.00    -0.461 OA
ATOM     16  C   UNL     1      12.707   9.468  22.149  0.00  0.00    +0.119 A 
ATOM     17  C   UNL     1      11.492  10.055  22.416  0.00  0.00    +0.046 A 
ATOM     19  C   UNL     1      11.218   7.887  21.966  0.00  0.00    +0.131 A 
ATOM     20  C   UNL     1      10.525   9.028  22.297  0.00  0.00    +0.047 A 
BRANCH  19  22
ATOM     22  C   UNL     1      10.806   6.501  21.706  0.00  0.00    +0.230 C 
BRANCH  22   3
ATOM      3  O   UNL     1      11.953   5.653  21.613  0.00  0.00    -0.387 OA
ATOM     30  H   UNL     1      12.115   5.497  20.667  0.00  0.00    +0.210 HD
ENDBRANCH  22   3
ENDBRANCH  19  22
ENDBRANCH  14  16
ENDBRANCH   6  14
ENDBRANCH  15  10
TORSDOF 10
ENDMDL
MODEL 5
REMARK VINA RESULT:      -6.1      1.569      2.283
REMARK  Name = 45783553
REMARK  11 active torsions:
REMARK  status: ('A' for Active; 'I' for Inactive)
REMARK    1  A    between atoms: O_3  and  C_22
REMARK    2  A    between atoms: O_4  and  C_26
REMARK    3  A    between atoms: O_4  and  C_27
REMARK    4  A    between atoms: O_5  and  C_28
REMARK    5  A    between atoms: O_5  and  C_29
REMARK    6  A    between atoms: N_6  and  C_14
REMARK    7  A    between atoms: C_10  and  C_15
REMARK    8  A    between atoms: C_14  and  C_16
REMARK    9  A    between atoms: C_18  and  C_21
REMARK   10  A    between atoms: C_19  and  C_22
REMARK   11  A    between atoms: C_27  and  C_28
REMARK                            x       y       z     vdW  Elec       q    Type
REMARK                         _______ _______ _______ _____ _____    ______ ____
ROOT
ATOM      1  O   UNL     1      16.918   8.869  20.594  0.00  0.00    -0.336 OA
ATOM      7  N   UNL     1      17.194   6.661  20.343  0.00  0.00    -0.190 NA
ATOM      8  N   UNL     1      18.251   8.604  20.930  0.00  0.00    -0.056 NA
ATOM     15  C   UNL     1      16.367   7.672  20.261  0.00  0.00    +0.245 A 
ATOM     18  C   UNL     1      18.337   7.281  20.757  0.00  0.00    +0.204 A 
ENDROOT
BRANCH  18  21
ATOM      9  N   UNL     1      20.906   4.601  20.538  0.00  0.00    -0.221 NA
ATOM     21  C   UNL     1      19.550   6.550  20.990  0.00  0.00    +0.041 A 
ATOM     23  C   UNL     1      20.523   7.036  21.855  0.00  0.00    +0.018 A 
ATOM     24  C   UNL     1      19.787   5.339  20.361  0.00  0.00    +0.126 A 
ATOM     25  C   UNL     1      21.688   6.306  22.063  0.00  0.00    +0.068 A 
ATOM     26  C   UNL     1      21.830   5.105  21.387  0.00  0.00    +0.215 A 
BRANCH  26   4
ATOM      4  O   UNL     1      22.968   4.367  21.574  0.00  0.00    -0.474 OA
BRANCH   4  27
ATOM     27  C   UNL     1      23.910   4.359  20.507  0.00  0.00    +0.258 C 
BRANCH  27  28
ATOM     28  C   UNL     1      24.905   3.236  20.733  0.00  0.00    +0.200 C 
BRANCH  28   5
ATOM      5  O   UNL     1      24.283   1.996  20.423  0.00  0.00    -0.380 OA
ATOM     29  C   UNL     1      24.529   1.024  21.430  0.00  0.00    +0.194 C 
ENDBRANCH  28   5
ENDBRANCH  27  28
ENDBRANCH   4  27
ENDBRANCH  26   4
ENDBRANCH  18  21
BRANCH  15  10
ATOM      6  N   UNL     1      14.246   8.969  20.176  0.00  0.00    -0.284 NA
ATOM     10  C   UNL     1      14.909   7.690  19.853  0.00  0.00    +0.146 C 
ATOM     11  C   UNL     1      14.714   7.519  18.336  0.00  0.00    +0.030 C 
ATOM     12  C   UNL     1      13.879   8.717  17.906  0.00  0.00    +0.017 C 
ATOM     13  C   UNL     1      13.186   9.146  19.184  0.00  0.00    +0.085 C 
BRANCH   6  14
ATOM     14  C   UNL     1      13.733   9.023  21.540  0.00  0.00    +0.159 C 
BRANCH  14  16
ATOM      2  O   UNL     1      12.390   6.997  21.669  0.00  0.00    -0.461 OA
ATOM     16  C   UNL     1      12.388   8.356  21.660  0.00  0.00    +0.119 A 
ATOM     17  C   UNL     1      11.105   8.838  21.767  0.00  0.00    +0.046 A 
ATOM     19  C   UNL     1      11.093   6.607  21.783  0.00  0.00    +0.131 A 
ATOM     20  C   UNL     1      10.263   7.703  21.846  0.00  0.00    +0.047 A 
BRANCH  19  22
ATOM     22  C   UNL     1      10.849   5.159  21.814  0.00  0.00    +0.230 C 
BRANCH  22   3
ATOM      3  O   UNL     1      10.887   4.622  20.490  0.00  0.00    -0.387 OA
ATOM     30  H   UNL     1       9.975   4.634  20.152  0.00  0.00    +0.210 HD
ENDBRANCH  22   3
ENDBRANCH  19  22
ENDBRANCH  14  16
ENDBRANCH   6  14
ENDBRANCH  15  10
TORSDOF 10
ENDMDL
MODEL 6
REMARK VINA RESULT:      -6.1      2.105      3.513
REMARK  Name = 45783553
REMARK  11 active torsions:
REMARK  status: ('A' for Active; 'I' for Inactive)
REMARK    1  A    between atoms: O_3  and  C_22
REMARK    2  A    between atoms: O_4  and  C_26
REMARK    3  A    between atoms: O_4  and  C_27
REMARK    4  A    between atoms: O_5  and  C_28
REMARK    5  A    between atoms: O_5  and  C_29
REMARK    6  A    between atoms: N_6  and  C_14
REMARK    7  A    between atoms: C_10  and  C_15
REMARK    8  A    between atoms: C_14  and  C_16
REMARK    9  A    between atoms: C_18  and  C_21
REMARK   10  A    between atoms: C_19  and  C_22
REMARK   11  A    between atoms: C_27  and  C_28
REMARK                            x       y       z     vdW  Elec       q    Type
REMARK                         _______ _______ _______ _____ _____    ______ ____
ROOT
ATOM      1  O   UNL     1      16.762   6.514  19.231  0.00  0.00    -0.336 OA
ATOM      7  N   UNL     1      17.698   7.324  21.097  0.00  0.00    -0.190 NA
ATOM      8  N   UNL     1      17.960   5.810  19.401  0.00  0.00    -0.056 NA
ATOM     15  C   UNL     1      16.685   7.385  20.272  0.00  0.00    +0.245 A 
ATOM     18  C   UNL     1      18.455   6.344  20.522  0.00  0.00    +0.204 A 
ENDROOT
BRANCH  18  21
ATOM      9  N   UNL     1      21.700   4.572  20.923  0.00  0.00    -0.221 NA
ATOM     21  C   UNL     1      19.702   5.922  21.093  0.00  0.00    +0.041 A 
ATOM     23  C   UNL     1      20.131   6.416  22.320  0.00  0.00    +0.018 A 
ATOM     24  C   UNL     1      20.515   5.011  20.440  0.00  0.00    +0.126 A 
ATOM     25  C   UNL     1      21.344   5.989  22.849  0.00  0.00    +0.068 A 
ATOM     26  C   UNL     1      22.084   5.073  22.119  0.00  0.00    +0.215 A 
BRANCH  26   4
ATOM      4  O   UNL     1      23.282   4.637  22.618  0.00  0.00    -0.474 OA
BRANCH   4  27
ATOM     27  C   UNL     1      24.015   3.719  21.815  0.00  0.00    +0.258 C 
BRANCH  27  28
ATOM     28  C   UNL     1      25.334   4.355  21.415  0.00  0.00    +0.200 C 
BRANCH  28   5
ATOM      5  O   UNL     1      25.977   3.525  20.456  0.00  0.00    -0.380 OA
ATOM     29  C   UNL     1      25.084   3.135  19.423  0.00  0.00    +0.194 C 
ENDBRANCH  28   5
ENDBRANCH  27  28
ENDBRANCH   4  27
ENDBRANCH  26   4
ENDBRANCH  18  21
BRANCH  15  10
ATOM      6  N   UNL     1      14.255   7.558  20.777  0.00  0.00    -0.284 NA
ATOM     10  C   UNL     1      15.461   8.275  20.318  0.00  0.00    +0.146 C 
ATOM     11  C   UNL     1      15.617   9.449  21.301  0.00  0.00    +0.030 C 
ATOM     12  C   UNL     1      14.420   9.345  22.237  0.00  0.00    +0.017 C 
ATOM     13  C   UNL     1      13.408   8.553  21.434  0.00  0.00    +0.085 C 
BRANCH   6  14
ATOM     14  C   UNL     1      13.554   6.866  19.702  0.00  0.00    +0.159 C 
BRANCH  14  16
ATOM      2  O   UNL     1      12.059   7.883  18.073  0.00  0.00    -0.461 OA
ATOM     16  C   UNL     1      13.340   7.757  18.507  0.00  0.00    +0.119 A 
ATOM     17  C   UNL     1      14.191   8.504  17.727  0.00  0.00    +0.046 A 
ATOM     19  C   UNL     1      12.092   8.719  17.002  0.00  0.00    +0.131 A 
ATOM     20  C   UNL     1      13.381   9.128  16.748  0.00  0.00    +0.047 A 
BRANCH  19  22
ATOM     22  C   UNL     1      10.802   9.006  16.360  0.00  0.00    +0.230 C 
BRANCH  22   3
ATOM      3  O   UNL     1      10.002   7.822  16.308  0.00  0.00    -0.387 OA
ATOM     30  H   UNL     1      10.504   7.121  16.758  0.00  0.00    +0.210 HD
ENDBRANCH  22   3
ENDBRANCH  19  22
ENDBRANCH  14  16
ENDBRANCH   6  14
ENDBRANCH  15  10
TORSDOF 10
ENDMDL
MODEL 7
REMARK VINA RESULT:      -6.0      2.038      2.640
REMARK  Name = 45783553
REMARK  11 active torsions:
REMARK  status: ('A' for Active; 'I' for Inactive)
REMARK    1  A    between atoms: O_3  and  C_22
REMARK    2  A    between atoms: O_4  and  C_26
REMARK    3  A    between atoms: O_4  and  C_27
REMARK    4  A    between atoms: O_5  and  C_28
REMARK    5  A    between atoms: O_5  and  C_29
REMARK    6  A    between atoms: N_6  and  C_14
REMARK    7  A    between atoms: C_10  and  C_15
REMARK    8  A    between atoms: C_14  and  C_16
REMARK    9  A    between atoms: C_18  and  C_21
REMARK   10  A    between atoms: C_19  and  C_22
REMARK   11  A    between atoms: C_27  and  C_28
REMARK                            x       y       z     vdW  Elec       q    Type
REMARK                         _______ _______ _______ _____ _____    ______ ____
ROOT
ATOM      1  O   UNL     1      16.212   5.902  18.262  0.00  0.00    -0.336 OA
ATOM      7  N   UNL     1      16.497   7.097  20.135  0.00  0.00    -0.190 NA
ATOM      8  N   UNL     1      17.485   5.572  18.744  0.00  0.00    -0.056 NA
ATOM     15  C   UNL     1      15.700   6.804  19.139  0.00  0.00    +0.245 A 
ATOM     18  C   UNL     1      17.580   6.317  19.850  0.00  0.00    +0.204 A 
ENDROOT
BRANCH  18  21
ATOM      9  N   UNL     1      20.918   5.380  21.195  0.00  0.00    -0.221 NA
ATOM     21  C   UNL     1      18.743   6.306  20.690  0.00  0.00    +0.041 A 
ATOM     23  C   UNL     1      18.846   7.164  21.780  0.00  0.00    +0.018 A 
ATOM     24  C   UNL     1      19.796   5.441  20.443  0.00  0.00    +0.126 A 
ATOM     25  C   UNL     1      19.985   7.131  22.578  0.00  0.00    +0.068 A 
ATOM     26  C   UNL     1      20.983   6.228  22.247  0.00  0.00    +0.215 A 
BRANCH  26   4
ATOM      4  O   UNL     1      22.114   6.176  23.017  0.00  0.00    -0.474 OA
BRANCH   4  27
ATOM     27  C   UNL     1      22.936   5.023  22.871  0.00  0.00    +0.258 C 
BRANCH  27  28
ATOM     28  C   UNL     1      23.361   4.542  24.245  0.00  0.00    +0.200 C 
BRANCH  28   5
ATOM      5  O   UNL     1      22.234   4.557  25.112  0.00  0.00    -0.380 OA
ATOM     29  C   UNL     1      22.593   4.957  26.427  0.00  0.00    +0.194 C 
ENDBRANCH  28   5
ENDBRANCH  27  28
ENDBRANCH   4  27
ENDBRANCH  26   4
ENDBRANCH  18  21
BRANCH  15  10
ATOM      6  N   UNL     1      13.960   8.511  19.644  0.00  0.00    -0.284 NA
ATOM     10  C   UNL     1      14.310   7.324  18.837  0.00  0.00    +0.146 C 
ATOM     11  C   UNL     1      14.151   7.784  17.377  0.00  0.00    +0.030 C 
ATOM     12  C   UNL     1      13.651   9.219  17.464  0.00  0.00    +0.017 C 
ATOM     13  C   UNL     1      13.024   9.295  18.841  0.00  0.00    +0.085 C 
BRANCH   6  14
ATOM     14  C   UNL     1      13.412   8.175  20.953  0.00  0.00    +0.159 C 
BRANCH  14  16
ATOM      2  O   UNL     1      12.117   9.567  22.472  0.00  0.00    -0.461 OA
ATOM     16  C   UNL     1      13.308   9.384  21.843  0.00  0.00    +0.119 A 
ATOM     17  C   UNL     1      14.188  10.387  22.176  0.00  0.00    +0.046 A 
ATOM     19  C   UNL     1      12.238  10.699  23.214  0.00  0.00    +0.131 A 
ATOM     20  C   UNL     1      13.493  11.241  23.066  0.00  0.00    +0.047 A 
BRANCH  19  22
ATOM     22  C   UNL     1      11.056  11.097  23.990  0.00  0.00    +0.230 C 
BRANCH  22   3
ATOM      3  O   UNL     1      11.250  10.797  25.375  0.00  0.00    -0.387 OA
ATOM     30  H   UNL     1      10.963   9.878  25.508  0.00  0.00    +0.210 HD
ENDBRANCH  22   3
ENDBRANCH  19  22
ENDBRANCH  14  16
ENDBRANCH   6  14
ENDBRANCH  15  10
TORSDOF 10
ENDMDL
MODEL 8
REMARK VINA RESULT:      -5.9      3.045      9.778
REMARK  Name = 45783553
REMARK  11 active torsions:
REMARK  status: ('A' for Active; 'I' for Inactive)
REMARK    1  A    between atoms: O_3  and  C_22
REMARK    2  A    between atoms: O_4  and  C_26
REMARK    3  A    between atoms: O_4  and  C_27
REMARK    4  A    between atoms: O_5  and  C_28
REMARK    5  A    between atoms: O_5  and  C_29
REMARK    6  A    between atoms: N_6  and  C_14
REMARK    7  A    between atoms: C_10  and  C_15
REMARK    8  A    between atoms: C_14  and  C_16
REMARK    9  A    between atoms: C_18  and  C_21
REMARK   10  A    between atoms: C_19  and  C_22
REMARK   11  A    between atoms: C_27  and  C_28
REMARK                            x       y       z     vdW  Elec       q    Type
REMARK                         _______ _______ _______ _____ _____    ______ ____
ROOT
ATOM      1  O   UNL     1      19.754   7.686  22.054  0.00  0.00    -0.336 OA
ATOM      7  N   UNL     1      18.739   6.036  20.930  0.00  0.00    -0.190 NA
ATOM      8  N   UNL     1      18.432   8.106  21.857  0.00  0.00    -0.056 NA
ATOM     15  C   UNL     1      19.849   6.459  21.478  0.00  0.00    +0.245 A 
ATOM     18  C   UNL     1      17.898   7.079  21.187  0.00  0.00    +0.204 A 
ENDROOT
BRANCH  18  21
ATOM      9  N   UNL     1      14.193   7.394  21.297  0.00  0.00    -0.221 NA
ATOM     21  C   UNL     1      16.528   7.066  20.761  0.00  0.00    +0.041 A 
ATOM     23  C   UNL     1      16.188   6.728  19.455  0.00  0.00    +0.018 A 
ATOM     24  C   UNL     1      15.503   7.388  21.635  0.00  0.00    +0.126 A 
ATOM     25  C   UNL     1      14.852   6.723  19.069  0.00  0.00    +0.068 A 
ATOM     26  C   UNL     1      13.901   7.060  20.020  0.00  0.00    +0.215 A 
BRANCH  26   4
ATOM      4  O   UNL     1      12.579   7.062  19.665  0.00  0.00    -0.474 OA
BRANCH   4  27
ATOM     27  C   UNL     1      11.698   7.824  20.482  0.00  0.00    +0.258 C 
BRANCH  27  28
ATOM     28  C   UNL     1      10.990   6.894  21.449  0.00  0.00    +0.200 C 
BRANCH  28   5
ATOM      5  O   UNL     1      10.269   7.670  22.397  0.00  0.00    -0.380 OA
ATOM     29  C   UNL     1      10.960   8.869  22.723  0.00  0.00    +0.194 C 
ENDBRANCH  28   5
ENDBRANCH  27  28
ENDBRANCH   4  27
ENDBRANCH  26   4
ENDBRANCH  18  21
BRANCH  15  10
ATOM      6  N   UNL     1      21.557   5.384  22.934  0.00  0.00    -0.284 NA
ATOM     10  C   UNL     1      21.201   5.780  21.557  0.00  0.00    +0.146 C 
ATOM     11  C   UNL     1      21.258   4.473  20.746  0.00  0.00    +0.030 C 
ATOM     12  C   UNL     1      21.713   3.411  21.737  0.00  0.00    +0.017 C 
ATOM     13  C   UNL     1      22.418   4.208  22.816  0.00  0.00    +0.085 C 
BRANCH   6  14
ATOM     14  C   UNL     1      22.192   6.454  23.694  0.00  0.00    +0.159 C 
BRANCH  14  16
ATOM      2  O   UNL     1      21.469   5.913  25.954  0.00  0.00    -0.461 OA
ATOM     16  C   UNL     1      22.520   6.025  25.099  0.00  0.00    +0.119 A 
ATOM     17  C   UNL     1      23.696   5.706  25.736  0.00  0.00    +0.046 A 
ATOM     19  C   UNL     1      21.980   5.519  27.150  0.00  0.00    +0.131 A 
ATOM     20  C   UNL     1      23.346   5.379  27.068  0.00  0.00    +0.047 A 
BRANCH  19  22
ATOM     22  C   UNL     1      21.014   5.331  28.240  0.00  0.00    +0.230 C 
BRANCH  22   3
ATOM      3  O   UNL     1      19.687   5.242  27.716  0.00  0.00    -0.387 OA
ATOM     30  H   UNL     1      19.488   4.296  27.610  0.00  0.00    +0.210 HD
ENDBRANCH  22   3
ENDBRANCH  19  22
ENDBRANCH  14  16
ENDBRANCH   6  14
ENDBRANCH  15  10
TORSDOF 10
ENDMDL
MODEL 9
REMARK VINA RESULT:      -5.9     29.304     32.665
REMARK  Name = 45783553
REMARK  11 active torsions:
REMARK  status: ('A' for Active; 'I' for Inactive)
REMARK    1  A    between atoms: O_3  and  C_22
REMARK    2  A    between atoms: O_4  and  C_26
REMARK    3  A    between atoms: O_4  and  C_27
REMARK    4  A    between atoms: O_5  and  C_28
REMARK    5  A    between atoms: O_5  and  C_29
REMARK    6  A    between atoms: N_6  and  C_14
REMARK    7  A    between atoms: C_10  and  C_15
REMARK    8  A    between atoms: C_14  and  C_16
REMARK    9  A    between atoms: C_18  and  C_21
REMARK   10  A    between atoms: C_19  and  C_22
REMARK   11  A    between atoms: C_27  and  C_28
REMARK                            x       y       z     vdW  Elec       q    Type
REMARK                         _______ _______ _______ _____ _____    ______ ____
ROOT
ATOM      1  O   UNL     1     -16.902   2.965  22.250  0.00  0.00    -0.336 OA
ATOM      7  N   UNL     1     -16.746   4.257  24.073  0.00  0.00    -0.190 NA
ATOM      8  N   UNL     1     -16.759   2.091  23.335  0.00  0.00    -0.056 NA
ATOM     15  C   UNL     1     -16.884   4.220  22.772  0.00  0.00    +0.245 A 
ATOM     18  C   UNL     1     -16.673   2.928  24.374  0.00  0.00    +0.204 A 
ENDROOT
BRANCH  18  21
ATOM      9  N   UNL     1     -16.631   0.651  27.314  0.00  0.00    -0.221 NA
ATOM     21  C   UNL     1     -16.514   2.468  25.724  0.00  0.00    +0.041 A 
ATOM     23  C   UNL     1     -16.107   3.335  26.731  0.00  0.00    +0.018 A 
ATOM     24  C   UNL     1     -16.761   1.148  26.063  0.00  0.00    +0.126 A 
ATOM     25  C   UNL     1     -15.961   2.862  28.031  0.00  0.00    +0.068 A 
ATOM     26  C   UNL     1     -16.233   1.524  28.269  0.00  0.00    +0.215 A 
BRANCH  26   4
ATOM      4  O   UNL     1     -16.098   1.033  29.540  0.00  0.00    -0.474 OA
BRANCH   4  27
ATOM     27  C   UNL     1     -14.819   1.174  30.148  0.00  0.00    +0.258 C 
BRANCH  27  28
ATOM     28  C   UNL     1     -14.973   1.919  31.460  0.00  0.00    +0.200 C 
BRANCH  28   5
ATOM      5  O   UNL     1     -13.714   1.966  32.119  0.00  0.00    -0.380 OA
ATOM     29  C   UNL     1     -13.206   3.292  32.177  0.00  0.00    +0.194 C 
ENDBRANCH  28   5
ENDBRANCH  27  28
ENDBRANCH   4  27
ENDBRANCH  26   4
ENDBRANCH  18  21
BRANCH  15  10
ATOM      6  N   UNL     1     -15.728   5.781  21.217  0.00  0.00    -0.284 NA
ATOM     10  C   UNL     1     -17.024   5.362  21.789  0.00  0.00    +0.146 C 
ATOM     11  C   UNL     1     -17.889   4.995  20.570  0.00  0.00    +0.030 C 
ATOM     12  C   UNL     1     -17.018   5.297  19.359  0.00  0.00    +0.017 C 
ATOM     13  C   UNL     1     -16.016   6.305  19.883  0.00  0.00    +0.085 C 
BRANCH   6  14
ATOM     14  C   UNL     1     -15.020   6.749  22.045  0.00  0.00    +0.159 C 
BRANCH  14  16
ATOM      2  O   UNL     1     -13.469   8.392  21.143  0.00  0.00    -0.461 OA
ATOM     16  C   UNL     1     -13.668   7.091  21.476  0.00  0.00    +0.119 A 
ATOM     17  C   UNL     1     -12.544   6.345  21.208  0.00  0.00    +0.046 A 
ATOM     19  C   UNL     1     -12.203   8.480  20.656  0.00  0.00    +0.131 A 
ATOM     20  C   UNL     1     -11.592   7.247  20.675  0.00  0.00    +0.047 A 
BRANCH  19  22
ATOM     22  C   UNL     1     -11.760   9.814  20.227  0.00  0.00    +0.230 C 
BRANCH  22   3
ATOM      3  O   UNL     1     -12.706  10.379  19.316  0.00  0.00    -0.387 OA
ATOM     30  H   UNL     1     -13.588  10.245  19.704  0.00  0.00    +0.210 HD
ENDBRANCH  22   3
ENDBRANCH  19  22
ENDBRANCH  14  16
ENDBRANCH   6  14
ENDBRANCH  15  10
TORSDOF 10
ENDMDL
MODEL 10
REMARK VINA RESULT:      -5.9     17.429     21.208
REMARK  Name = 45783553
REMARK  11 active torsions:
REMARK  status: ('A' for Active; 'I' for Inactive)
REMARK    1  A    between atoms: O_3  and  C_22
REMARK    2  A    between atoms: O_4  and  C_26
REMARK    3  A    between atoms: O_4  and  C_27
REMARK    4  A    between atoms: O_5  and  C_28
REMARK    5  A    between atoms: O_5  and  C_29
REMARK    6  A    between atoms: N_6  and  C_14
REMARK    7  A    between atoms: C_10  and  C_15
REMARK    8  A    between atoms: C_14  and  C_16
REMARK    9  A    between atoms: C_18  and  C_21
REMARK   10  A    between atoms: C_19  and  C_22
REMARK   11  A    between atoms: C_27  and  C_28
REMARK                            x       y       z     vdW  Elec       q    Type
REMARK                         _______ _______ _______ _____ _____    ______ ____
ROOT
ATOM      1  O   UNL     1      10.295   6.748  -1.274  0.00  0.00    -0.336 OA
ATOM      7  N   UNL     1      10.774   4.871  -0.151  0.00  0.00    -0.190 NA
ATOM      8  N   UNL     1      10.061   7.033   0.077  0.00  0.00    -0.056 NA
ATOM     15  C   UNL     1      10.712   5.456  -1.320  0.00  0.00    +0.245 A 
ATOM     18  C   UNL     1      10.366   5.877   0.675  0.00  0.00    +0.204 A 
ENDROOT
BRANCH  18  21
ATOM      9  N   UNL     1       9.648   6.585   4.256  0.00  0.00    -0.221 NA
ATOM     21  C   UNL     1      10.271   5.696   2.096  0.00  0.00    +0.041 A 
ATOM     23  C   UNL     1      10.689   4.512   2.695  0.00  0.00    +0.018 A 
ATOM     24  C   UNL     1       9.763   6.693   2.913  0.00  0.00    +0.126 A 
ATOM     25  C   UNL     1      10.586   4.364   4.074  0.00  0.00    +0.068 A 
ATOM     26  C   UNL     1      10.064   5.421   4.803  0.00  0.00    +0.215 A 
BRANCH  26   4
ATOM      4  O   UNL     1       9.954   5.299   6.163  0.00  0.00    -0.474 OA
BRANCH   4  27
ATOM     27  C   UNL     1      10.853   6.072   6.950  0.00  0.00    +0.258 C 
BRANCH  27  28
ATOM     28  C   UNL     1      10.210   6.364   8.293  0.00  0.00    +0.200 C 
BRANCH  28   5
ATOM      5  O   UNL     1      10.494   5.295   9.186  0.00  0.00    -0.380 OA
ATOM     29  C   UNL     1       9.304   4.693   9.675  0.00  0.00    +0.194 C 
ENDBRANCH  28   5
ENDBRANCH  27  28
ENDBRANCH   4  27
ENDBRANCH  26   4
ENDBRANCH  18  21
BRANCH  15  10
ATOM      6  N   UNL     1      12.270   4.088  -2.696  0.00  0.00    -0.284 NA
ATOM     10  C   UNL     1      11.036   4.899  -2.690  0.00  0.00    +0.146 C 
ATOM     11  C   UNL     1       9.943   3.953  -3.221  0.00  0.00    +0.030 C 
ATOM     12  C   UNL     1      10.668   2.657  -3.555  0.00  0.00    +0.017 C 
ATOM     13  C   UNL     1      12.105   3.094  -3.755  0.00  0.00    +0.085 C 
BRANCH   6  14
ATOM     14  C   UNL     1      13.479   4.883  -2.873  0.00  0.00    +0.159 C 
BRANCH  14  16
ATOM      2  O   UNL     1      14.014   4.510  -0.529  0.00  0.00    -0.461 OA
ATOM     16  C   UNL     1      14.494   4.607  -1.796  0.00  0.00    +0.119 A 
ATOM     17  C   UNL     1      15.857   4.423  -1.812  0.00  0.00    +0.046 A 
ATOM     19  C   UNL     1      15.082   4.261   0.274  0.00  0.00    +0.131 A 
ATOM     20  C   UNL     1      16.239   4.199  -0.467  0.00  0.00    +0.047 A 
BRANCH  19  22
ATOM     22  C   UNL     1      14.798   4.115   1.708  0.00  0.00    +0.230 C 
BRANCH  22   3
ATOM      3  O   UNL     1      15.591   3.064   2.265  0.00  0.00    -0.387 OA
ATOM     30  H   UNL     1      16.338   2.922   1.659  0.00  0.00    +0.210 HD
ENDBRANCH  22   3
ENDBRANCH  19  22
ENDBRANCH  14  16
ENDBRANCH   6  14
ENDBRANCH  15  10
TORSDOF 10
ENDMDL
