REMARK  Name = 51138023
REMARK  9 active torsions:
REMARK  status: ('A' for Active; 'I' for Inactive)
REMARK    1  A    between atoms: N_3  and  C_19
REMARK    2  A    between atoms: N_4  and  C_24
REMARK    3  A    between atoms: C_6  and  C_10
REMARK    4  A    between atoms: C_9  and  C_17
REMARK    5  A    between atoms: C_10  and  C_14
REMARK    6  A    between atoms: C_14  and  C_21
REMARK    7  A    between atoms: C_14  and  C_22
REMARK    8  A    between atoms: C_19  and  C_23
REMARK    9  A    between atoms: C_24  and  C_27
REMARK                            x       y       z     vdW  Elec       q    Type
REMARK                         _______ _______ _______ _____ _____    ______ ____
ROOT
ATOM      2  N   UNL     1      -1.255  -0.255  -0.165  0.00  0.00    -0.299 NA
ATOM      3  N   UNL     1       3.546   0.825   0.970  0.00  0.00    -0.342 N 
ATOM      6  C   UNL     1      -0.696  -1.485   0.414  0.00  0.00    +0.085 C 
ATOM      7  C   UNL     1       0.813  -1.475   0.676  0.00  0.00    -0.021 A 
ATOM      8  C   UNL     1       1.629  -0.309   0.729  0.00  0.00    +0.008 A 
ATOM      9  C   UNL     1      -1.151   0.920   0.688  0.00  0.00    +0.145 C 
ATOM     11  C   UNL     1       1.372   1.099   0.588  0.00  0.00    -0.020 A 
ATOM     12  C   UNL     1       0.065   1.770   0.326  0.00  0.00    +0.065 C 
ATOM     13  C   UNL     1       2.998  -0.436   0.992  0.00  0.00    +0.050 A 
ATOM     15  C   UNL     1       2.578   1.755   0.734  0.00  0.00    +0.091 A 
ATOM     16  C   UNL     1       1.459  -2.704   0.969  0.00  0.00    +0.006 A 
ATOM     18  C   UNL     1       3.624  -1.661   1.231  0.00  0.00    +0.026 A 
ATOM     20  C   UNL     1       2.825  -2.796   1.228  0.00  0.00    +0.002 A 
ATOM     35  H   UNL     1      -0.862  -0.076  -1.088  0.00  0.00    +0.123 HD
ENDROOT
BRANCH   9  17
ATOM      1  O   UNL     1      -2.445   2.571  -0.449  0.00  0.00    -0.274 OA
ATOM      4  N   UNL     1      -3.429   1.359   1.278  0.00  0.00    -0.310 N 
ATOM     17  C   UNL     1      -2.397   1.708   0.424  0.00  0.00    +0.231 C 
ATOM     36  H   UNL     1      -3.288   0.611   1.951  0.00  0.00    +0.149 HD
BRANCH   4  24
ATOM     24  C   UNL     1      -4.730   1.988   1.244  0.00  0.00    +0.139 C 
BRANCH  24  27
ATOM     27  C   UNL     1      -5.672   1.279   0.315  0.00  0.00    -0.030 A 
ATOM     29  C   UNL     1      -5.745   1.657  -1.026  0.00  0.00    +0.005 A 
ATOM     30  C   UNL     1      -6.475   0.243   0.792  0.00  0.00    +0.005 A 
ATOM     32  C   UNL     1      -6.621   0.999  -1.889  0.00  0.00    +0.000 A 
ATOM     33  C   UNL     1      -7.351  -0.415  -0.071  0.00  0.00    +0.000 A 
ATOM     34  C   UNL     1      -7.424  -0.037  -1.412  0.00  0.00    +0.000 A 
ENDBRANCH  24  27
ENDBRANCH   4  24
ENDBRANCH   9  17
BRANCH   6  10
ATOM     10  C   UNL     1      -1.119  -2.600  -0.559  0.00  0.00    +0.026 C 
BRANCH  10  14
ATOM     14  C   UNL     1      -2.590  -2.999  -0.409  0.00  0.00    -0.015 C 
ATOM     21  C   UNL     1      -2.903  -4.146  -1.373  0.00  0.00    +0.007 C 
ATOM     22  C   UNL     1      -3.546  -1.833  -0.666  0.00  0.00    +0.007 C 
ENDBRANCH  10  14
ENDBRANCH   6  10
BRANCH   3  19
ATOM     19  C   UNL     1       4.942   1.140   1.184  0.00  0.00    +0.158 C 
BRANCH  19  23
ATOM      5  N   UNL     1       7.709  -0.231  -1.010  0.00  0.00    -0.263 NA
ATOM     23  C   UNL     1       5.805   0.888  -0.027  0.00  0.00    -0.010 A 
ATOM     25  C   UNL     1       5.531   1.504  -1.243  0.00  0.00    +0.008 A 
ATOM     26  C   UNL     1       6.896   0.037   0.037  0.00  0.00    +0.116 A 
ATOM     28  C   UNL     1       6.344   1.253  -2.342  0.00  0.00    +0.020 A 
ATOM     31  C   UNL     1       7.411   0.386  -2.175  0.00  0.00    +0.111 A 
ENDBRANCH  19  23
ENDBRANCH   3  19
TORSDOF 7
