REMARK  Name = 40480283
REMARK  4 active torsions:
REMARK  status: ('A' for Active; 'I' for Inactive)
REMARK    1  A    between atoms: N_6  and  C_18
REMARK    2  A    between atoms: C_17  and  C_20
REMARK    3  A    between atoms: C_23  and  C_27
REMARK    4  A    between atoms: C_32  and  C_33
REMARK                            x       y       z     vdW  Elec       q    Type
REMARK                         _______ _______ _______ _____ _____    ______ ____
ROOT
ATOM      1  O   UNL     1       0.270   2.333   1.285  0.00  0.00    -0.266 OA
ATOM      2  O   UNL     1      -3.712  -0.681   2.635  0.00  0.00    -0.270 OA
ATOM      4  N   UNL     1      -4.251   0.338   0.598  0.00  0.00    -0.297 N 
ATOM      5  N   UNL     1      -1.602   1.954  -0.060  0.00  0.00    -0.310 N 
ATOM      8  C   UNL     1      -3.940   2.807   0.549  0.00  0.00    +0.027 C 
ATOM      9  C   UNL     1      -3.613   1.492  -1.506  0.00  0.00    +0.054 C 
ATOM     10  C   UNL     1      -4.180   2.800  -0.957  0.00  0.00    +0.018 C 
ATOM     11  C   UNL     1      -4.643   1.607   1.211  0.00  0.00    +0.113 C 
ATOM     12  C   UNL     1      -2.428   2.805   0.808  0.00  0.00    +0.130 C 
ATOM     13  C   UNL     1      -4.354   0.299  -0.870  0.00  0.00    +0.117 C 
ATOM     14  C   UNL     1      -2.127   1.380  -1.223  0.00  0.00    +0.027 A 
ATOM     15  C   UNL     1      -1.326   0.703  -2.063  0.00  0.00    +0.024 A 
ATOM     16  C   UNL     1      -0.241   1.832   0.282  0.00  0.00    +0.273 A 
ATOM     17  C   UNL     1      -3.801  -0.707   1.408  0.00  0.00    +0.247 C 
ATOM     18  C   UNL     1       0.612   1.046  -0.665  0.00  0.00    +0.099 A 
ATOM     19  C   UNL     1       0.070   0.533  -1.775  0.00  0.00    +0.030 A 
ENDROOT
BRANCH  17  20
ATOM     20  C   UNL     1      -3.373  -1.948   0.754  0.00  0.00    +0.037 A 
ATOM     21  C   UNL     1      -2.043  -2.112   0.368  0.00  0.00    +0.013 A 
ATOM     22  C   UNL     1      -4.298  -2.966   0.519  0.00  0.00    +0.013 A 
ATOM     24  C   UNL     1      -1.637  -3.293  -0.253  0.00  0.00    +0.001 A 
ATOM     25  C   UNL     1      -3.892  -4.147  -0.103  0.00  0.00    +0.001 A 
ATOM     26  C   UNL     1      -2.561  -4.310  -0.489  0.00  0.00    +0.000 A 
ENDBRANCH  17  20
BRANCH  18   6
ATOM      3  O   UNL     1       2.270  -1.145  -1.437  0.00  0.00    -0.270 OA
ATOM      6  N   UNL     1       1.931   0.889  -0.360  0.00  0.00    -0.277 N 
ATOM     23  C   UNL     1       2.686  -0.203  -0.766  0.00  0.00    +0.248 C 
ATOM     34  H   UNL     1       2.301   1.546   0.319  0.00  0.00    +0.155 HD
BRANCH  23  27
ATOM     27  C   UNL     1       4.114  -0.188  -0.356  0.00  0.00    +0.037 A 
ATOM     28  C   UNL     1       5.067  -0.862  -1.120  0.00  0.00    +0.014 A 
ATOM     29  C   UNL     1       4.502   0.501   0.793  0.00  0.00    +0.014 A 
ATOM     30  C   UNL     1       6.407  -0.846  -0.735  0.00  0.00    +0.019 A 
ATOM     31  C   UNL     1       5.843   0.517   1.178  0.00  0.00    +0.019 A 
ATOM     32  C   UNL     1       6.795  -0.157   0.414  0.00  0.00    +0.052 A 
BRANCH  32  33
ATOM      7  N   UNL     1       9.284  -0.129   1.128  0.00  0.00    -0.191 NA
ATOM     33  C   UNL     1       8.169  -0.141   0.808  0.00  0.00    +0.099 C 
ENDBRANCH  32  33
ENDBRANCH  23  27
ENDBRANCH  18   6
TORSDOF 4
