MODEL 1
REMARK VINA RESULT:      -7.7      0.000      0.000
REMARK  Name = 26743405
REMARK  6 active torsions:
REMARK  status: ('A' for Active; 'I' for Inactive)
REMARK    1  A    between atoms: N_4  and  C_9
REMARK    2  A    between atoms: N_5  and  C_18
REMARK    3  A    between atoms: C_7  and  C_10
REMARK    4  A    between atoms: C_13  and  C_15
REMARK    5  A    between atoms: C_14  and  C_16
REMARK    6  A    between atoms: C_17  and  C_19
REMARK                            x       y       z     vdW  Elec       q    Type
REMARK                         _______ _______ _______ _____ _____    ______ ____
ROOT
ATOM      7  C   UNL     1      14.832   8.808  21.452  0.00  0.00    +0.047 C 
ATOM      8  C   UNL     1      15.049   7.353  21.909  0.00  0.00    +0.039 C 
ATOM      9  C   UNL     1      15.769   6.642  20.750  0.00  0.00    +0.097 C 
ATOM     11  C   UNL     1      14.905   8.686  19.959  0.00  0.00    -0.021 C 
ATOM     12  C   UNL     1      15.422   7.512  19.581  0.00  0.00    -0.009 C 
ENDROOT
BRANCH   7  10
ATOM      5  N   UNL     1      12.050  10.736  22.856  0.00  0.00    -0.236 N 
ATOM      6  N   UNL     1      11.341   9.646  22.514  0.00  0.00    -0.171 NA
ATOM     10  C   UNL     1      13.549   9.412  21.975  0.00  0.00    +0.003 A 
ATOM     13  C   UNL     1      13.378  10.646  22.554  0.00  0.00    +0.046 A 
ATOM     14  C   UNL     1      12.262   8.841  21.977  0.00  0.00    +0.064 A 
ATOM     15  C   UNL     1      14.348  11.724  22.837  0.00  0.00    +0.066 C 
ATOM     16  C   UNL     1      11.859   7.518  21.469  0.00  0.00    +0.068 C 
BRANCH   5  18
ATOM     18  C   UNL     1      11.410  11.816  23.461  0.00  0.00    +0.066 A 
ATOM     20  C   UNL     1      10.899  12.852  22.679  0.00  0.00    +0.028 A 
ATOM     21  C   UNL     1      11.277  11.861  24.849  0.00  0.00    +0.028 A 
ATOM     26  C   UNL     1      10.257  13.933  23.284  0.00  0.00    +0.002 A 
ATOM     27  C   UNL     1      10.634  12.940  25.454  0.00  0.00    +0.002 A 
ATOM     29  C   UNL     1      10.124  13.976  24.672  0.00  0.00    +0.000 A 
ENDBRANCH   5  18
ENDBRANCH   7  10
BRANCH   9   4
ATOM      1  O   UNL     1      17.722   5.516  18.961  0.00  0.00    -0.270 OA
ATOM      4  N   UNL     1      17.211   6.578  20.957  0.00  0.00    -0.305 N 
ATOM     17  C   UNL     1      18.100   6.012  20.038  0.00  0.00    +0.245 C 
ATOM     31  H   UNL     1      17.553   6.890  21.860  0.00  0.00    +0.150 HD
BRANCH  17  19
ATOM      2  O   UNL     1      22.400   3.774  20.771  0.00  0.00    -0.453 OA
ATOM      3  O   UNL     1      23.485   5.830  21.403  0.00  0.00    -0.453 OA
ATOM     19  C   UNL     1      19.508   6.001  20.402  0.00  0.00    +0.040 A 
ATOM     22  C   UNL     1      20.219   4.799  20.380  0.00  0.00    +0.062 A 
ATOM     23  C   UNL     1      20.141   7.200  20.772  0.00  0.00    +0.017 A 
ATOM     24  C   UNL     1      21.553   4.838  20.732  0.00  0.00    +0.167 A 
ATOM     25  C   UNL     1      22.172   6.012  21.094  0.00  0.00    +0.166 A 
ATOM     28  C   UNL     1      21.493   7.213  21.123  0.00  0.00    +0.050 A 
ATOM     30  C   UNL     1      23.622   4.410  21.196  0.00  0.00    +0.466 C 
ENDBRANCH  17  19
ENDBRANCH   9   4
TORSDOF 4
ENDMDL
MODEL 2
REMARK VINA RESULT:      -7.5     27.790     31.803
REMARK  Name = 26743405
REMARK  6 active torsions:
REMARK  status: ('A' for Active; 'I' for Inactive)
REMARK    1  A    between atoms: N_4  and  C_9
REMARK    2  A    between atoms: N_5  and  C_18
REMARK    3  A    between atoms: C_7  and  C_10
REMARK    4  A    between atoms: C_13  and  C_15
REMARK    5  A    between atoms: C_14  and  C_16
REMARK    6  A    between atoms: C_17  and  C_19
REMARK                            x       y       z     vdW  Elec       q    Type
REMARK                         _______ _______ _______ _____ _____    ______ ____
ROOT
ATOM      7  C   UNL     1     -14.867   5.939  22.537  0.00  0.00    +0.047 C 
ATOM      8  C   UNL     1     -15.634   6.653  23.666  0.00  0.00    +0.039 C 
ATOM      9  C   UNL     1     -16.726   5.674  24.129  0.00  0.00    +0.097 C 
ATOM     11  C   UNL     1     -15.864   4.920  22.070  0.00  0.00    -0.021 C 
ATOM     12  C   UNL     1     -16.868   4.774  22.941  0.00  0.00    -0.009 C 
ENDROOT
BRANCH   7  10
ATOM      5  N   UNL     1     -13.153   7.957  20.005  0.00  0.00    -0.236 N 
ATOM      6  N   UNL     1     -14.366   8.521  19.874  0.00  0.00    -0.171 NA
ATOM     10  C   UNL     1     -14.373   6.880  21.462  0.00  0.00    +0.003 A 
ATOM     13  C   UNL     1     -13.104   6.968  20.943  0.00  0.00    +0.046 A 
ATOM     14  C   UNL     1     -15.107   7.860  20.767  0.00  0.00    +0.064 A 
ATOM     15  C   UNL     1     -11.877   6.208  21.255  0.00  0.00    +0.066 C 
ATOM     16  C   UNL     1     -16.532   8.201  20.922  0.00  0.00    +0.068 C 
BRANCH   5  18
ATOM     18  C   UNL     1     -12.094   8.402  19.214  0.00  0.00    +0.066 A 
ATOM     20  C   UNL     1     -11.215   9.368  19.705  0.00  0.00    +0.028 A 
ATOM     21  C   UNL     1     -11.911   7.881  17.934  0.00  0.00    +0.028 A 
ATOM     26  C   UNL     1     -10.155   9.813  18.915  0.00  0.00    +0.002 A 
ATOM     27  C   UNL     1     -10.851   8.325  17.144  0.00  0.00    +0.002 A 
ATOM     29  C   UNL     1      -9.973   9.291  17.635  0.00  0.00    +0.000 A 
ENDBRANCH   5  18
ENDBRANCH   7  10
BRANCH   9   4
ATOM      1  O   UNL     1     -18.456   4.649  26.188  0.00  0.00    -0.270 OA
ATOM      4  N   UNL     1     -16.326   4.929  25.317  0.00  0.00    -0.305 N 
ATOM     17  C   UNL     1     -17.229   4.462  26.277  0.00  0.00    +0.245 C 
ATOM     31  H   UNL     1     -15.328   4.831  25.476  0.00  0.00    +0.150 HD
BRANCH  17  19
ATOM      2  O   UNL     1     -15.681   0.420  28.581  0.00  0.00    -0.453 OA
ATOM      3  O   UNL     1     -15.106   1.647  30.574  0.00  0.00    -0.453 OA
ATOM     19  C   UNL     1     -16.672   3.757  27.421  0.00  0.00    +0.040 A 
ATOM     22  C   UNL     1     -16.474   2.376  27.354  0.00  0.00    +0.062 A 
ATOM     23  C   UNL     1     -16.337   4.472  28.584  0.00  0.00    +0.017 A 
ATOM     24  C   UNL     1     -15.942   1.751  28.462  0.00  0.00    +0.167 A 
ATOM     25  C   UNL     1     -15.613   2.451  29.600  0.00  0.00    +0.166 A 
ATOM     28  C   UNL     1     -15.799   3.815  29.693  0.00  0.00    +0.050 A 
ATOM     30  C   UNL     1     -15.152   0.362  29.921  0.00  0.00    +0.466 C 
ENDBRANCH  17  19
ENDBRANCH   9   4
TORSDOF 4
ENDMDL
MODEL 3
REMARK VINA RESULT:      -7.4      4.652     10.601
REMARK  Name = 26743405
REMARK  6 active torsions:
REMARK  status: ('A' for Active; 'I' for Inactive)
REMARK    1  A    between atoms: N_4  and  C_9
REMARK    2  A    between atoms: N_5  and  C_18
REMARK    3  A    between atoms: C_7  and  C_10
REMARK    4  A    between atoms: C_13  and  C_15
REMARK    5  A    between atoms: C_14  and  C_16
REMARK    6  A    between atoms: C_17  and  C_19
REMARK                            x       y       z     vdW  Elec       q    Type
REMARK                         _______ _______ _______ _____ _____    ______ ____
ROOT
ATOM      7  C   UNL     1      18.828   7.361  21.103  0.00  0.00    +0.047 C 
ATOM      8  C   UNL     1      17.406   6.961  21.538  0.00  0.00    +0.039 C 
ATOM      9  C   UNL     1      16.575   8.255  21.530  0.00  0.00    +0.097 C 
ATOM     11  C   UNL     1      18.858   8.826  21.422  0.00  0.00    -0.021 C 
ATOM     12  C   UNL     1      17.631   9.310  21.645  0.00  0.00    -0.009 C 
ENDROOT
BRANCH   7  10
ATOM      5  N   UNL     1      21.421   5.044  22.258  0.00  0.00    -0.236 N 
ATOM      6  N   UNL     1      21.448   5.867  23.321  0.00  0.00    -0.171 NA
ATOM     10  C   UNL     1      19.909   6.546  21.775  0.00  0.00    +0.003 A 
ATOM     13  C   UNL     1      20.516   5.407  21.304  0.00  0.00    +0.046 A 
ATOM     14  C   UNL     1      20.523   6.782  23.020  0.00  0.00    +0.064 A 
ATOM     15  C   UNL     1      20.314   4.651  20.051  0.00  0.00    +0.066 C 
ATOM     16  C   UNL     1      20.256   7.881  23.964  0.00  0.00    +0.068 C 
BRANCH   5  18
ATOM     18  C   UNL     1      22.273   3.941  22.216  0.00  0.00    +0.066 A 
ATOM     20  C   UNL     1      22.471   3.168  23.361  0.00  0.00    +0.028 A 
ATOM     21  C   UNL     1      22.925   3.608  21.029  0.00  0.00    +0.028 A 
ATOM     26  C   UNL     1      23.323   2.064  23.318  0.00  0.00    +0.002 A 
ATOM     27  C   UNL     1      23.775   2.503  20.986  0.00  0.00    +0.002 A 
ATOM     29  C   UNL     1      23.974   1.731  22.131  0.00  0.00    +0.000 A 
ENDBRANCH   5  18
ENDBRANCH   7  10
BRANCH   9   4
ATOM      1  O   UNL     1      13.995   9.500  21.250  0.00  0.00    -0.270 OA
ATOM      4  N   UNL     1      15.804   8.404  20.301  0.00  0.00    -0.305 N 
ATOM     17  C   UNL     1      14.552   9.023  20.244  0.00  0.00    +0.245 C 
ATOM     31  H   UNL     1      16.179   7.951  19.473  0.00  0.00    +0.150 HD
BRANCH  17  19
ATOM      2  O   UNL     1      10.689   8.438  17.281  0.00  0.00    -0.453 OA
ATOM      3  O   UNL     1      11.929   9.160  15.345  0.00  0.00    -0.453 OA
ATOM     19  C   UNL     1      13.897   9.071  18.947  0.00  0.00    +0.040 A 
ATOM     22  C   UNL     1      12.555   8.698  18.834  0.00  0.00    +0.062 A 
ATOM     23  C   UNL     1      14.619   9.491  17.816  0.00  0.00    +0.017 A 
ATOM     24  C   UNL     1      11.976   8.761  17.583  0.00  0.00    +0.167 A 
ATOM     25  C   UNL     1      12.684   9.173  16.477  0.00  0.00    +0.166 A 
ATOM     28  C   UNL     1      14.010   9.545  16.561  0.00  0.00    +0.050 A 
ATOM     30  C   UNL     1      10.666   8.694  15.863  0.00  0.00    +0.466 C 
ENDBRANCH  17  19
ENDBRANCH   9   4
TORSDOF 4
ENDMDL
MODEL 4
REMARK VINA RESULT:      -7.4      3.780     10.343
REMARK  Name = 26743405
REMARK  6 active torsions:
REMARK  status: ('A' for Active; 'I' for Inactive)
REMARK    1  A    between atoms: N_4  and  C_9
REMARK    2  A    between atoms: N_5  and  C_18
REMARK    3  A    between atoms: C_7  and  C_10
REMARK    4  A    between atoms: C_13  and  C_15
REMARK    5  A    between atoms: C_14  and  C_16
REMARK    6  A    between atoms: C_17  and  C_19
REMARK                            x       y       z     vdW  Elec       q    Type
REMARK                         _______ _______ _______ _____ _____    ______ ____
ROOT
ATOM      7  C   UNL     1      16.303   7.609  21.135  0.00  0.00    +0.047 C 
ATOM      8  C   UNL     1      15.766   8.599  20.084  0.00  0.00    +0.039 C 
ATOM      9  C   UNL     1      14.233   8.488  20.134  0.00  0.00    +0.097 C 
ATOM     11  C   UNL     1      15.158   6.652  21.285  0.00  0.00    -0.021 C 
ATOM     12  C   UNL     1      14.033   7.137  20.747  0.00  0.00    -0.009 C 
ENDROOT
BRANCH   7  10
ATOM      5  N   UNL     1      19.702   6.337  20.633  0.00  0.00    -0.236 N 
ATOM      6  N   UNL     1      19.135   5.709  19.589  0.00  0.00    -0.171 NA
ATOM     10  C   UNL     1      17.613   6.969  20.738  0.00  0.00    +0.003 A 
ATOM     13  C   UNL     1      18.834   7.104  21.353  0.00  0.00    +0.046 A 
ATOM     14  C   UNL     1      17.859   6.099  19.657  0.00  0.00    +0.064 A 
ATOM     15  C   UNL     1      19.236   7.883  22.543  0.00  0.00    +0.066 C 
ATOM     16  C   UNL     1      16.896   5.606  18.657  0.00  0.00    +0.068 C 
BRANCH   5  18
ATOM     18  C   UNL     1      21.063   6.167  20.885  0.00  0.00    +0.066 A 
ATOM     20  C   UNL     1      21.498   5.103  21.676  0.00  0.00    +0.028 A 
ATOM     21  C   UNL     1      21.991   7.059  20.346  0.00  0.00    +0.028 A 
ATOM     26  C   UNL     1      22.859   4.932  21.928  0.00  0.00    +0.002 A 
ATOM     27  C   UNL     1      23.351   6.887  20.597  0.00  0.00    +0.002 A 
ATOM     29  C   UNL     1      23.786   5.824  21.388  0.00  0.00    +0.000 A 
ENDBRANCH   5  18
ENDBRANCH   7  10
BRANCH   9   4
ATOM      1  O   UNL     1      11.467   9.283  20.170  0.00  0.00    -0.270 OA
ATOM      4  N   UNL     1      13.635   9.538  20.951  0.00  0.00    -0.305 N 
ATOM     17  C   UNL     1      12.276   9.868  20.912  0.00  0.00    +0.245 C 
ATOM     31  H   UNL     1      14.273  10.101  21.505  0.00  0.00    +0.150 HD
BRANCH  17  19
ATOM      2  O   UNL     1      10.801  11.719  25.206  0.00  0.00    -0.453 OA
ATOM      3  O   UNL     1      10.588  13.941  24.297  0.00  0.00    -0.453 OA
ATOM     19  C   UNL     1      11.837  10.957  21.770  0.00  0.00    +0.040 A 
ATOM     22  C   UNL     1      11.542  10.707  23.112  0.00  0.00    +0.062 A 
ATOM     23  C   UNL     1      11.711  12.253  21.240  0.00  0.00    +0.017 A 
ATOM     24  C   UNL     1      11.130  11.772  23.887  0.00  0.00    +0.167 A 
ATOM     25  C   UNL     1      11.008  13.040  23.368  0.00  0.00    +0.166 A 
ATOM     28  C   UNL     1      11.292  13.314  22.046  0.00  0.00    +0.050 A 
ATOM     30  C   UNL     1      10.459  13.097  25.459  0.00  0.00    +0.466 C 
ENDBRANCH  17  19
ENDBRANCH   9   4
TORSDOF 4
ENDMDL
MODEL 5
REMARK VINA RESULT:      -7.2     29.042     33.232
REMARK  Name = 26743405
REMARK  6 active torsions:
REMARK  status: ('A' for Active; 'I' for Inactive)
REMARK    1  A    between atoms: N_4  and  C_9
REMARK    2  A    between atoms: N_5  and  C_18
REMARK    3  A    between atoms: C_7  and  C_10
REMARK    4  A    between atoms: C_13  and  C_15
REMARK    5  A    between atoms: C_14  and  C_16
REMARK    6  A    between atoms: C_17  and  C_19
REMARK                            x       y       z     vdW  Elec       q    Type
REMARK                         _______ _______ _______ _____ _____    ______ ____
ROOT
ATOM      7  C   UNL     1      -8.566  -8.219   8.366  0.00  0.00    +0.047 C 
ATOM      8  C   UNL     1      -8.533  -6.697   8.133  0.00  0.00    +0.039 C 
ATOM      9  C   UNL     1      -9.740  -6.374   7.236  0.00  0.00    +0.097 C 
ATOM     11  C   UNL     1      -9.378  -8.701   7.200  0.00  0.00    -0.021 C 
ATOM     12  C   UNL     1     -10.021  -7.697   6.594  0.00  0.00    -0.009 C 
ENDROOT
BRANCH   7  10
ATOM      5  N   UNL     1      -5.302  -9.653   9.210  0.00  0.00    -0.236 N 
ATOM      6  N   UNL     1      -5.199  -9.779   7.876  0.00  0.00    -0.171 NA
ATOM     10  C   UNL     1      -7.191  -8.836   8.477  0.00  0.00    +0.003 A 
ATOM     13  C   UNL     1      -6.477  -9.094   9.622  0.00  0.00    +0.046 A 
ATOM     14  C   UNL     1      -6.355  -9.278   7.433  0.00  0.00    +0.064 A 
ATOM     15  C   UNL     1      -6.810  -8.859  11.042  0.00  0.00    +0.066 C 
ATOM     16  C   UNL     1      -6.622  -9.244   5.985  0.00  0.00    +0.068 C 
BRANCH   5  18
ATOM     18  C   UNL     1      -4.256 -10.079  10.029  0.00  0.00    +0.066 A 
ATOM     20  C   UNL     1      -3.203  -9.212  10.322  0.00  0.00    +0.028 A 
ATOM     21  C   UNL     1      -4.264 -11.369  10.557  0.00  0.00    +0.028 A 
ATOM     26  C   UNL     1      -2.157  -9.638  11.141  0.00  0.00    +0.002 A 
ATOM     27  C   UNL     1      -3.220 -11.794  11.377  0.00  0.00    +0.002 A 
ATOM     29  C   UNL     1      -2.166 -10.929  11.670  0.00  0.00    +0.000 A 
ENDBRANCH   5  18
ENDBRANCH   7  10
BRANCH   9   4
ATOM      1  O   UNL     1      -9.858  -4.017   8.883  0.00  0.00    -0.270 OA
ATOM      4  N   UNL     1     -10.884  -5.901   8.006  0.00  0.00    -0.305 N 
ATOM     17  C   UNL     1     -10.865  -4.742   8.787  0.00  0.00    +0.245 C 
ATOM     31  H   UNL     1     -11.698  -6.508   8.028  0.00  0.00    +0.150 HD
BRANCH  17  19
ATOM      2  O   UNL     1     -13.305  -3.426  12.832  0.00  0.00    -0.453 OA
ATOM      3  O   UNL     1     -15.430  -3.478  11.696  0.00  0.00    -0.453 OA
ATOM     19  C   UNL     1     -12.080  -4.417   9.518  0.00  0.00    +0.040 A 
ATOM     22  C   UNL     1     -12.005  -4.077  10.871  0.00  0.00    +0.062 A 
ATOM     23  C   UNL     1     -13.320  -4.448   8.856  0.00  0.00    +0.017 A 
ATOM     24  C   UNL     1     -13.183  -3.776  11.522  0.00  0.00    +0.167 A 
ATOM     25  C   UNL     1     -14.396  -3.806  10.874  0.00  0.00    +0.166 A 
ATOM     28  C   UNL     1     -14.499  -4.139   9.539  0.00  0.00    +0.050 A 
ATOM     30  C   UNL     1     -14.731  -3.239  12.934  0.00  0.00    +0.466 C 
ENDBRANCH  17  19
ENDBRANCH   9   4
TORSDOF 4
ENDMDL
MODEL 6
REMARK VINA RESULT:      -7.1     28.856     31.198
REMARK  Name = 26743405
REMARK  6 active torsions:
REMARK  status: ('A' for Active; 'I' for Inactive)
REMARK    1  A    between atoms: N_4  and  C_9
REMARK    2  A    between atoms: N_5  and  C_18
REMARK    3  A    between atoms: C_7  and  C_10
REMARK    4  A    between atoms: C_13  and  C_15
REMARK    5  A    between atoms: C_14  and  C_16
REMARK    6  A    between atoms: C_17  and  C_19
REMARK                            x       y       z     vdW  Elec       q    Type
REMARK                         _______ _______ _______ _____ _____    ______ ____
ROOT
ATOM      7  C   UNL     1      -7.103 -11.273  16.509  0.00  0.00    +0.047 C 
ATOM      8  C   UNL     1      -6.243 -10.021  16.256  0.00  0.00    +0.039 C 
ATOM      9  C   UNL     1      -4.972 -10.510  15.541  0.00  0.00    +0.097 C 
ATOM     11  C   UNL     1      -6.085 -12.374  16.456  0.00  0.00    -0.021 C 
ATOM     12  C   UNL     1      -4.932 -11.957  15.922  0.00  0.00    -0.009 C 
ENDROOT
BRANCH   7  10
ATOM      5  N   UNL     1      -9.490 -11.150  19.286  0.00  0.00    -0.236 N 
ATOM      6  N   UNL     1      -8.371 -11.061  20.026  0.00  0.00    -0.171 NA
ATOM     10  C   UNL     1      -7.893 -11.205  17.796  0.00  0.00    +0.003 A 
ATOM     13  C   UNL     1      -9.259 -11.238  17.945  0.00  0.00    +0.046 A 
ATOM     14  C   UNL     1      -7.399 -11.095  19.110  0.00  0.00    +0.064 A 
ATOM     15  C   UNL     1     -10.338 -11.345  16.941  0.00  0.00    +0.066 C 
ATOM     16  C   UNL     1      -5.993 -11.021  19.543  0.00  0.00    +0.068 C 
BRANCH   5  18
ATOM     18  C   UNL     1     -10.736 -11.144  19.913  0.00  0.00    +0.066 A 
ATOM     20  C   UNL     1     -11.442  -9.948  20.051  0.00  0.00    +0.028 A 
ATOM     21  C   UNL     1     -11.278 -12.333  20.400  0.00  0.00    +0.028 A 
ATOM     26  C   UNL     1     -12.688  -9.942  20.677  0.00  0.00    +0.002 A 
ATOM     27  C   UNL     1     -12.525 -12.327  21.026  0.00  0.00    +0.002 A 
ATOM     29  C   UNL     1     -13.230 -11.131  21.164  0.00  0.00    +0.000 A 
ENDBRANCH   5  18
ENDBRANCH   7  10
BRANCH   9   4
ATOM      1  O   UNL     1      -2.790 -10.543  13.665  0.00  0.00    -0.270 OA
ATOM      4  N   UNL     1      -5.059 -10.342  14.095  0.00  0.00    -0.305 N 
ATOM     17  C   UNL     1      -3.948 -10.370  13.245  0.00  0.00    +0.245 C 
ATOM     31  H   UNL     1      -5.973 -10.109  13.719  0.00  0.00    +0.150 HD
BRANCH  17  19
ATOM      2  O   UNL     1      -6.730 -10.632   9.216  0.00  0.00    -0.453 OA
ATOM      3  O   UNL     1      -5.024  -9.626   7.843  0.00  0.00    -0.453 OA
ATOM     19  C   UNL     1      -4.196 -10.161  11.828  0.00  0.00    +0.040 A 
ATOM     22  C   UNL     1      -5.420 -10.544  11.274  0.00  0.00    +0.062 A 
ATOM     23  C   UNL     1      -3.201  -9.575  11.026  0.00  0.00    +0.017 A 
ATOM     24  C   UNL     1      -5.610 -10.325   9.925  0.00  0.00    +0.167 A 
ATOM     25  C   UNL     1      -4.636  -9.751   9.141  0.00  0.00    +0.166 A 
ATOM     28  C   UNL     1      -3.418  -9.364   9.662  0.00  0.00    +0.050 A 
ATOM     30  C   UNL     1      -6.351 -10.186   7.898  0.00  0.00    +0.466 C 
ENDBRANCH  17  19
ENDBRANCH   9   4
TORSDOF 4
ENDMDL
MODEL 7
REMARK VINA RESULT:      -7.0      4.118     11.344
REMARK  Name = 26743405
REMARK  6 active torsions:
REMARK  status: ('A' for Active; 'I' for Inactive)
REMARK    1  A    between atoms: N_4  and  C_9
REMARK    2  A    between atoms: N_5  and  C_18
REMARK    3  A    between atoms: C_7  and  C_10
REMARK    4  A    between atoms: C_13  and  C_15
REMARK    5  A    between atoms: C_14  and  C_16
REMARK    6  A    between atoms: C_17  and  C_19
REMARK                            x       y       z     vdW  Elec       q    Type
REMARK                         _______ _______ _______ _____ _____    ______ ____
ROOT
ATOM      7  C   UNL     1      20.535   6.248  21.550  0.00  0.00    +0.047 C 
ATOM      8  C   UNL     1      19.564   6.698  22.658  0.00  0.00    +0.039 C 
ATOM      9  C   UNL     1      18.968   8.036  22.189  0.00  0.00    +0.097 C 
ATOM     11  C   UNL     1      20.846   7.541  20.856  0.00  0.00    -0.021 C 
ATOM     12  C   UNL     1      19.988   8.507  21.200  0.00  0.00    -0.009 C 
ENDROOT
BRANCH   7  10
ATOM      5  N   UNL     1      23.250   3.995  22.538  0.00  0.00    -0.236 N 
ATOM      6  N   UNL     1      23.694   5.084  23.188  0.00  0.00    -0.171 NA
ATOM     10  C   UNL     1      21.742   5.508  22.078  0.00  0.00    +0.003 A 
ATOM     13  C   UNL     1      22.085   4.196  21.857  0.00  0.00    +0.046 A 
ATOM     14  C   UNL     1      22.768   6.005  22.904  0.00  0.00    +0.064 A 
ATOM     15  C   UNL     1      21.413   3.141  21.071  0.00  0.00    +0.066 C 
ATOM     16  C   UNL     1      22.910   7.366  23.450  0.00  0.00    +0.068 C 
BRANCH   5  18
ATOM     18  C   UNL     1      23.975   2.806  22.605  0.00  0.00    +0.066 A 
ATOM     20  C   UNL     1      24.962   2.536  21.657  0.00  0.00    +0.028 A 
ATOM     21  C   UNL     1      23.716   1.887  23.622  0.00  0.00    +0.028 A 
ATOM     26  C   UNL     1      25.688   1.347  21.724  0.00  0.00    +0.002 A 
ATOM     27  C   UNL     1      24.443   0.699  23.690  0.00  0.00    +0.002 A 
ATOM     29  C   UNL     1      25.429   0.429  22.742  0.00  0.00    +0.000 A 
ENDBRANCH   5  18
ENDBRANCH   7  10
BRANCH   9   4
ATOM      1  O   UNL     1      16.904  10.026  21.930  0.00  0.00    -0.270 OA
ATOM      4  N   UNL     1      17.660   7.865  21.566  0.00  0.00    -0.305 N 
ATOM     17  C   UNL     1      16.706   8.883  21.479  0.00  0.00    +0.245 C 
ATOM     31  H   UNL     1      17.422   6.925  21.264  0.00  0.00    +0.150 HD
BRANCH  17  19
ATOM      2  O   UNL     1      11.830   9.185  21.056  0.00  0.00    -0.453 OA
ATOM      3  O   UNL     1      11.794   7.687  19.169  0.00  0.00    -0.453 OA
ATOM     19  C   UNL     1      15.438   8.548  20.850  0.00  0.00    +0.040 A 
ATOM     22  C   UNL     1      14.253   9.098  21.345  0.00  0.00    +0.062 A 
ATOM     23  C   UNL     1      15.416   7.673  19.750  0.00  0.00    +0.017 A 
ATOM     24  C   UNL     1      13.075   8.752  20.715  0.00  0.00    +0.167 A 
ATOM     25  C   UNL     1      13.054   7.896  19.638  0.00  0.00    +0.166 A 
ATOM     28  C   UNL     1      14.209   7.339  19.131  0.00  0.00    +0.050 A 
ATOM     30  C   UNL     1      11.024   8.507  20.071  0.00  0.00    +0.466 C 
ENDBRANCH  17  19
ENDBRANCH   9   4
TORSDOF 4
ENDMDL
MODEL 8
REMARK VINA RESULT:      -7.0     27.863     31.925
REMARK  Name = 26743405
REMARK  6 active torsions:
REMARK  status: ('A' for Active; 'I' for Inactive)
REMARK    1  A    between atoms: N_4  and  C_9
REMARK    2  A    between atoms: N_5  and  C_18
REMARK    3  A    between atoms: C_7  and  C_10
REMARK    4  A    between atoms: C_13  and  C_15
REMARK    5  A    between atoms: C_14  and  C_16
REMARK    6  A    between atoms: C_17  and  C_19
REMARK                            x       y       z     vdW  Elec       q    Type
REMARK                         _______ _______ _______ _____ _____    ______ ____
ROOT
ATOM      7  C   UNL     1     -13.661   8.072  32.612  0.00  0.00    +0.047 C 
ATOM      8  C   UNL     1     -13.548   6.840  33.529  0.00  0.00    +0.039 C 
ATOM      9  C   UNL     1     -14.973   6.276  33.667  0.00  0.00    +0.097 C 
ATOM     11  C   UNL     1     -15.107   8.445  32.756  0.00  0.00    -0.021 C 
ATOM     12  C   UNL     1     -15.818   7.463  33.322  0.00  0.00    -0.009 C 
ENDROOT
BRANCH   7  10
ATOM      5  N   UNL     1     -11.139  10.712  32.912  0.00  0.00    -0.236 N 
ATOM      6  N   UNL     1     -11.554  10.733  34.190  0.00  0.00    -0.171 NA
ATOM     10  C   UNL     1     -12.687   9.172  32.967  0.00  0.00    +0.003 A 
ATOM     13  C   UNL     1     -11.787   9.795  32.137  0.00  0.00    +0.046 A 
ATOM     14  C   UNL     1     -12.499   9.790  34.218  0.00  0.00    +0.064 A 
ATOM     15  C   UNL     1     -11.497   9.597  30.702  0.00  0.00    +0.066 C 
ATOM     16  C   UNL     1     -13.207   9.511  35.479  0.00  0.00    +0.068 C 
BRANCH   5  18
ATOM     18  C   UNL     1     -10.131  11.583  32.497  0.00  0.00    +0.066 A 
ATOM     20  C   UNL     1      -8.795  11.281  32.762  0.00  0.00    +0.028 A 
ATOM     21  C   UNL     1     -10.458  12.755  31.815  0.00  0.00    +0.028 A 
ATOM     26  C   UNL     1      -7.787  12.151  32.347  0.00  0.00    +0.002 A 
ATOM     27  C   UNL     1      -9.451  13.624  31.399  0.00  0.00    +0.002 A 
ATOM     29  C   UNL     1      -8.115  13.323  31.665  0.00  0.00    +0.000 A 
ENDBRANCH   5  18
ENDBRANCH   7  10
BRANCH   9   4
ATOM      1  O   UNL     1     -14.527   3.481  34.188  0.00  0.00    -0.270 OA
ATOM      4  N   UNL     1     -15.214   5.166  32.752  0.00  0.00    -0.305 N 
ATOM     17  C   UNL     1     -14.971   3.829  33.079  0.00  0.00    +0.245 C 
ATOM     31  H   UNL     1     -15.491   5.410  31.807  0.00  0.00    +0.150 HD
BRANCH  17  19
ATOM      2  O   UNL     1     -16.876   2.393  28.795  0.00  0.00    -0.453 OA
ATOM      3  O   UNL     1     -16.061   0.141  29.064  0.00  0.00    -0.453 OA
ATOM     19  C   UNL     1     -15.238   2.838  32.048  0.00  0.00    +0.040 A 
ATOM     22  C   UNL     1     -15.964   3.200  30.911  0.00  0.00    +0.062 A 
ATOM     23  C   UNL     1     -14.764   1.524  32.205  0.00  0.00    +0.017 A 
ATOM     24  C   UNL     1     -16.192   2.227  29.960  0.00  0.00    +0.167 A 
ATOM     25  C   UNL     1     -15.727   0.941  30.114  0.00  0.00    +0.166 A 
ATOM     28  C   UNL     1     -15.008   0.557  31.227  0.00  0.00    +0.050 A 
ATOM     30  C   UNL     1     -16.788   1.068  28.233  0.00  0.00    +0.466 C 
ENDBRANCH  17  19
ENDBRANCH   9   4
TORSDOF 4
ENDMDL
MODEL 9
REMARK VINA RESULT:      -6.9     28.412     31.572
REMARK  Name = 26743405
REMARK  6 active torsions:
REMARK  status: ('A' for Active; 'I' for Inactive)
REMARK    1  A    between atoms: N_4  and  C_9
REMARK    2  A    between atoms: N_5  and  C_18
REMARK    3  A    between atoms: C_7  and  C_10
REMARK    4  A    between atoms: C_13  and  C_15
REMARK    5  A    between atoms: C_14  and  C_16
REMARK    6  A    between atoms: C_17  and  C_19
REMARK                            x       y       z     vdW  Elec       q    Type
REMARK                         _______ _______ _______ _____ _____    ______ ____
ROOT
ATOM      7  C   UNL     1      -5.369  -9.764   9.067  0.00  0.00    +0.047 C 
ATOM      8  C   UNL     1      -4.857 -11.096   9.648  0.00  0.00    +0.039 C 
ATOM      9  C   UNL     1      -3.682 -10.737  10.573  0.00  0.00    +0.097 C 
ATOM     11  C   UNL     1      -4.175  -8.869   9.225  0.00  0.00    -0.021 C 
ATOM     12  C   UNL     1      -3.265  -9.398  10.050  0.00  0.00    -0.009 C 
ENDROOT
BRANCH   7  10
ATOM      5  N   UNL     1      -6.992  -9.645   5.785  0.00  0.00    -0.236 N 
ATOM      6  N   UNL     1      -6.097 -10.604   5.492  0.00  0.00    -0.171 NA
ATOM     10  C   UNL     1      -5.883  -9.888   7.651  0.00  0.00    +0.003 A 
ATOM     13  C   UNL     1      -6.905  -9.181   7.065  0.00  0.00    +0.046 A 
ATOM     14  C   UNL     1      -5.423 -10.749   6.637  0.00  0.00    +0.064 A 
ATOM     15  C   UNL     1      -7.785  -8.126   7.607  0.00  0.00    +0.066 C 
ATOM     16  C   UNL     1      -4.331 -11.735   6.714  0.00  0.00    +0.068 C 
BRANCH   5  18
ATOM     18  C   UNL     1      -7.893  -9.219   4.809  0.00  0.00    +0.066 A 
ATOM     20  C   UNL     1      -7.559  -8.157   3.967  0.00  0.00    +0.028 A 
ATOM     21  C   UNL     1      -9.126  -9.855   4.672  0.00  0.00    +0.028 A 
ATOM     26  C   UNL     1      -8.460  -7.731   2.991  0.00  0.00    +0.002 A 
ATOM     27  C   UNL     1     -10.026  -9.430   3.695  0.00  0.00    +0.002 A 
ATOM     29  C   UNL     1      -9.693  -8.369   2.854  0.00  0.00    +0.000 A 
ENDBRANCH   5  18
ENDBRANCH   7  10
BRANCH   9   4
ATOM      1  O   UNL     1      -1.965 -10.860  12.879  0.00  0.00    -0.270 OA
ATOM      4  N   UNL     1      -4.088 -10.661  11.971  0.00  0.00    -0.305 N 
ATOM     17  C   UNL     1      -3.192 -10.729  13.042  0.00  0.00    +0.245 C 
ATOM     31  H   UNL     1      -5.087 -10.644  12.152  0.00  0.00    +0.150 HD
BRANCH  17  19
ATOM      2  O   UNL     1      -6.831  -9.841  16.206  0.00  0.00    -0.453 OA
ATOM      3  O   UNL     1      -5.470 -10.438  18.104  0.00  0.00    -0.453 OA
ATOM     19  C   UNL     1      -3.756 -10.664  14.381  0.00  0.00    +0.040 A 
ATOM     22  C   UNL     1      -5.081 -10.257  14.555  0.00  0.00    +0.062 A 
ATOM     23  C   UNL     1      -2.962 -11.011  15.488  0.00  0.00    +0.017 A 
ATOM     24  C   UNL     1      -5.572 -10.212  15.844  0.00  0.00    +0.167 A 
ATOM     25  C   UNL     1      -4.795 -10.552  16.927  0.00  0.00    +0.166 A 
ATOM     28  C   UNL     1      -3.484 -10.957  16.783  0.00  0.00    +0.050 A 
ATOM     30  C   UNL     1      -6.758  -9.987  17.639  0.00  0.00    +0.466 C 
ENDBRANCH  17  19
ENDBRANCH   9   4
TORSDOF 4
ENDMDL
MODEL 10
REMARK VINA RESULT:      -6.9     29.263     31.402
REMARK  Name = 26743405
REMARK  6 active torsions:
REMARK  status: ('A' for Active; 'I' for Inactive)
REMARK    1  A    between atoms: N_4  and  C_9
REMARK    2  A    between atoms: N_5  and  C_18
REMARK    3  A    between atoms: C_7  and  C_10
REMARK    4  A    between atoms: C_13  and  C_15
REMARK    5  A    between atoms: C_14  and  C_16
REMARK    6  A    between atoms: C_17  and  C_19
REMARK                            x       y       z     vdW  Elec       q    Type
REMARK                         _______ _______ _______ _____ _____    ______ ____
ROOT
ATOM      7  C   UNL     1      -3.589 -11.451  11.394  0.00  0.00    +0.047 C 
ATOM      8  C   UNL     1      -4.956 -11.146  10.753  0.00  0.00    +0.039 C 
ATOM      9  C   UNL     1      -4.709 -10.027   9.727  0.00  0.00    +0.097 C 
ATOM     11  C   UNL     1      -2.827 -10.184  11.135  0.00  0.00    -0.021 C 
ATOM     12  C   UNL     1      -3.435  -9.418  10.224  0.00  0.00    -0.009 C 
ENDROOT
BRANCH   7  10
ATOM      5  N   UNL     1      -4.239 -11.995  14.958  0.00  0.00    -0.236 N 
ATOM      6  N   UNL     1      -3.280 -12.927  14.820  0.00  0.00    -0.171 NA
ATOM     10  C   UNL     1      -3.685 -11.844  12.850  0.00  0.00    +0.003 A 
ATOM     13  C   UNL     1      -4.519 -11.318  13.807  0.00  0.00    +0.046 A 
ATOM     14  C   UNL     1      -2.946 -12.830  13.531  0.00  0.00    +0.064 A 
ATOM     15  C   UNL     1      -5.538 -10.251  13.721  0.00  0.00    +0.066 C 
ATOM     16  C   UNL     1      -1.901 -13.713  12.985  0.00  0.00    +0.068 C 
BRANCH   5  18
ATOM     18  C   UNL     1      -4.841 -11.800  16.201  0.00  0.00    +0.066 A 
ATOM     20  C   UNL     1      -5.971 -12.539  16.552  0.00  0.00    +0.028 A 
ATOM     21  C   UNL     1      -4.313 -10.869  17.095  0.00  0.00    +0.028 A 
ATOM     26  C   UNL     1      -6.574 -12.346  17.795  0.00  0.00    +0.002 A 
ATOM     27  C   UNL     1      -4.914 -10.676  18.338  0.00  0.00    +0.002 A 
ATOM     29  C   UNL     1      -6.044 -11.414  18.689  0.00  0.00    +0.000 A 
ENDBRANCH   5  18
ENDBRANCH   7  10
BRANCH   9   4
ATOM      1  O   UNL     1      -6.728 -10.122   7.678  0.00  0.00    -0.270 OA
ATOM      4  N   UNL     1      -4.558 -10.549   8.374  0.00  0.00    -0.305 N 
ATOM     17  C   UNL     1      -5.591 -10.561   7.430  0.00  0.00    +0.245 C 
ATOM     31  H   UNL     1      -3.674 -10.998   8.157  0.00  0.00    +0.150 HD
BRANCH  17  19
ATOM      2  O   UNL     1      -2.669 -12.906   4.266  0.00  0.00    -0.453 OA
ATOM      3  O   UNL     1      -4.316 -12.810   2.509  0.00  0.00    -0.453 OA
ATOM     19  C   UNL     1      -5.290 -11.140   6.130  0.00  0.00    +0.040 A 
ATOM     22  C   UNL     1      -4.051 -11.746   5.911  0.00  0.00    +0.062 A 
ATOM     23  C   UNL     1      -6.250 -11.083   5.104  0.00  0.00    +0.017 A 
ATOM     24  C   UNL     1      -3.812 -12.281   4.662  0.00  0.00    +0.167 A 
ATOM     25  C   UNL     1      -4.752 -12.226   3.659  0.00  0.00    +0.166 A 
ATOM     28  C   UNL     1      -5.983 -11.633   3.849  0.00  0.00    +0.050 A 
ATOM     30  C   UNL     1      -2.996 -13.239   2.902  0.00  0.00    +0.466 C 
ENDBRANCH  17  19
ENDBRANCH   9   4
TORSDOF 4
ENDMDL
