MODEL 1
REMARK VINA RESULT:      -7.9      0.000      0.000
REMARK  Name = 51136846
REMARK  5 active torsions:
REMARK  status: ('A' for Active; 'I' for Inactive)
REMARK    1  A    between atoms: N_3  and  C_10
REMARK    2  A    between atoms: N_8  and  C_31
REMARK    3  A    between atoms: C_11  and  C_19
REMARK    4  A    between atoms: C_20  and  C_22
REMARK    5  A    between atoms: C_21  and  C_27
REMARK                            x       y       z     vdW  Elec       q    Type
REMARK                         _______ _______ _______ _____ _____    ______ ____
ROOT
ATOM      1  O   UNL     1      20.947   6.050  23.123  0.00  0.00    -0.336 OA
ATOM      5  N   UNL     1      20.643   6.271  20.915  0.00  0.00    -0.190 NA
ATOM      6  N   UNL     1      19.583   6.311  22.942  0.00  0.00    -0.056 NA
ATOM     19  C   UNL     1      21.496   6.045  21.881  0.00  0.00    +0.245 A 
ATOM     21  C   UNL     1      19.481   6.428  21.615  0.00  0.00    +0.204 A 
ENDROOT
BRANCH  21  27
ATOM      7  N   UNL     1      14.677   7.432  18.998  0.00  0.00    -0.313 N 
ATOM      8  N   UNL     1      12.204   7.709  17.595  0.00  0.00    -0.302 NA
ATOM      9  N   UNL     1      16.749   6.293  19.096  0.00  0.00    -0.240 NA
ATOM     23  C   UNL     1      14.645   7.326  17.534  0.00  0.00    +0.122 C 
ATOM     24  C   UNL     1      13.410   7.156  19.682  0.00  0.00    +0.122 C 
ATOM     25  C   UNL     1      13.466   8.116  16.964  0.00  0.00    +0.103 C 
ATOM     26  C   UNL     1      12.269   7.951  19.041  0.00  0.00    +0.103 C 
ATOM     27  C   UNL     1      18.237   6.703  20.957  0.00  0.00    +0.041 A 
ATOM     28  C   UNL     1      15.888   7.175  19.651  0.00  0.00    +0.121 A 
ATOM     29  C   UNL     1      17.325   7.604  21.497  0.00  0.00    +0.016 A 
ATOM     30  C   UNL     1      17.904   6.078  19.766  0.00  0.00    +0.124 A 
ATOM     31  C   UNL     1      11.079   8.431  17.004  0.00  0.00    +0.105 C 
ATOM     32  C   UNL     1      16.126   7.851  20.837  0.00  0.00    +0.044 A 
ENDBRANCH  21  27
BRANCH  19  11
ATOM      3  N   UNL     1      23.323   4.715  20.836  0.00  0.00    -0.288 NA
ATOM     11  C   UNL     1      22.986   5.779  21.803  0.00  0.00    +0.146 C 
ATOM     12  C   UNL     1      24.663   5.022  20.335  0.00  0.00    +0.085 C 
ATOM     13  C   UNL     1      23.783   7.008  21.326  0.00  0.00    +0.030 C 
ATOM     16  C   UNL     1      24.584   6.521  20.126  0.00  0.00    +0.017 C 
BRANCH   3  10
ATOM      2  O   UNL     1      25.731   0.492  24.600  0.00  0.00    -0.276 OA
ATOM      4  N   UNL     1      24.503   1.128  22.734  0.00  0.00    -0.302 N 
ATOM     10  C   UNL     1      23.244   3.373  21.408  0.00  0.00    +0.060 C 
ATOM     14  C   UNL     1      24.190   2.425  20.660  0.00  0.00    +0.038 C 
ATOM     15  C   UNL     1      23.600   3.416  22.900  0.00  0.00    +0.038 C 
ATOM     17  C   UNL     1      24.196   1.037  21.302  0.00  0.00    +0.109 C 
ATOM     18  C   UNL     1      23.617   2.010  23.497  0.00  0.00    +0.109 C 
ATOM     20  C   UNL     1      25.516   0.427  23.388  0.00  0.00    +0.212 C 
ATOM     22  C   UNL     1      26.387  -0.458  22.532  0.00  0.00    +0.109 C 
ENDBRANCH   3  10
ENDBRANCH  19  11
TORSDOF 3
ENDMDL
MODEL 2
REMARK VINA RESULT:      -7.9      3.484     11.221
REMARK  Name = 51136846
REMARK  5 active torsions:
REMARK  status: ('A' for Active; 'I' for Inactive)
REMARK    1  A    between atoms: N_3  and  C_10
REMARK    2  A    between atoms: N_8  and  C_31
REMARK    3  A    between atoms: C_11  and  C_19
REMARK    4  A    between atoms: C_20  and  C_22
REMARK    5  A    between atoms: C_21  and  C_27
REMARK                            x       y       z     vdW  Elec       q    Type
REMARK                         _______ _______ _______ _____ _____    ______ ____
ROOT
ATOM      1  O   UNL     1      14.453   6.887  19.152  0.00  0.00    -0.336 OA
ATOM      5  N   UNL     1      15.676   7.741  20.823  0.00  0.00    -0.190 NA
ATOM      6  N   UNL     1      15.722   6.305  19.042  0.00  0.00    -0.056 NA
ATOM     19  C   UNL     1      14.513   7.719  20.225  0.00  0.00    +0.245 A 
ATOM     21  C   UNL     1      16.386   6.857  20.062  0.00  0.00    +0.204 A 
ENDROOT
BRANCH  21  27
ATOM      7  N   UNL     1      21.700   5.592  21.105  0.00  0.00    -0.313 N 
ATOM      8  N   UNL     1      24.449   4.874  21.405  0.00  0.00    -0.302 NA
ATOM      9  N   UNL     1      19.666   5.107  19.997  0.00  0.00    -0.240 NA
ATOM     23  C   UNL     1      22.101   4.179  21.065  0.00  0.00    +0.122 C 
ATOM     24  C   UNL     1      22.752   6.559  20.777  0.00  0.00    +0.122 C 
ATOM     25  C   UNL     1      23.390   3.965  21.861  0.00  0.00    +0.103 C 
ATOM     26  C   UNL     1      24.021   6.267  21.582  0.00  0.00    +0.103 C 
ATOM     27  C   UNL     1      17.758   6.550  20.346  0.00  0.00    +0.041 A 
ATOM     28  C   UNL     1      20.363   5.903  20.839  0.00  0.00    +0.121 A 
ATOM     29  C   UNL     1      18.507   7.345  21.206  0.00  0.00    +0.016 A 
ATOM     30  C   UNL     1      18.379   5.452  19.771  0.00  0.00    +0.124 A 
ATOM     31  C   UNL     1      25.691   4.622  22.135  0.00  0.00    +0.105 C 
ATOM     32  C   UNL     1      19.835   7.022  21.463  0.00  0.00    +0.044 A 
ENDBRANCH  21  27
BRANCH  19  11
ATOM      3  N   UNL     1      12.203   8.331  19.527  0.00  0.00    -0.288 NA
ATOM     11  C   UNL     1      13.246   8.478  20.562  0.00  0.00    +0.146 C 
ATOM     12  C   UNL     1      10.918   8.453  20.215  0.00  0.00    +0.085 C 
ATOM     13  C   UNL     1      12.582   7.978  21.859  0.00  0.00    +0.030 C 
ATOM     16  C   UNL     1      11.153   7.632  21.467  0.00  0.00    +0.017 C 
BRANCH   3  10
ATOM      2  O   UNL     1      15.206  10.104  14.463  0.00  0.00    -0.276 OA
ATOM      4  N   UNL     1      13.925  10.529  16.354  0.00  0.00    -0.302 N 
ATOM     10  C   UNL     1      12.337   9.294  18.436  0.00  0.00    +0.060 C 
ATOM     14  C   UNL     1      13.440  10.309  18.762  0.00  0.00    +0.038 C 
ATOM     15  C   UNL     1      12.653   8.563  17.125  0.00  0.00    +0.038 C 
ATOM     17  C   UNL     1      13.664  11.269  17.594  0.00  0.00    +0.109 C 
ATOM     18  C   UNL     1      12.891   9.557  15.990  0.00  0.00    +0.109 C 
ATOM     20  C   UNL     1      15.027  10.714  15.520  0.00  0.00    +0.212 C 
ATOM     22  C   UNL     1      16.048  11.730  15.966  0.00  0.00    +0.109 C 
ENDBRANCH   3  10
ENDBRANCH  19  11
TORSDOF 3
ENDMDL
MODEL 3
REMARK VINA RESULT:      -7.8      4.336     11.587
REMARK  Name = 51136846
REMARK  5 active torsions:
REMARK  status: ('A' for Active; 'I' for Inactive)
REMARK    1  A    between atoms: N_3  and  C_10
REMARK    2  A    between atoms: N_8  and  C_31
REMARK    3  A    between atoms: C_11  and  C_19
REMARK    4  A    between atoms: C_20  and  C_22
REMARK    5  A    between atoms: C_21  and  C_27
REMARK                            x       y       z     vdW  Elec       q    Type
REMARK                         _______ _______ _______ _____ _____    ______ ____
ROOT
ATOM      1  O   UNL     1      14.000   7.139  19.459  0.00  0.00    -0.336 OA
ATOM      5  N   UNL     1      15.730   8.487  19.915  0.00  0.00    -0.190 NA
ATOM      6  N   UNL     1      15.100   6.300  19.681  0.00  0.00    -0.056 NA
ATOM     19  C   UNL     1      14.459   8.408  19.615  0.00  0.00    +0.245 A 
ATOM     21  C   UNL     1      16.081   7.168  19.945  0.00  0.00    +0.204 A 
ENDROOT
BRANCH  21  27
ATOM      7  N   UNL     1      21.269   5.482  21.027  0.00  0.00    -0.313 N 
ATOM      8  N   UNL     1      23.953   4.555  21.345  0.00  0.00    -0.302 NA
ATOM      9  N   UNL     1      19.225   5.185  19.871  0.00  0.00    -0.240 NA
ATOM     23  C   UNL     1      21.567   4.046  20.944  0.00  0.00    +0.122 C 
ATOM     24  C   UNL     1      22.395   6.379  20.748  0.00  0.00    +0.122 C 
ATOM     25  C   UNL     1      22.822   3.711  21.752  0.00  0.00    +0.103 C 
ATOM     26  C   UNL     1      23.624   5.969  21.562  0.00  0.00    +0.103 C 
ATOM     27  C   UNL     1      17.421   6.751  20.239  0.00  0.00    +0.041 A 
ATOM     28  C   UNL     1      19.963   5.900  20.750  0.00  0.00    +0.121 A 
ATOM     29  C   UNL     1      18.211   7.461  21.138  0.00  0.00    +0.016 A 
ATOM     30  C   UNL     1      17.971   5.631  19.637  0.00  0.00    +0.124 A 
ATOM     31  C   UNL     1      25.160   4.189  22.084  0.00  0.00    +0.105 C 
ATOM     32  C   UNL     1      19.507   7.033  21.404  0.00  0.00    +0.044 A 
ENDBRANCH  21  27
BRANCH  19  11
ATOM      3  N   UNL     1      13.742  10.704  20.255  0.00  0.00    -0.288 NA
ATOM     11  C   UNL     1      13.446   9.519  19.426  0.00  0.00    +0.146 C 
ATOM     12  C   UNL     1      13.217  11.860  19.528  0.00  0.00    +0.085 C 
ATOM     13  C   UNL     1      13.413  10.051  17.981  0.00  0.00    +0.030 C 
ATOM     16  C   UNL     1      13.638  11.552  18.105  0.00  0.00    +0.017 C 
BRANCH   3  10
ATOM      2  O   UNL     1       9.878  12.926  24.490  0.00  0.00    -0.276 OA
ATOM      4  N   UNL     1      11.816  11.817  23.849  0.00  0.00    -0.302 N 
ATOM     10  C   UNL     1      13.195  10.611  21.607  0.00  0.00    +0.060 C 
ATOM     14  C   UNL     1      13.889  11.622  22.528  0.00  0.00    +0.038 C 
ATOM     15  C   UNL     1      11.681  10.863  21.579  0.00  0.00    +0.038 C 
ATOM     17  C   UNL     1      13.267  11.610  23.924  0.00  0.00    +0.109 C 
ATOM     18  C   UNL     1      11.104  10.865  22.994  0.00  0.00    +0.109 C 
ATOM     20  C   UNL     1      11.103  12.795  24.542  0.00  0.00    +0.212 C 
ATOM     22  C   UNL     1      11.910  13.738  25.399  0.00  0.00    +0.109 C 
ENDBRANCH   3  10
ENDBRANCH  19  11
TORSDOF 3
ENDMDL
MODEL 4
REMARK VINA RESULT:      -7.5      1.670      2.374
REMARK  Name = 51136846
REMARK  5 active torsions:
REMARK  status: ('A' for Active; 'I' for Inactive)
REMARK    1  A    between atoms: N_3  and  C_10
REMARK    2  A    between atoms: N_8  and  C_31
REMARK    3  A    between atoms: C_11  and  C_19
REMARK    4  A    between atoms: C_20  and  C_22
REMARK    5  A    between atoms: C_21  and  C_27
REMARK                            x       y       z     vdW  Elec       q    Type
REMARK                         _______ _______ _______ _____ _____    ______ ____
ROOT
ATOM      1  O   UNL     1      22.479   5.831  22.654  0.00  0.00    -0.336 OA
ATOM      5  N   UNL     1      21.555   5.068  20.762  0.00  0.00    -0.190 NA
ATOM      6  N   UNL     1      21.200   6.397  22.590  0.00  0.00    -0.056 NA
ATOM     19  C   UNL     1      22.607   5.064  21.540  0.00  0.00    +0.245 A 
ATOM     21  C   UNL     1      20.717   5.900  21.447  0.00  0.00    +0.204 A 
ENDROOT
BRANCH  21  27
ATOM      7  N   UNL     1      15.637   7.054  19.499  0.00  0.00    -0.313 N 
ATOM      8  N   UNL     1      13.001   7.406  18.455  0.00  0.00    -0.302 NA
ATOM      9  N   UNL     1      17.639   5.797  19.365  0.00  0.00    -0.240 NA
ATOM     23  C   UNL     1      15.383   6.872  18.064  0.00  0.00    +0.122 C 
ATOM     24  C   UNL     1      14.473   6.891  20.374  0.00  0.00    +0.122 C 
ATOM     25  C   UNL     1      14.175   7.701  17.624  0.00  0.00    +0.103 C 
ATOM     26  C   UNL     1      13.293   7.719  19.859  0.00  0.00    +0.103 C 
ATOM     27  C   UNL     1      19.405   6.215  20.962  0.00  0.00    +0.041 A 
ATOM     28  C   UNL     1      16.916   6.759  19.983  0.00  0.00    +0.121 A 
ATOM     29  C   UNL     1      18.632   7.197  21.571  0.00  0.00    +0.016 A 
ATOM     30  C   UNL     1      18.867   5.549  19.872  0.00  0.00    +0.124 A 
ATOM     31  C   UNL     1      11.840   8.162  17.991  0.00  0.00    +0.105 C 
ATOM     32  C   UNL     1      17.363   7.480  21.078  0.00  0.00    +0.044 A 
ENDBRANCH  21  27
BRANCH  19  11
ATOM      3  N   UNL     1      23.785   2.871  21.541  0.00  0.00    -0.288 NA
ATOM     11  C   UNL     1      23.923   4.332  21.373  0.00  0.00    +0.146 C 
ATOM     12  C   UNL     1      24.823   2.260  20.712  0.00  0.00    +0.085 C 
ATOM     13  C   UNL     1      24.525   4.508  19.966  0.00  0.00    +0.030 C 
ATOM     16  C   UNL     1      24.748   3.094  19.449  0.00  0.00    +0.017 C 
BRANCH   3  10
ATOM      2  O   UNL     1      23.330  -1.686  25.643  0.00  0.00    -0.276 OA
ATOM      4  N   UNL     1      23.222   0.552  25.029  0.00  0.00    -0.302 N 
ATOM     10  C   UNL     1      23.872   2.443  22.935  0.00  0.00    +0.060 C 
ATOM     14  C   UNL     1      22.470   2.382  23.556  0.00  0.00    +0.038 C 
ATOM     15  C   UNL     1      24.556   1.073  23.023  0.00  0.00    +0.038 C 
ATOM     17  C   UNL     1      22.527   1.844  24.986  0.00  0.00    +0.109 C 
ATOM     18  C   UNL     1      24.572   0.562  24.462  0.00  0.00    +0.109 C 
ATOM     20  C   UNL     1      22.712  -0.621  25.587  0.00  0.00    +0.212 C 
ATOM     22  C   UNL     1      21.313  -0.549  26.147  0.00  0.00    +0.109 C 
ENDBRANCH   3  10
ENDBRANCH  19  11
TORSDOF 3
ENDMDL
MODEL 5
REMARK VINA RESULT:      -7.4      4.505     12.058
REMARK  Name = 51136846
REMARK  5 active torsions:
REMARK  status: ('A' for Active; 'I' for Inactive)
REMARK    1  A    between atoms: N_3  and  C_10
REMARK    2  A    between atoms: N_8  and  C_31
REMARK    3  A    between atoms: C_11  and  C_19
REMARK    4  A    between atoms: C_20  and  C_22
REMARK    5  A    between atoms: C_21  and  C_27
REMARK                            x       y       z     vdW  Elec       q    Type
REMARK                         _______ _______ _______ _____ _____    ______ ____
ROOT
ATOM      1  O   UNL     1      15.222   9.631  20.796  0.00  0.00    -0.336 OA
ATOM      5  N   UNL     1      15.564   7.577  21.623  0.00  0.00    -0.190 NA
ATOM      6  N   UNL     1      16.568   9.332  20.552  0.00  0.00    -0.056 NA
ATOM     19  C   UNL     1      14.705   8.546  21.429  0.00  0.00    +0.245 A 
ATOM     21  C   UNL     1      16.694   8.105  21.068  0.00  0.00    +0.204 A 
ENDROOT
BRANCH  21  27
ATOM      7  N   UNL     1      21.532   5.362  21.044  0.00  0.00    -0.313 N 
ATOM      8  N   UNL     1      24.040   4.014  21.270  0.00  0.00    -0.302 NA
ATOM      9  N   UNL     1      20.228   7.196  21.779  0.00  0.00    -0.240 NA
ATOM     23  C   UNL     1      22.771   6.134  21.198  0.00  0.00    +0.122 C 
ATOM     24  C   UNL     1      21.581   3.980  21.530  0.00  0.00    +0.122 C 
ATOM     25  C   UNL     1      23.965   5.346  20.656  0.00  0.00    +0.103 C 
ATOM     26  C   UNL     1      22.815   3.260  20.978  0.00  0.00    +0.103 C 
ATOM     27  C   UNL     1      17.932   7.382  21.047  0.00  0.00    +0.041 A 
ATOM     28  C   UNL     1      20.318   6.058  21.054  0.00  0.00    +0.121 A 
ATOM     29  C   UNL     1      18.062   6.207  20.314  0.00  0.00    +0.016 A 
ATOM     30  C   UNL     1      19.034   7.830  21.757  0.00  0.00    +0.124 A 
ATOM     31  C   UNL     1      25.215   3.291  20.785  0.00  0.00    +0.105 C 
ATOM     32  C   UNL     1      19.275   5.527  20.312  0.00  0.00    +0.044 A 
ENDBRANCH  21  27
BRANCH  19  11
ATOM      3  N   UNL     1      12.546   9.758  21.171  0.00  0.00    -0.288 NA
ATOM     11  C   UNL     1      13.239   8.619  21.806  0.00  0.00    +0.146 C 
ATOM     12  C   UNL     1      11.151   9.352  21.004  0.00  0.00    +0.085 C 
ATOM     13  C   UNL     1      12.448   7.377  21.353  0.00  0.00    +0.030 C 
ATOM     16  C   UNL     1      11.296   7.923  20.520  0.00  0.00    +0.017 C 
BRANCH   3  10
ATOM      2  O   UNL     1      10.297  13.463  25.531  0.00  0.00    -0.276 OA
ATOM      4  N   UNL     1      11.491  13.067  23.578  0.00  0.00    -0.302 N 
ATOM     10  C   UNL     1      12.670  11.001  21.929  0.00  0.00    +0.060 C 
ATOM     14  C   UNL     1      11.748  12.074  21.335  0.00  0.00    +0.038 C 
ATOM     15  C   UNL     1      12.325  10.754  23.403  0.00  0.00    +0.038 C 
ATOM     17  C   UNL     1      11.789  13.354  22.170  0.00  0.00    +0.109 C 
ATOM     18  C   UNL     1      12.355  12.059  24.196  0.00  0.00    +0.109 C 
ATOM     20  C   UNL     1      10.504  13.696  24.338  0.00  0.00    +0.212 C 
ATOM     22  C   UNL     1       9.654  14.719  23.629  0.00  0.00    +0.109 C 
ENDBRANCH   3  10
ENDBRANCH  19  11
TORSDOF 3
ENDMDL
MODEL 6
REMARK VINA RESULT:      -7.3      2.153      3.062
REMARK  Name = 51136846
REMARK  5 active torsions:
REMARK  status: ('A' for Active; 'I' for Inactive)
REMARK    1  A    between atoms: N_3  and  C_10
REMARK    2  A    between atoms: N_8  and  C_31
REMARK    3  A    between atoms: C_11  and  C_19
REMARK    4  A    between atoms: C_20  and  C_22
REMARK    5  A    between atoms: C_21  and  C_27
REMARK                            x       y       z     vdW  Elec       q    Type
REMARK                         _______ _______ _______ _____ _____    ______ ____
ROOT
ATOM      1  O   UNL     1      22.698   6.553  20.701  0.00  0.00    -0.336 OA
ATOM      5  N   UNL     1      21.021   5.184  21.277  0.00  0.00    -0.190 NA
ATOM      6  N   UNL     1      21.515   7.259  20.449  0.00  0.00    -0.056 NA
ATOM     19  C   UNL     1      22.317   5.342  21.186  0.00  0.00    +0.245 A 
ATOM     21  C   UNL     1      20.570   6.387  20.814  0.00  0.00    +0.204 A 
ENDROOT
BRANCH  21  27
ATOM      7  N   UNL     1      15.152   7.610  20.539  0.00  0.00    -0.313 N 
ATOM      8  N   UNL     1      12.432   8.476  20.418  0.00  0.00    -0.302 NA
ATOM      9  N   UNL     1      17.298   8.035  21.443  0.00  0.00    -0.240 NA
ATOM     23  C   UNL     1      14.499   8.156  21.736  0.00  0.00    +0.122 C 
ATOM     24  C   UNL     1      14.566   8.015  19.257  0.00  0.00    +0.122 C 
ATOM     25  C   UNL     1      12.986   7.939  21.667  0.00  0.00    +0.103 C 
ATOM     26  C   UNL     1      13.050   7.803  19.268  0.00  0.00    +0.103 C 
ATOM     27  C   UNL     1      19.170   6.684  20.727  0.00  0.00    +0.041 A 
ATOM     28  C   UNL     1      16.516   7.308  20.614  0.00  0.00    +0.121 A 
ATOM     29  C   UNL     1      18.334   5.958  19.886  0.00  0.00    +0.016 A 
ATOM     30  C   UNL     1      18.608   7.705  21.478  0.00  0.00    +0.124 A 
ATOM     31  C   UNL     1      10.980   8.312  20.388  0.00  0.00    +0.105 C 
ATOM     32  C   UNL     1      16.981   6.269  19.823  0.00  0.00    +0.044 A 
ENDBRANCH  21  27
BRANCH  19  11
ATOM      3  N   UNL     1      22.921   3.071  22.006  0.00  0.00    -0.288 NA
ATOM     11  C   UNL     1      23.429   4.377  21.543  0.00  0.00    +0.146 C 
ATOM     12  C   UNL     1      23.935   2.081  21.644  0.00  0.00    +0.085 C 
ATOM     13  C   UNL     1      24.332   4.042  20.341  0.00  0.00    +0.030 C 
ATOM     16  C   UNL     1      24.318   2.523  20.246  0.00  0.00    +0.017 C 
BRANCH   3  10
ATOM      2  O   UNL     1      24.973   3.433  27.791  0.00  0.00    -0.276 OA
ATOM      4  N   UNL     1      23.467   2.701  26.181  0.00  0.00    -0.302 N 
ATOM     10  C   UNL     1      22.616   3.047  23.435  0.00  0.00    +0.060 C 
ATOM     14  C   UNL     1      22.915   1.659  24.015  0.00  0.00    +0.038 C 
ATOM     15  C   UNL     1      23.436   4.120  24.165  0.00  0.00    +0.038 C 
ATOM     17  C   UNL     1      22.695   1.637  25.528  0.00  0.00    +0.109 C 
ATOM     18  C   UNL     1      23.205   4.050  25.674  0.00  0.00    +0.109 C 
ATOM     20  C   UNL     1      24.363   2.517  27.234  0.00  0.00    +0.212 C 
ATOM     22  C   UNL     1      24.580   1.098  27.697  0.00  0.00    +0.109 C 
ENDBRANCH   3  10
ENDBRANCH  19  11
TORSDOF 3
ENDMDL
MODEL 7
REMARK VINA RESULT:      -7.2     28.179     31.871
REMARK  Name = 51136846
REMARK  5 active torsions:
REMARK  status: ('A' for Active; 'I' for Inactive)
REMARK    1  A    between atoms: N_3  and  C_10
REMARK    2  A    between atoms: N_8  and  C_31
REMARK    3  A    between atoms: C_11  and  C_19
REMARK    4  A    between atoms: C_20  and  C_22
REMARK    5  A    between atoms: C_21  and  C_27
REMARK                            x       y       z     vdW  Elec       q    Type
REMARK                         _______ _______ _______ _____ _____    ______ ____
ROOT
ATOM      1  O   UNL     1      -2.657 -11.975  12.410  0.00  0.00    -0.336 OA
ATOM      5  N   UNL     1      -3.992 -10.279  11.812  0.00  0.00    -0.190 NA
ATOM      6  N   UNL     1      -3.053 -12.238  11.093  0.00  0.00    -0.056 NA
ATOM     19  C   UNL     1      -3.254 -10.805  12.756  0.00  0.00    +0.245 A 
ATOM     21  C   UNL     1      -3.838 -11.194  10.810  0.00  0.00    +0.204 A 
ENDROOT
BRANCH  21  27
ATOM      7  N   UNL     1      -6.313 -10.491   5.879  0.00  0.00    -0.313 N 
ATOM      8  N   UNL     1      -7.398  -9.981   3.286  0.00  0.00    -0.302 NA
ATOM      9  N   UNL     1      -5.071  -9.600   7.686  0.00  0.00    -0.240 NA
ATOM     23  C   UNL     1      -6.868  -9.170   5.560  0.00  0.00    +0.122 C 
ATOM     24  C   UNL     1      -5.875 -11.289   4.730  0.00  0.00    +0.122 C 
ATOM     25  C   UNL     1      -7.929  -9.284   4.464  0.00  0.00    +0.103 C 
ATOM     26  C   UNL     1      -6.968 -11.335   3.659  0.00  0.00    +0.103 C 
ATOM     27  C   UNL     1      -4.483 -11.036   9.539  0.00  0.00    +0.041 A 
ATOM     28  C   UNL     1      -5.689 -10.661   7.120  0.00  0.00    +0.121 A 
ATOM     29  C   UNL     1      -5.129 -12.104   8.926  0.00  0.00    +0.016 A 
ATOM     30  C   UNL     1      -4.482  -9.816   8.883  0.00  0.00    +0.124 A 
ATOM     31  C   UNL     1      -8.402 -10.036   2.226  0.00  0.00    +0.105 C 
ATOM     32  C   UNL     1      -5.746 -11.921   7.693  0.00  0.00    +0.044 A 
ENDBRANCH  21  27
BRANCH  19  11
ATOM      3  N   UNL     1      -3.359 -11.264  15.200  0.00  0.00    -0.288 NA
ATOM     11  C   UNL     1      -2.978 -10.294  14.155  0.00  0.00    +0.146 C 
ATOM     12  C   UNL     1      -2.464 -11.026  16.332  0.00  0.00    +0.085 C 
ATOM     13  C   UNL     1      -1.482 -10.021  14.402  0.00  0.00    +0.030 C 
ATOM     16  C   UNL     1      -1.130 -10.832  15.641  0.00  0.00    +0.017 C 
BRANCH   3  10
ATOM      2  O   UNL     1      -7.522 -10.633  19.681  0.00  0.00    -0.276 OA
ATOM      4  N   UNL     1      -6.844 -11.381  17.589  0.00  0.00    -0.302 N 
ATOM     10  C   UNL     1      -4.767 -11.172  15.583  0.00  0.00    +0.060 C 
ATOM     14  C   UNL     1      -5.267 -12.534  16.083  0.00  0.00    +0.038 C 
ATOM     15  C   UNL     1      -4.946 -10.104  16.670  0.00  0.00    +0.038 C 
ATOM     17  C   UNL     1      -6.709 -12.439  16.580  0.00  0.00    +0.109 C 
ATOM     18  C   UNL     1      -6.395 -10.057  17.153  0.00  0.00    +0.109 C 
ATOM     20  C   UNL     1      -7.386 -11.546  18.863  0.00  0.00    +0.212 C 
ATOM     22  C   UNL     1      -7.822 -12.941  19.236  0.00  0.00    +0.109 C 
ENDBRANCH   3  10
ENDBRANCH  19  11
TORSDOF 3
ENDMDL
MODEL 8
REMARK VINA RESULT:      -7.1     28.596     32.374
REMARK  Name = 51136846
REMARK  5 active torsions:
REMARK  status: ('A' for Active; 'I' for Inactive)
REMARK    1  A    between atoms: N_3  and  C_10
REMARK    2  A    between atoms: N_8  and  C_31
REMARK    3  A    between atoms: C_11  and  C_19
REMARK    4  A    between atoms: C_20  and  C_22
REMARK    5  A    between atoms: C_21  and  C_27
REMARK                            x       y       z     vdW  Elec       q    Type
REMARK                         _______ _______ _______ _____ _____    ______ ____
ROOT
ATOM      1  O   UNL     1      -3.145 -10.682  14.511  0.00  0.00    -0.336 OA
ATOM      5  N   UNL     1      -5.264 -10.605  13.786  0.00  0.00    -0.190 NA
ATOM      6  N   UNL     1      -3.948 -10.646  15.658  0.00  0.00    -0.056 NA
ATOM     19  C   UNL     1      -3.999 -10.654  13.454  0.00  0.00    +0.245 A 
ATOM     21  C   UNL     1      -5.183 -10.601  15.149  0.00  0.00    +0.204 A 
ENDROOT
BRANCH  21  27
ATOM      7  N   UNL     1      -9.677 -10.402  18.419  0.00  0.00    -0.313 N 
ATOM      8  N   UNL     1     -11.862 -10.141  20.241  0.00  0.00    -0.302 NA
ATOM      9  N   UNL     1      -7.322 -10.413  18.184  0.00  0.00    -0.240 NA
ATOM     23  C   UNL     1      -9.582 -10.971  19.770  0.00  0.00    +0.122 C 
ATOM     24  C   UNL     1     -10.641  -9.309  18.258  0.00  0.00    +0.122 C 
ATOM     25  C   UNL     1     -10.973 -11.308  20.310  0.00  0.00    +0.103 C 
ATOM     26  C   UNL     1     -11.999  -9.699  18.848  0.00  0.00    +0.103 C 
ATOM     27  C   UNL     1      -6.356 -10.552  15.973  0.00  0.00    +0.041 A 
ATOM     28  C   UNL     1      -8.542 -10.453  17.603  0.00  0.00    +0.121 A 
ATOM     29  C   UNL     1      -7.628 -10.590  15.411  0.00  0.00    +0.016 A 
ATOM     30  C   UNL     1      -6.258 -10.463  17.352  0.00  0.00    +0.124 A 
ATOM     31  C   UNL     1     -13.171 -10.458  20.809  0.00  0.00    +0.105 C 
ATOM     32  C   UNL     1      -8.747 -10.541  16.235  0.00  0.00    +0.044 A 
ENDBRANCH  21  27
BRANCH  19  11
ATOM      3  N   UNL     1      -3.787  -9.550  11.233  0.00  0.00    -0.288 NA
ATOM     11  C   UNL     1      -3.368 -10.687  12.077  0.00  0.00    +0.146 C 
ATOM     12  C   UNL     1      -2.679  -9.285  10.316  0.00  0.00    +0.085 C 
ATOM     13  C   UNL     1      -1.832 -10.592  12.126  0.00  0.00    +0.030 C 
ATOM     16  C   UNL     1      -1.478  -9.412  11.231  0.00  0.00    +0.017 C 
BRANCH   3  10
ATOM      2  O   UNL     1      -7.568  -8.016   6.633  0.00  0.00    -0.276 OA
ATOM      4  N   UNL     1      -7.137  -8.888   8.743  0.00  0.00    -0.302 N 
ATOM     10  C   UNL     1      -5.042  -9.793  10.524  0.00  0.00    +0.060 C 
ATOM     14  C   UNL     1      -6.109  -8.791  10.982  0.00  0.00    +0.038 C 
ATOM     15  C   UNL     1      -4.819  -9.682   9.010  0.00  0.00    +0.038 C 
ATOM     17  C   UNL     1      -7.401  -8.963  10.184  0.00  0.00    +0.109 C 
ATOM     18  C   UNL     1      -6.136  -9.838   8.252  0.00  0.00    +0.109 C 
ATOM     20  C   UNL     1      -7.781  -8.034   7.848  0.00  0.00    +0.212 C 
ATOM     22  C   UNL     1      -8.797  -7.085   8.432  0.00  0.00    +0.109 C 
ENDBRANCH   3  10
ENDBRANCH  19  11
TORSDOF 3
ENDMDL
MODEL 9
REMARK VINA RESULT:      -7.0     28.390     34.121
REMARK  Name = 51136846
REMARK  5 active torsions:
REMARK  status: ('A' for Active; 'I' for Inactive)
REMARK    1  A    between atoms: N_3  and  C_10
REMARK    2  A    between atoms: N_8  and  C_31
REMARK    3  A    between atoms: C_11  and  C_19
REMARK    4  A    between atoms: C_20  and  C_22
REMARK    5  A    between atoms: C_21  and  C_27
REMARK                            x       y       z     vdW  Elec       q    Type
REMARK                         _______ _______ _______ _____ _____    ______ ____
ROOT
ATOM      1  O   UNL     1      -6.376  -9.898   5.452  0.00  0.00    -0.336 OA
ATOM      5  N   UNL     1      -7.172  -9.274   7.451  0.00  0.00    -0.190 NA
ATOM      6  N   UNL     1      -5.383 -10.220   6.385  0.00  0.00    -0.056 NA
ATOM     19  C   UNL     1      -7.394  -9.346   6.163  0.00  0.00    +0.245 A 
ATOM     21  C   UNL     1      -5.925  -9.823   7.539  0.00  0.00    +0.204 A 
ENDROOT
BRANCH  21  27
ATOM      7  N   UNL     1      -3.347 -10.428  12.430  0.00  0.00    -0.313 N 
ATOM      8  N   UNL     1      -2.013 -10.980  14.895  0.00  0.00    -0.302 NA
ATOM      9  N   UNL     1      -4.879 -11.235  10.816  0.00  0.00    -0.240 NA
ATOM     23  C   UNL     1      -4.052 -11.136  13.507  0.00  0.00    +0.122 C 
ATOM     24  C   UNL     1      -1.884 -10.506  12.472  0.00  0.00    +0.122 C 
ATOM     25  C   UNL     1      -3.465 -10.763  14.869  0.00  0.00    +0.103 C 
ATOM     26  C   UNL     1      -1.366 -10.154  13.868  0.00  0.00    +0.103 C 
ATOM     27  C   UNL     1      -5.249  -9.957   8.797  0.00  0.00    +0.041 A 
ATOM     28  C   UNL     1      -4.000 -10.281  11.201  0.00  0.00    +0.121 A 
ATOM     29  C   UNL     1      -4.339  -8.998   9.228  0.00  0.00    +0.016 A 
ATOM     30  C   UNL     1      -5.481 -11.048   9.620  0.00  0.00    +0.124 A 
ATOM     31  C   UNL     1      -1.472 -10.672  16.218  0.00  0.00    +0.105 C 
ATOM     32  C   UNL     1      -3.699  -9.156  10.452  0.00  0.00    +0.044 A 
ENDBRANCH  21  27
BRANCH  19  11
ATOM      3  N   UNL     1      -8.977  -7.500   5.628  0.00  0.00    -0.288 NA
ATOM     11  C   UNL     1      -8.609  -8.907   5.372  0.00  0.00    +0.146 C 
ATOM     12  C   UNL     1      -9.610  -7.009   4.405  0.00  0.00    +0.085 C 
ATOM     13  C   UNL     1      -8.384  -8.981   3.850  0.00  0.00    +0.030 C 
ATOM     16  C   UNL     1      -8.710  -7.587   3.332  0.00  0.00    +0.017 C 
BRANCH   3  10
ATOM      2  O   UNL     1     -13.376  -4.272   8.462  0.00  0.00    -0.276 OA
ATOM      4  N   UNL     1     -11.522  -5.672   8.464  0.00  0.00    -0.302 N 
ATOM     10  C   UNL     1      -9.838  -7.336   6.797  0.00  0.00    +0.060 C 
ATOM     14  C   UNL     1      -9.244  -6.287   7.746  0.00  0.00    +0.038 C 
ATOM     15  C   UNL     1     -11.249  -6.922   6.357  0.00  0.00    +0.038 C 
ATOM     17  C   UNL     1     -10.177  -6.028   8.930  0.00  0.00    +0.109 C 
ATOM     18  C   UNL     1     -12.140  -6.652   7.567  0.00  0.00    +0.109 C 
ATOM     20  C   UNL     1     -12.230  -4.530   8.839  0.00  0.00    +0.212 C 
ATOM     22  C   UNL     1     -11.524  -3.571   9.763  0.00  0.00    +0.109 C 
ENDBRANCH   3  10
ENDBRANCH  19  11
TORSDOF 3
ENDMDL
MODEL 10
REMARK VINA RESULT:      -6.9     17.407     22.327
REMARK  Name = 51136846
REMARK  5 active torsions:
REMARK  status: ('A' for Active; 'I' for Inactive)
REMARK    1  A    between atoms: N_3  and  C_10
REMARK    2  A    between atoms: N_8  and  C_31
REMARK    3  A    between atoms: C_11  and  C_19
REMARK    4  A    between atoms: C_20  and  C_22
REMARK    5  A    between atoms: C_21  and  C_27
REMARK                            x       y       z     vdW  Elec       q    Type
REMARK                         _______ _______ _______ _____ _____    ______ ____
ROOT
ATOM      1  O   UNL     1      10.125   4.340   5.581  0.00  0.00    -0.336 OA
ATOM      5  N   UNL     1      10.923   5.874   4.158  0.00  0.00    -0.190 NA
ATOM      6  N   UNL     1      10.281   3.687   4.352  0.00  0.00    -0.056 NA
ATOM     19  C   UNL     1      10.524   5.622   5.379  0.00  0.00    +0.245 A 
ATOM     21  C   UNL     1      10.755   4.656   3.564  0.00  0.00    +0.204 A 
ENDROOT
BRANCH  21  27
ATOM      7  N   UNL     1      12.057   3.789  -1.773  0.00  0.00    -0.313 N 
ATOM      8  N   UNL     1      12.835   3.134  -4.443  0.00  0.00    -0.302 NA
ATOM      9  N   UNL     1      12.634   3.648   0.519  0.00  0.00    -0.240 NA
ATOM     23  C   UNL     1      13.472   3.847  -2.164  0.00  0.00    +0.122 C 
ATOM     24  C   UNL     1      11.209   2.918  -2.592  0.00  0.00    +0.122 C 
ATOM     25  C   UNL     1      13.604   4.113  -3.664  0.00  0.00    +0.103 C 
ATOM     26  C   UNL     1      11.414   3.213  -4.080  0.00  0.00    +0.103 C 
ATOM     27  C   UNL     1      11.070   4.442   2.182  0.00  0.00    +0.041 A 
ATOM     28  C   UNL     1      11.737   4.005  -0.428  0.00  0.00    +0.121 A 
ATOM     29  C   UNL     1      10.173   4.796   1.179  0.00  0.00    +0.016 A 
ATOM     30  C   UNL     1      12.276   3.876   1.802  0.00  0.00    +0.124 A 
ATOM     31  C   UNL     1      13.012   3.364  -5.876  0.00  0.00    +0.105 C 
ATOM     32  C   UNL     1      10.505   4.577  -0.153  0.00  0.00    +0.044 A 
ENDBRANCH  21  27
BRANCH  19  11
ATOM      3  N   UNL     1       9.187   7.305   6.634  0.00  0.00    -0.288 NA
ATOM     11  C   UNL     1      10.453   6.548   6.576  0.00  0.00    +0.146 C 
ATOM     12  C   UNL     1       8.924   7.564   8.049  0.00  0.00    +0.085 C 
ATOM     13  C   UNL     1      10.518   5.791   7.915  0.00  0.00    +0.030 C 
ATOM     16  C   UNL     1       9.279   6.234   8.682  0.00  0.00    +0.017 C 
BRANCH   3  10
ATOM      2  O   UNL     1       7.065  13.012   5.780  0.00  0.00    -0.276 OA
ATOM      4  N   UNL     1       7.980  11.019   5.016  0.00  0.00    -0.302 N 
ATOM     10  C   UNL     1       9.216   8.535   5.846  0.00  0.00    +0.060 C 
ATOM     14  C   UNL     1       8.042   8.558   4.859  0.00  0.00    +0.038 C 
ATOM     15  C   UNL     1       9.159   9.755   6.775  0.00  0.00    +0.038 C 
ATOM     17  C   UNL     1       7.996   9.879   4.091  0.00  0.00    +0.109 C 
ATOM     18  C   UNL     1       9.092  11.051   5.969  0.00  0.00    +0.109 C 
ATOM     20  C   UNL     1       7.036  12.045   5.016  0.00  0.00    +0.212 C 
ATOM     22  C   UNL     1       5.921  11.937   4.006  0.00  0.00    +0.109 C 
ENDBRANCH   3  10
ENDBRANCH  19  11
TORSDOF 3
ENDMDL
