MODEL 1
REMARK VINA RESULT:      -7.1      0.000      0.000
REMARK  Name = 51136998
REMARK  4 active torsions:
REMARK  status: ('A' for Active; 'I' for Inactive)
REMARK    1  A    between atoms: O_3  and  C_12
REMARK    2  A    between atoms: O_3  and  C_19
REMARK    3  A    between atoms: C_6  and  C_10
REMARK    4  A    between atoms: C_11  and  C_12
REMARK                            x       y       z     vdW  Elec       q    Type
REMARK                         _______ _______ _______ _____ _____    ______ ____
ROOT
ATOM      2  O   UNL     1      11.274  11.847  21.652  0.00  0.00    -0.272 OA
ATOM      4  N   UNL     1      11.221   9.548  21.865  0.00  0.00    -0.298 N 
ATOM      6  C   UNL     1      11.578   7.762  20.336  0.00  0.00    +0.063 C 
ATOM      7  C   UNL     1      10.936   7.217  21.621  0.00  0.00    +0.031 C 
ATOM      8  C   UNL     1      11.268   9.261  20.437  0.00  0.00    +0.118 C 
ATOM      9  C   UNL     1      11.172   8.317  22.648  0.00  0.00    +0.108 C 
ATOM     11  C   UNL     1      11.234  10.839  22.360  0.00  0.00    +0.253 C 
ENDROOT
BRANCH   6  10
ATOM      1  S   UNL     1      13.688   6.936  18.715  0.00  0.00    -0.072 S 
ATOM      5  N   UNL     1      13.874   7.354  21.253  0.00  0.00    -0.244 NA
ATOM     10  C   UNL     1      13.043   7.377  20.237  0.00  0.00    +0.084 A 
ATOM     13  C   UNL     1      15.227   6.684  19.451  0.00  0.00    +0.039 A 
ATOM     14  C   UNL     1      15.131   6.959  20.818  0.00  0.00    +0.078 A 
ATOM     15  C   UNL     1      16.433   6.273  18.860  0.00  0.00    +0.017 A 
ATOM     16  C   UNL     1      16.283   6.817  21.621  0.00  0.00    +0.029 A 
ATOM     17  C   UNL     1      17.559   6.140  19.677  0.00  0.00    +0.001 A 
ATOM     18  C   UNL     1      17.487   6.408  21.040  0.00  0.00    +0.002 A 
ENDBRANCH   6  10
BRANCH  11  12
ATOM     12  C   UNL     1      11.187  10.961  23.861  0.00  0.00    +0.324 C 
BRANCH  12   3
ATOM      3  O   UNL     1      10.157  11.873  24.159  0.00  0.00    -0.483 OA
BRANCH   3  19
ATOM     19  C   UNL     1      10.525  13.097  24.671  0.00  0.00    +0.121 A 
ATOM     20  C   UNL     1      11.501  13.173  25.666  0.00  0.00    +0.045 A 
ATOM     21  C   UNL     1       9.922  14.261  24.195  0.00  0.00    +0.045 A 
ATOM     22  C   UNL     1      11.873  14.413  26.184  0.00  0.00    +0.004 A 
ATOM     23  C   UNL     1      10.295  15.501  24.714  0.00  0.00    +0.004 A 
ATOM     24  C   UNL     1      11.270  15.577  25.709  0.00  0.00    +0.000 A 
ENDBRANCH   3  19
ENDBRANCH  12   3
ENDBRANCH  11  12
TORSDOF 4
ENDMDL
MODEL 2
REMARK VINA RESULT:      -6.8      1.594      2.485
REMARK  Name = 51136998
REMARK  4 active torsions:
REMARK  status: ('A' for Active; 'I' for Inactive)
REMARK    1  A    between atoms: O_3  and  C_12
REMARK    2  A    between atoms: O_3  and  C_19
REMARK    3  A    between atoms: C_6  and  C_10
REMARK    4  A    between atoms: C_11  and  C_12
REMARK                            x       y       z     vdW  Elec       q    Type
REMARK                         _______ _______ _______ _____ _____    ______ ____
ROOT
ATOM      2  O   UNL     1      12.245  11.333  20.344  0.00  0.00    -0.272 OA
ATOM      4  N   UNL     1      12.418   9.031  20.271  0.00  0.00    -0.298 N 
ATOM      6  C   UNL     1      13.608   7.531  18.861  0.00  0.00    +0.063 C 
ATOM      7  C   UNL     1      12.573   6.750  19.685  0.00  0.00    +0.031 C 
ATOM      8  C   UNL     1      13.085   8.969  18.977  0.00  0.00    +0.118 C 
ATOM      9  C   UNL     1      12.217   7.696  20.825  0.00  0.00    +0.108 C 
ATOM     11  C   UNL     1      12.053  10.230  20.857  0.00  0.00    +0.253 C 
ENDROOT
BRANCH   6  10
ATOM      1  S   UNL     1      15.707   8.353  20.497  0.00  0.00    -0.072 S 
ATOM      5  N   UNL     1      15.777   6.280  18.964  0.00  0.00    -0.244 NA
ATOM     10  C   UNL     1      15.021   7.280  19.355  0.00  0.00    +0.084 A 
ATOM     13  C   UNL     1      17.156   7.419  20.489  0.00  0.00    +0.039 A 
ATOM     14  C   UNL     1      17.005   6.345  19.606  0.00  0.00    +0.078 A 
ATOM     15  C   UNL     1      18.342   7.620  21.214  0.00  0.00    +0.017 A 
ATOM     16  C   UNL     1      18.078   5.444  19.444  0.00  0.00    +0.029 A 
ATOM     17  C   UNL     1      19.390   6.713  21.035  0.00  0.00    +0.001 A 
ATOM     18  C   UNL     1      19.262   5.639  20.162  0.00  0.00    +0.002 A 
ENDBRANCH   6  10
BRANCH  11  12
ATOM     12  C   UNL     1      11.377  10.118  22.200  0.00  0.00    +0.324 C 
BRANCH  12   3
ATOM      3  O   UNL     1      12.126  10.905  23.094  0.00  0.00    -0.483 OA
BRANCH   3  19
ATOM     19  C   UNL     1      11.479  11.952  23.710  0.00  0.00    +0.121 A 
ATOM     20  C   UNL     1      11.026  13.034  22.954  0.00  0.00    +0.045 A 
ATOM     21  C   UNL     1      11.276  11.931  25.090  0.00  0.00    +0.045 A 
ATOM     22  C   UNL     1      10.371  14.094  23.579  0.00  0.00    +0.004 A 
ATOM     23  C   UNL     1      10.621  12.993  25.714  0.00  0.00    +0.004 A 
ATOM     24  C   UNL     1      10.168  14.074  24.959  0.00  0.00    +0.000 A 
ENDBRANCH   3  19
ENDBRANCH  12   3
ENDBRANCH  11  12
TORSDOF 4
ENDMDL
MODEL 3
REMARK VINA RESULT:      -6.6     27.049     28.585
REMARK  Name = 51136998
REMARK  4 active torsions:
REMARK  status: ('A' for Active; 'I' for Inactive)
REMARK    1  A    between atoms: O_3  and  C_12
REMARK    2  A    between atoms: O_3  and  C_19
REMARK    3  A    between atoms: C_6  and  C_10
REMARK    4  A    between atoms: C_11  and  C_12
REMARK                            x       y       z     vdW  Elec       q    Type
REMARK                         _______ _______ _______ _____ _____    ______ ____
ROOT
ATOM      2  O   UNL     1      -7.038 -12.478  16.967  0.00  0.00    -0.272 OA
ATOM      4  N   UNL     1      -5.040 -11.382  16.590  0.00  0.00    -0.298 N 
ATOM      6  C   UNL     1      -3.255 -11.731  15.059  0.00  0.00    +0.063 C 
ATOM      7  C   UNL     1      -2.812 -10.740  16.147  0.00  0.00    +0.031 C 
ATOM      8  C   UNL     1      -4.472 -12.398  15.713  0.00  0.00    +0.118 C 
ATOM      9  C   UNL     1      -4.120 -10.264  16.768  0.00  0.00    +0.108 C 
ATOM     11  C   UNL     1      -6.299 -11.509  17.148  0.00  0.00    +0.253 C 
ENDROOT
BRANCH   6  10
ATOM      1  S   UNL     1      -2.167 -10.745  12.691  0.00  0.00    -0.072 S 
ATOM      5  N   UNL     1      -4.668 -10.623  13.311  0.00  0.00    -0.244 NA
ATOM     10  C   UNL     1      -3.494 -11.033  13.732  0.00  0.00    +0.084 A 
ATOM     13  C   UNL     1      -3.231  -9.999  11.557  0.00  0.00    +0.039 A 
ATOM     14  C   UNL     1      -4.534 -10.028  12.064  0.00  0.00    +0.078 A 
ATOM     15  C   UNL     1      -2.934  -9.431  10.308  0.00  0.00    +0.017 A 
ATOM     16  C   UNL     1      -5.574  -9.468  11.293  0.00  0.00    +0.029 A 
ATOM     17  C   UNL     1      -3.983  -8.883   9.564  0.00  0.00    +0.001 A 
ATOM     18  C   UNL     1      -5.286  -8.900  10.048  0.00  0.00    +0.002 A 
ENDBRANCH   6  10
BRANCH  11  12
ATOM     12  C   UNL     1      -6.739 -10.367  18.027  0.00  0.00    +0.324 C 
BRANCH  12   3
ATOM      3  O   UNL     1      -7.417  -9.457  17.194  0.00  0.00    -0.483 OA
BRANCH   3  19
ATOM     19  C   UNL     1      -8.764  -9.280  17.415  0.00  0.00    +0.121 A 
ATOM     20  C   UNL     1      -9.431  -8.201  16.830  0.00  0.00    +0.045 A 
ATOM     21  C   UNL     1      -9.464 -10.178  18.220  0.00  0.00    +0.045 A 
ATOM     22  C   UNL     1     -10.795  -8.022  17.053  0.00  0.00    +0.004 A 
ATOM     23  C   UNL     1     -10.829  -9.997  18.443  0.00  0.00    +0.004 A 
ATOM     24  C   UNL     1     -11.494  -8.919  17.860  0.00  0.00    +0.000 A 
ENDBRANCH   3  19
ENDBRANCH  12   3
ENDBRANCH  11  12
TORSDOF 4
ENDMDL
MODEL 4
REMARK VINA RESULT:      -6.5     27.038     29.228
REMARK  Name = 51136998
REMARK  4 active torsions:
REMARK  status: ('A' for Active; 'I' for Inactive)
REMARK    1  A    between atoms: O_3  and  C_12
REMARK    2  A    between atoms: O_3  and  C_19
REMARK    3  A    between atoms: C_6  and  C_10
REMARK    4  A    between atoms: C_11  and  C_12
REMARK                            x       y       z     vdW  Elec       q    Type
REMARK                         _______ _______ _______ _____ _____    ______ ____
ROOT
ATOM      2  O   UNL     1      -2.625 -10.371  16.067  0.00  0.00    -0.272 OA
ATOM      4  N   UNL     1      -4.371 -11.755  16.677  0.00  0.00    -0.298 N 
ATOM      6  C   UNL     1      -5.918 -11.726  18.483  0.00  0.00    +0.063 C 
ATOM      7  C   UNL     1      -5.977 -13.090  17.778  0.00  0.00    +0.031 C 
ATOM      8  C   UNL     1      -4.569 -11.177  18.000  0.00  0.00    +0.118 C 
ATOM      9  C   UNL     1      -5.318 -12.838  16.428  0.00  0.00    +0.108 C 
ATOM     11  C   UNL     1      -3.402 -11.291  15.806  0.00  0.00    +0.253 C 
ENDROOT
BRANCH   6  10
ATOM      1  S   UNL     1      -6.998  -9.569  17.090  0.00  0.00    -0.072 S 
ATOM      5  N   UNL     1      -8.334 -11.091  18.687  0.00  0.00    -0.244 NA
ATOM     10  C   UNL     1      -7.143 -10.885  18.174  0.00  0.00    +0.084 A 
ATOM     13  C   UNL     1      -8.674  -9.220  17.305  0.00  0.00    +0.039 A 
ATOM     14  C   UNL     1      -9.223 -10.145  18.198  0.00  0.00    +0.078 A 
ATOM     15  C   UNL     1      -9.446  -8.201  16.724  0.00  0.00    +0.017 A 
ATOM     16  C   UNL     1     -10.593 -10.045  18.519  0.00  0.00    +0.029 A 
ATOM     17  C   UNL     1     -10.801  -8.125  17.060  0.00  0.00    +0.001 A 
ATOM     18  C   UNL     1     -11.368  -9.034  17.946  0.00  0.00    +0.002 A 
ENDBRANCH   6  10
BRANCH  11  12
ATOM     12  C   UNL     1      -3.335 -11.994  14.474  0.00  0.00    +0.324 C 
BRANCH  12   3
ATOM      3  O   UNL     1      -2.289 -11.389  13.753  0.00  0.00    -0.483 OA
BRANCH   3  19
ATOM     19  C   UNL     1      -2.627 -10.683  12.621  0.00  0.00    +0.121 A 
ATOM     20  C   UNL     1      -1.643  -9.996  11.908  0.00  0.00    +0.045 A 
ATOM     21  C   UNL     1      -3.952 -10.654  12.186  0.00  0.00    +0.045 A 
ATOM     22  C   UNL     1      -1.985  -9.280  10.761  0.00  0.00    +0.004 A 
ATOM     23  C   UNL     1      -4.293  -9.938  11.038  0.00  0.00    +0.004 A 
ATOM     24  C   UNL     1      -3.310  -9.250  10.326  0.00  0.00    +0.000 A 
ENDBRANCH   3  19
ENDBRANCH  12   3
ENDBRANCH  11  12
TORSDOF 4
ENDMDL
MODEL 5
REMARK VINA RESULT:      -6.5     26.647     28.996
REMARK  Name = 51136998
REMARK  4 active torsions:
REMARK  status: ('A' for Active; 'I' for Inactive)
REMARK    1  A    between atoms: O_3  and  C_12
REMARK    2  A    between atoms: O_3  and  C_19
REMARK    3  A    between atoms: C_6  and  C_10
REMARK    4  A    between atoms: C_11  and  C_12
REMARK                            x       y       z     vdW  Elec       q    Type
REMARK                         _______ _______ _______ _____ _____    ______ ____
ROOT
ATOM      2  O   UNL     1      -9.940 -11.870  17.246  0.00  0.00    -0.272 OA
ATOM      4  N   UNL     1      -8.007 -11.299  18.375  0.00  0.00    -0.298 N 
ATOM      6  C   UNL     1      -5.850 -12.290  18.515  0.00  0.00    +0.063 C 
ATOM      7  C   UNL     1      -5.998 -11.224  19.611  0.00  0.00    +0.031 C 
ATOM      8  C   UNL     1      -7.312 -12.557  18.132  0.00  0.00    +0.118 C 
ATOM      9  C   UNL     1      -7.180 -10.380  19.150  0.00  0.00    +0.108 C 
ATOM     11  C   UNL     1      -9.283 -11.057  17.898  0.00  0.00    +0.253 C 
ENDROOT
BRANCH   6  10
ATOM      1  S   UNL     1      -5.502 -11.841  15.787  0.00  0.00    -0.072 S 
ATOM      5  N   UNL     1      -3.703 -11.395  17.582  0.00  0.00    -0.244 NA
ATOM     10  C   UNL     1      -4.932 -11.822  17.401  0.00  0.00    +0.084 A 
ATOM     13  C   UNL     1      -3.983 -11.223  15.254  0.00  0.00    +0.039 A 
ATOM     14  C   UNL     1      -3.146 -11.048  16.360  0.00  0.00    +0.078 A 
ATOM     15  C   UNL     1      -3.562 -10.916  13.949  0.00  0.00    +0.017 A 
ATOM     16  C   UNL     1      -1.843 -10.547  16.151  0.00  0.00    +0.029 A 
ATOM     17  C   UNL     1      -2.267 -10.422  13.771  0.00  0.00    +0.001 A 
ATOM     18  C   UNL     1      -1.418 -10.239  14.856  0.00  0.00    +0.002 A 
ENDBRANCH   6  10
BRANCH  11  12
ATOM     12  C   UNL     1      -9.855  -9.703  18.231  0.00  0.00    +0.324 C 
BRANCH  12   3
ATOM      3  O   UNL     1     -11.158  -9.675  17.699  0.00  0.00    -0.483 OA
BRANCH   3  19
ATOM     19  C   UNL     1     -11.563  -8.515  17.078  0.00  0.00    +0.121 A 
ATOM     20  C   UNL     1     -12.856  -8.415  16.561  0.00  0.00    +0.045 A 
ATOM     21  C   UNL     1     -10.682  -7.439  16.965  0.00  0.00    +0.045 A 
ATOM     22  C   UNL     1     -13.266  -7.240  15.932  0.00  0.00    +0.004 A 
ATOM     23  C   UNL     1     -11.093  -6.265  16.335  0.00  0.00    +0.004 A 
ATOM     24  C   UNL     1     -12.385  -6.165  15.819  0.00  0.00    +0.000 A 
ENDBRANCH   3  19
ENDBRANCH  12   3
ENDBRANCH  11  12
TORSDOF 4
ENDMDL
MODEL 6
REMARK VINA RESULT:      -6.4     25.955     28.339
REMARK  Name = 51136998
REMARK  4 active torsions:
REMARK  status: ('A' for Active; 'I' for Inactive)
REMARK    1  A    between atoms: O_3  and  C_12
REMARK    2  A    between atoms: O_3  and  C_19
REMARK    3  A    between atoms: C_6  and  C_10
REMARK    4  A    between atoms: C_11  and  C_12
REMARK                            x       y       z     vdW  Elec       q    Type
REMARK                         _______ _______ _______ _____ _____    ______ ____
ROOT
ATOM      2  O   UNL     1     -14.946   9.861  30.515  0.00  0.00    -0.272 OA
ATOM      4  N   UNL     1     -14.010   8.513  32.141  0.00  0.00    -0.298 N 
ATOM      6  C   UNL     1     -14.876   6.770  33.507  0.00  0.00    +0.063 C 
ATOM      7  C   UNL     1     -13.504   7.210  34.043  0.00  0.00    +0.031 C 
ATOM      8  C   UNL     1     -15.270   7.962  32.626  0.00  0.00    +0.118 C 
ATOM      9  C   UNL     1     -12.876   7.964  32.877  0.00  0.00    +0.108 C 
ATOM     11  C   UNL     1     -13.955   9.428  31.105  0.00  0.00    +0.253 C 
ENDROOT
BRANCH   6  10
ATOM      1  S   UNL     1     -14.565   4.014  33.777  0.00  0.00    -0.072 S 
ATOM      5  N   UNL     1     -14.905   5.232  31.529  0.00  0.00    -0.244 NA
ATOM     10  C   UNL     1     -14.801   5.416  32.824  0.00  0.00    +0.084 A 
ATOM     13  C   UNL     1     -14.600   3.049  32.348  0.00  0.00    +0.039 A 
ATOM     14  C   UNL     1     -14.792   3.880  31.240  0.00  0.00    +0.078 A 
ATOM     15  C   UNL     1     -14.467   1.657  32.218  0.00  0.00    +0.017 A 
ATOM     16  C   UNL     1     -14.853   3.294  29.957  0.00  0.00    +0.029 A 
ATOM     17  C   UNL     1     -14.532   1.103  30.936  0.00  0.00    +0.001 A 
ATOM     18  C   UNL     1     -14.722   1.909  29.820  0.00  0.00    +0.002 A 
ENDBRANCH   6  10
BRANCH  11  12
ATOM     12  C   UNL     1     -12.573   9.892  30.721  0.00  0.00    +0.324 C 
BRANCH  12   3
ATOM      3  O   UNL     1     -12.743  10.987  29.853  0.00  0.00    -0.483 OA
BRANCH   3  19
ATOM     19  C   UNL     1     -12.214  10.878  28.587  0.00  0.00    +0.121 A 
ATOM     20  C   UNL     1     -12.730  11.653  27.547  0.00  0.00    +0.045 A 
ATOM     21  C   UNL     1     -11.163   9.995  28.343  0.00  0.00    +0.045 A 
ATOM     22  C   UNL     1     -12.194  11.543  26.264  0.00  0.00    +0.004 A 
ATOM     23  C   UNL     1     -10.627   9.885  27.060  0.00  0.00    +0.004 A 
ATOM     24  C   UNL     1     -11.143  10.659  26.020  0.00  0.00    +0.000 A 
ENDBRANCH   3  19
ENDBRANCH  12   3
ENDBRANCH  11  12
TORSDOF 4
ENDMDL
MODEL 7
REMARK VINA RESULT:      -6.3     27.283     28.594
REMARK  Name = 51136998
REMARK  4 active torsions:
REMARK  status: ('A' for Active; 'I' for Inactive)
REMARK    1  A    between atoms: O_3  and  C_12
REMARK    2  A    between atoms: O_3  and  C_19
REMARK    3  A    between atoms: C_6  and  C_10
REMARK    4  A    between atoms: C_11  and  C_12
REMARK                            x       y       z     vdW  Elec       q    Type
REMARK                         _______ _______ _______ _____ _____    ______ ____
ROOT
ATOM      2  O   UNL     1      -8.346 -12.025  16.752  0.00  0.00    -0.272 OA
ATOM      4  N   UNL     1      -6.143 -11.383  17.020  0.00  0.00    -0.298 N 
ATOM      6  C   UNL     1      -4.094 -12.172  16.105  0.00  0.00    +0.063 C 
ATOM      7  C   UNL     1      -3.803 -11.235  17.288  0.00  0.00    +0.031 C 
ATOM      8  C   UNL     1      -5.564 -12.539  16.347  0.00  0.00    +0.118 C 
ATOM      9  C   UNL     1      -5.105 -10.469  17.484  0.00  0.00    +0.108 C 
ATOM     11  C   UNL     1      -7.509 -11.219  17.163  0.00  0.00    +0.253 C 
ENDROOT
BRANCH   6  10
ATOM      1  S   UNL     1      -2.132 -11.370  14.298  0.00  0.00    -0.072 S 
ATOM      5  N   UNL     1      -4.665 -11.031  13.949  0.00  0.00    -0.244 NA
ATOM     10  C   UNL     1      -3.768 -11.513  14.778  0.00  0.00    +0.084 A 
ATOM     13  C   UNL     1      -2.637 -10.592  12.844  0.00  0.00    +0.039 A 
ATOM     14  C   UNL     1      -4.032 -10.500  12.834  0.00  0.00    +0.078 A 
ATOM     15  C   UNL     1      -1.854 -10.099  11.787  0.00  0.00    +0.017 A 
ATOM     16  C   UNL     1      -4.663  -9.893  11.728  0.00  0.00    +0.029 A 
ATOM     17  C   UNL     1      -2.505  -9.504  10.703  0.00  0.00    +0.001 A 
ATOM     18  C   UNL     1      -3.891  -9.400  10.672  0.00  0.00    +0.002 A 
ENDBRANCH   6  10
BRANCH  11  12
ATOM     12  C   UNL     1      -7.942  -9.965  17.878  0.00  0.00    +0.324 C 
BRANCH  12   3
ATOM      3  O   UNL     1      -7.961  -8.939  16.914  0.00  0.00    -0.483 OA
BRANCH   3  19
ATOM     19  C   UNL     1      -9.190  -8.525  16.454  0.00  0.00    +0.121 A 
ATOM     20  C   UNL     1      -9.615  -8.890  15.176  0.00  0.00    +0.045 A 
ATOM     21  C   UNL     1     -10.012  -7.742  17.265  0.00  0.00    +0.045 A 
ATOM     22  C   UNL     1     -10.861  -8.471  14.710  0.00  0.00    +0.004 A 
ATOM     23  C   UNL     1     -11.257  -7.323  16.798  0.00  0.00    +0.004 A 
ATOM     24  C   UNL     1     -11.682  -7.687  15.520  0.00  0.00    +0.000 A 
ENDBRANCH   3  19
ENDBRANCH  12   3
ENDBRANCH  11  12
TORSDOF 4
ENDMDL
MODEL 8
REMARK VINA RESULT:      -6.3     15.376     17.953
REMARK  Name = 51136998
REMARK  4 active torsions:
REMARK  status: ('A' for Active; 'I' for Inactive)
REMARK    1  A    between atoms: O_3  and  C_12
REMARK    2  A    between atoms: O_3  and  C_19
REMARK    3  A    between atoms: C_6  and  C_10
REMARK    4  A    between atoms: C_11  and  C_12
REMARK                            x       y       z     vdW  Elec       q    Type
REMARK                         _______ _______ _______ _____ _____    ______ ____
ROOT
ATOM      2  O   UNL     1      15.527   6.841   3.928  0.00  0.00    -0.272 OA
ATOM      4  N   UNL     1      13.863   8.233   4.722  0.00  0.00    -0.298 N 
ATOM      6  C   UNL     1      11.488   8.151   4.626  0.00  0.00    +0.063 C 
ATOM      7  C   UNL     1      11.936   9.549   5.081  0.00  0.00    +0.031 C 
ATOM      8  C   UNL     1      12.772   7.596   3.995  0.00  0.00    +0.118 C 
ATOM      9  C   UNL     1      13.378   9.347   5.530  0.00  0.00    +0.108 C 
ATOM     11  C   UNL     1      15.170   7.790   4.629  0.00  0.00    +0.253 C 
ENDROOT
BRANCH   6  10
ATOM      1  S   UNL     1      10.083   8.181   7.031  0.00  0.00    -0.072 S 
ATOM      5  N   UNL     1      10.960   6.046   5.879  0.00  0.00    -0.244 NA
ATOM     10  C   UNL     1      10.896   7.353   5.773  0.00  0.00    +0.084 A 
ATOM     13  C   UNL     1       9.775   6.673   7.811  0.00  0.00    +0.039 A 
ATOM     14  C   UNL     1      10.322   5.641   7.042  0.00  0.00    +0.078 A 
ATOM     15  C   UNL     1       9.098   6.423   9.015  0.00  0.00    +0.017 A 
ATOM     16  C   UNL     1      10.184   4.312   7.497  0.00  0.00    +0.029 A 
ATOM     17  C   UNL     1       8.976   5.098   9.443  0.00  0.00    +0.001 A 
ATOM     18  C   UNL     1       9.512   4.055   8.695  0.00  0.00    +0.002 A 
ENDBRANCH   6  10
BRANCH  11  12
ATOM     12  C   UNL     1      16.175   8.555   5.451  0.00  0.00    +0.324 C 
BRANCH  12   3
ATOM      3  O   UNL     1      17.286   8.782   4.617  0.00  0.00    -0.483 OA
BRANCH   3  19
ATOM     19  C   UNL     1      18.525   8.428   5.104  0.00  0.00    +0.121 A 
ATOM     20  C   UNL     1      19.427   7.746   4.285  0.00  0.00    +0.045 A 
ATOM     21  C   UNL     1      18.879   8.752   6.413  0.00  0.00    +0.045 A 
ATOM     22  C   UNL     1      20.681   7.387   4.778  0.00  0.00    +0.004 A 
ATOM     23  C   UNL     1      20.134   8.393   6.905  0.00  0.00    +0.004 A 
ATOM     24  C   UNL     1      21.035   7.711   6.087  0.00  0.00    +0.000 A 
ENDBRANCH   3  19
ENDBRANCH  12   3
ENDBRANCH  11  12
TORSDOF 4
ENDMDL
MODEL 9
REMARK VINA RESULT:      -6.2     27.210     29.531
REMARK  Name = 51136998
REMARK  4 active torsions:
REMARK  status: ('A' for Active; 'I' for Inactive)
REMARK    1  A    between atoms: O_3  and  C_12
REMARK    2  A    between atoms: O_3  and  C_19
REMARK    3  A    between atoms: C_6  and  C_10
REMARK    4  A    between atoms: C_11  and  C_12
REMARK                            x       y       z     vdW  Elec       q    Type
REMARK                         _______ _______ _______ _____ _____    ______ ____
ROOT
ATOM      2  O   UNL     1     -14.533   3.621  34.093  0.00  0.00    -0.272 OA
ATOM      4  N   UNL     1     -13.914   5.709  33.320  0.00  0.00    -0.298 N 
ATOM      6  C   UNL     1     -13.996   7.887  34.269  0.00  0.00    +0.063 C 
ATOM      7  C   UNL     1     -13.717   7.993  32.762  0.00  0.00    +0.031 C 
ATOM      8  C   UNL     1     -14.556   6.464  34.388  0.00  0.00    +0.118 C 
ATOM      9  C   UNL     1     -13.248   6.597  32.373  0.00  0.00    +0.108 C 
ATOM     11  C   UNL     1     -13.954   4.327  33.265  0.00  0.00    +0.253 C 
ENDROOT
BRANCH   6  10
ATOM      1  S   UNL     1     -11.729   9.474  34.592  0.00  0.00    -0.072 S 
ATOM      5  N   UNL     1     -12.408   7.556  36.179  0.00  0.00    -0.244 NA
ATOM     10  C   UNL     1     -12.759   8.201  35.090  0.00  0.00    +0.084 A 
ATOM     13  C   UNL     1     -10.703   9.158  35.942  0.00  0.00    +0.039 A 
ATOM     14  C   UNL     1     -11.231   8.094  36.679  0.00  0.00    +0.078 A 
ATOM     15  C   UNL     1      -9.517   9.807  36.322  0.00  0.00    +0.017 A 
ATOM     16  C   UNL     1     -10.546   7.666  37.836  0.00  0.00    +0.029 A 
ATOM     17  C   UNL     1      -8.858   9.363  37.471  0.00  0.00    +0.001 A 
ATOM     18  C   UNL     1      -9.364   8.306  38.220  0.00  0.00    +0.002 A 
ENDBRANCH   6  10
BRANCH  11  12
ATOM     12  C   UNL     1     -13.234   3.702  32.098  0.00  0.00    +0.324 C 
BRANCH  12   3
ATOM      3  O   UNL     1     -13.541   2.329  32.124  0.00  0.00    -0.483 OA
BRANCH   3  19
ATOM     19  C   UNL     1     -14.364   1.845  31.132  0.00  0.00    +0.121 A 
ATOM     20  C   UNL     1     -14.905   0.563  31.238  0.00  0.00    +0.045 A 
ATOM     21  C   UNL     1     -14.659   2.637  30.022  0.00  0.00    +0.045 A 
ATOM     22  C   UNL     1     -15.738   0.073  30.233  0.00  0.00    +0.004 A 
ATOM     23  C   UNL     1     -15.492   2.146  29.017  0.00  0.00    +0.004 A 
ATOM     24  C   UNL     1     -16.032   0.864  29.122  0.00  0.00    +0.000 A 
ENDBRANCH   3  19
ENDBRANCH  12   3
ENDBRANCH  11  12
TORSDOF 4
ENDMDL
MODEL 10
REMARK VINA RESULT:      -6.1     29.696     31.357
REMARK  Name = 51136998
REMARK  4 active torsions:
REMARK  status: ('A' for Active; 'I' for Inactive)
REMARK    1  A    between atoms: O_3  and  C_12
REMARK    2  A    between atoms: O_3  and  C_19
REMARK    3  A    between atoms: C_6  and  C_10
REMARK    4  A    between atoms: C_11  and  C_12
REMARK                            x       y       z     vdW  Elec       q    Type
REMARK                         _______ _______ _______ _____ _____    ______ ____
ROOT
ATOM      2  O   UNL     1      -9.560  -7.971  38.452  0.00  0.00    -0.272 OA
ATOM      4  N   UNL     1      -8.461  -8.106  40.480  0.00  0.00    -0.298 N 
ATOM      6  C   UNL     1      -6.449  -9.166  41.175  0.00  0.00    +0.063 C 
ATOM      7  C   UNL     1      -7.255  -8.733  42.410  0.00  0.00    +0.031 C 
ATOM      8  C   UNL     1      -7.518  -9.140  40.074  0.00  0.00    +0.118 C 
ATOM      9  C   UNL     1      -8.242  -7.707  41.867  0.00  0.00    +0.108 C 
ATOM     11  C   UNL     1      -9.416  -7.597  39.617  0.00  0.00    +0.253 C 
ENDROOT
BRANCH   6  10
ATOM      1  S   UNL     1      -3.929  -8.382  42.065  0.00  0.00    -0.072 S 
ATOM      5  N   UNL     1      -5.102  -7.426  39.977  0.00  0.00    -0.244 NA
ATOM     10  C   UNL     1      -5.234  -8.282  40.963  0.00  0.00    +0.084 A 
ATOM     13  C   UNL     1      -3.089  -7.175  41.164  0.00  0.00    +0.039 A 
ATOM     14  C   UNL     1      -3.877  -6.783  40.078  0.00  0.00    +0.078 A 
ATOM     15  C   UNL     1      -1.823  -6.615  41.402  0.00  0.00    +0.017 A 
ATOM     16  C   UNL     1      -3.379  -5.797  39.200  0.00  0.00    +0.029 A 
ATOM     17  C   UNL     1      -1.353  -5.640  40.517  0.00  0.00    +0.001 A 
ATOM     18  C   UNL     1      -2.120  -5.235  39.431  0.00  0.00    +0.002 A 
ENDBRANCH   6  10
BRANCH  11  12
ATOM     12  C   UNL     1     -10.309  -6.528  40.193  0.00  0.00    +0.324 C 
BRANCH  12   3
ATOM      3  O   UNL     1     -10.402  -5.515  39.221  0.00  0.00    -0.483 OA
BRANCH   3  19
ATOM     19  C   UNL     1     -10.049  -4.240  39.600  0.00  0.00    +0.121 A 
ATOM     20  C   UNL     1      -9.281  -4.041  40.749  0.00  0.00    +0.045 A 
ATOM     21  C   UNL     1     -10.457  -3.146  38.837  0.00  0.00    +0.045 A 
ATOM     22  C   UNL     1      -8.923  -2.750  41.133  0.00  0.00    +0.004 A 
ATOM     23  C   UNL     1     -10.099  -1.855  39.223  0.00  0.00    +0.004 A 
ATOM     24  C   UNL     1      -9.333  -1.656  40.371  0.00  0.00    +0.000 A 
ENDBRANCH   3  19
ENDBRANCH  12   3
ENDBRANCH  11  12
TORSDOF 4
ENDMDL
