MODEL 1
REMARK VINA RESULT:      -7.1      0.000      0.000
REMARK  Name = 45783654
REMARK  7 active torsions:
REMARK  status: ('A' for Active; 'I' for Inactive)
REMARK    1  A    between atoms: O_2  and  C_26
REMARK    2  A    between atoms: N_4  and  C_14
REMARK    3  A    between atoms: N_8  and  C_28
REMARK    4  A    between atoms: C_10  and  C_15
REMARK    5  A    between atoms: C_14  and  C_16
REMARK    6  A    between atoms: C_19  and  C_22
REMARK    7  A    between atoms: C_23  and  C_26
REMARK                            x       y       z     vdW  Elec       q    Type
REMARK                         _______ _______ _______ _____ _____    ______ ____
ROOT
ATOM      4  N   UNL     1      12.409   8.817  20.186  0.00  0.00    -0.287 NA
ATOM     10  C   UNL     1      13.163   8.163  21.274  0.00  0.00    +0.146 C 
ATOM     11  C   UNL     1      12.174   7.153  21.884  0.00  0.00    +0.030 C 
ATOM     12  C   UNL     1      10.875   7.355  21.117  0.00  0.00    +0.017 C 
ATOM     13  C   UNL     1      10.998   8.763  20.572  0.00  0.00    +0.085 C 
ENDROOT
BRANCH  10  15
ATOM      1  O   UNL     1      14.383   6.904  19.571  0.00  0.00    -0.336 OA
ATOM      5  N   UNL     1      15.610   7.436  21.367  0.00  0.00    -0.190 NA
ATOM      6  N   UNL     1      15.660   6.380  19.339  0.00  0.00    -0.056 NA
ATOM     15  C   UNL     1      14.439   7.509  20.786  0.00  0.00    +0.245 A 
ATOM     19  C   UNL     1      16.326   6.735  20.442  0.00  0.00    +0.204 A 
BRANCH  19  22
ATOM      7  N   UNL     1      19.737   6.720  21.923  0.00  0.00    -0.237 NA
ATOM     22  C   UNL     1      17.707   6.405  20.649  0.00  0.00    +0.041 A 
ATOM     24  C   UNL     1      18.357   5.492  19.825  0.00  0.00    +0.017 A 
ATOM     25  C   UNL     1      18.434   6.986  21.674  0.00  0.00    +0.124 A 
ATOM     27  C   UNL     1      19.696   5.193  20.049  0.00  0.00    +0.047 A 
ATOM     28  C   UNL     1      20.335   5.828  21.102  0.00  0.00    +0.139 A 
BRANCH  28   8
ATOM      8  N   UNL     1      21.670   5.534  21.329  0.00  0.00    -0.290 N 
ATOM      9  N   UNL     1      23.534   5.039  22.431  0.00  0.00    -0.244 NA
ATOM     29  C   UNL     1      22.650   5.434  20.381  0.00  0.00    +0.114 A 
ATOM     30  C   UNL     1      22.249   5.288  22.543  0.00  0.00    +0.205 A 
ATOM     31  C   UNL     1      23.791   5.129  21.086  0.00  0.00    +0.130 A 
ENDBRANCH  28   8
ENDBRANCH  19  22
ENDBRANCH  10  15
BRANCH   4  14
ATOM     14  C   UNL     1      12.853  10.178  19.917  0.00  0.00    +0.120 C 
BRANCH  14  16
ATOM     16  C   UNL     1      13.329  10.343  18.498  0.00  0.00    -0.033 A 
ATOM     17  C   UNL     1      12.950   9.419  17.525  0.00  0.00    +0.006 A 
ATOM     18  C   UNL     1      14.147  11.420  18.158  0.00  0.00    +0.006 A 
ATOM     20  C   UNL     1      13.390   9.573  16.210  0.00  0.00    +0.015 A 
ATOM     21  C   UNL     1      14.588  11.573  16.843  0.00  0.00    +0.015 A 
ATOM     23  C   UNL     1      14.209  10.649  15.869  0.00  0.00    +0.059 A 
BRANCH  23  26
ATOM      3  O   UNL     1      14.252  11.652  13.697  0.00  0.00    -0.245 OA
ATOM     26  C   UNL     1      14.668  10.808  14.498  0.00  0.00    +0.337 C 
BRANCH  26   2
ATOM      2  O   UNL     1      15.635   9.910  14.165  0.00  0.00    -0.477 OA
ATOM     32  H   UNL     1      15.773   9.245  14.873  0.00  0.00    +0.295 HD
ENDBRANCH  26   2
ENDBRANCH  23  26
ENDBRANCH  14  16
ENDBRANCH   4  14
TORSDOF 7
ENDMDL
MODEL 2
REMARK VINA RESULT:      -6.9     27.269     30.419
REMARK  Name = 45783654
REMARK  7 active torsions:
REMARK  status: ('A' for Active; 'I' for Inactive)
REMARK    1  A    between atoms: O_2  and  C_26
REMARK    2  A    between atoms: N_4  and  C_14
REMARK    3  A    between atoms: N_8  and  C_28
REMARK    4  A    between atoms: C_10  and  C_15
REMARK    5  A    between atoms: C_14  and  C_16
REMARK    6  A    between atoms: C_19  and  C_22
REMARK    7  A    between atoms: C_23  and  C_26
REMARK                            x       y       z     vdW  Elec       q    Type
REMARK                         _______ _______ _______ _____ _____    ______ ____
ROOT
ATOM      4  N   UNL     1     -10.307 -11.857  19.286  0.00  0.00    -0.287 NA
ATOM     10  C   UNL     1      -9.056 -12.248  19.967  0.00  0.00    +0.146 C 
ATOM     11  C   UNL     1      -9.087 -13.787  19.990  0.00  0.00    +0.030 C 
ATOM     12  C   UNL     1     -10.419 -14.168  19.357  0.00  0.00    +0.017 C 
ATOM     13  C   UNL     1     -11.270 -12.929  19.545  0.00  0.00    +0.085 C 
ENDROOT
BRANCH  10  15
ATOM      1  O   UNL     1      -6.970 -10.978  20.052  0.00  0.00    -0.336 OA
ATOM      5  N   UNL     1      -7.449 -11.812  18.031  0.00  0.00    -0.190 NA
ATOM      6  N   UNL     1      -5.924 -10.582  19.210  0.00  0.00    -0.056 NA
ATOM     15  C   UNL     1      -7.824 -11.698  19.280  0.00  0.00    +0.245 A 
ATOM     19  C   UNL     1      -6.279 -11.111  18.036  0.00  0.00    +0.204 A 
BRANCH  19  22
ATOM      7  N   UNL     1      -5.328 -10.230  14.550  0.00  0.00    -0.237 NA
ATOM     22  C   UNL     1      -5.486 -10.959  16.850  0.00  0.00    +0.041 A 
ATOM     24  C   UNL     1      -4.157 -11.369  16.819  0.00  0.00    +0.017 A 
ATOM     25  C   UNL     1      -6.020 -10.401  15.700  0.00  0.00    +0.124 A 
ATOM     27  C   UNL     1      -3.413 -11.209  15.655  0.00  0.00    +0.047 A 
ATOM     28  C   UNL     1      -4.040 -10.640  14.558  0.00  0.00    +0.139 A 
BRANCH  28   8
ATOM      8  N   UNL     1      -3.302 -10.480  13.395  0.00  0.00    -0.290 N 
ATOM      9  N   UNL     1      -1.540 -10.244  12.065  0.00  0.00    -0.244 NA
ATOM     29  C   UNL     1      -3.801 -10.383  12.127  0.00  0.00    +0.114 A 
ATOM     30  C   UNL     1      -1.941 -10.392  13.307  0.00  0.00    +0.205 A 
ATOM     31  C   UNL     1      -2.695 -10.237  11.324  0.00  0.00    +0.130 A 
ENDBRANCH  28   8
ENDBRANCH  19  22
ENDBRANCH  10  15
BRANCH   4  14
ATOM     14  C   UNL     1     -10.808 -10.556  19.708  0.00  0.00    +0.120 C 
BRANCH  14  16
ATOM     16  C   UNL     1     -10.842  -9.572  18.569  0.00  0.00    -0.033 A 
ATOM     17  C   UNL     1     -12.060  -9.223  17.987  0.00  0.00    +0.006 A 
ATOM     18  C   UNL     1      -9.657  -9.009  18.099  0.00  0.00    +0.006 A 
ATOM     20  C   UNL     1     -12.092  -8.310  16.932  0.00  0.00    +0.015 A 
ATOM     21  C   UNL     1      -9.688  -8.097  17.043  0.00  0.00    +0.015 A 
ATOM     23  C   UNL     1     -10.906  -7.747  16.460  0.00  0.00    +0.059 A 
BRANCH  23  26
ATOM      3  O   UNL     1     -11.765  -6.792  14.441  0.00  0.00    -0.245 OA
ATOM     26  C   UNL     1     -10.939  -6.796  15.360  0.00  0.00    +0.337 C 
BRANCH  26   2
ATOM      2  O   UNL     1      -9.940  -5.874  15.439  0.00  0.00    -0.477 OA
ATOM     32  H   UNL     1     -10.112  -5.100  14.862  0.00  0.00    +0.295 HD
ENDBRANCH  26   2
ENDBRANCH  23  26
ENDBRANCH  14  16
ENDBRANCH   4  14
TORSDOF 7
ENDMDL
MODEL 3
REMARK VINA RESULT:      -6.8     27.529     30.993
REMARK  Name = 45783654
REMARK  7 active torsions:
REMARK  status: ('A' for Active; 'I' for Inactive)
REMARK    1  A    between atoms: O_2  and  C_26
REMARK    2  A    between atoms: N_4  and  C_14
REMARK    3  A    between atoms: N_8  and  C_28
REMARK    4  A    between atoms: C_10  and  C_15
REMARK    5  A    between atoms: C_14  and  C_16
REMARK    6  A    between atoms: C_19  and  C_22
REMARK    7  A    between atoms: C_23  and  C_26
REMARK                            x       y       z     vdW  Elec       q    Type
REMARK                         _______ _______ _______ _____ _____    ______ ____
ROOT
ATOM      4  N   UNL     1     -12.097 -11.711  18.299  0.00  0.00    -0.287 NA
ATOM     10  C   UNL     1     -11.205 -12.366  19.277  0.00  0.00    +0.146 C 
ATOM     11  C   UNL     1     -11.344 -13.872  18.987  0.00  0.00    +0.030 C 
ATOM     12  C   UNL     1     -12.379 -13.969  17.874  0.00  0.00    +0.017 C 
ATOM     13  C   UNL     1     -13.157 -12.675  17.997  0.00  0.00    +0.085 C 
ENDROOT
BRANCH  10  15
ATOM      1  O   UNL     1      -9.256 -11.289  20.284  0.00  0.00    -0.336 OA
ATOM      5  N   UNL     1      -8.946 -11.944  18.165  0.00  0.00    -0.190 NA
ATOM      6  N   UNL     1      -7.944 -10.930  19.954  0.00  0.00    -0.056 NA
ATOM     15  C   UNL     1      -9.775 -11.881  19.176  0.00  0.00    +0.245 A 
ATOM     19  C   UNL     1      -7.836 -11.348  18.689  0.00  0.00    +0.204 A 
BRANCH  19  22
ATOM      7  N   UNL     1      -5.579 -10.936  15.762  0.00  0.00    -0.237 NA
ATOM     22  C   UNL     1      -6.633 -11.187  17.923  0.00  0.00    +0.041 A 
ATOM     24  C   UNL     1      -5.391 -11.128  18.545  0.00  0.00    +0.017 A 
ATOM     25  C   UNL     1      -6.674 -11.088  16.543  0.00  0.00    +0.124 A 
ATOM     27  C   UNL     1      -4.242 -10.972  17.777  0.00  0.00    +0.047 A 
ATOM     28  C   UNL     1      -4.389 -10.882  16.402  0.00  0.00    +0.139 A 
BRANCH  28   8
ATOM      8  N   UNL     1      -3.247 -10.728  15.632  0.00  0.00    -0.290 N 
ATOM      9  N   UNL     1      -1.104 -10.452  15.121  0.00  0.00    -0.244 NA
ATOM     29  C   UNL     1      -3.188 -10.704  14.267  0.00  0.00    +0.114 A 
ATOM     30  C   UNL     1      -1.972 -10.574  16.100  0.00  0.00    +0.205 A 
ATOM     31  C   UNL     1      -1.855 -10.531  13.976  0.00  0.00    +0.130 A 
ENDBRANCH  28   8
ENDBRANCH  19  22
ENDBRANCH  10  15
BRANCH   4  14
ATOM     14  C   UNL     1     -12.630 -10.439  18.770  0.00  0.00    +0.120 C 
BRANCH  14  16
ATOM     16  C   UNL     1     -12.230  -9.298  17.873  0.00  0.00    -0.033 A 
ATOM     17  C   UNL     1     -10.933  -8.789  17.930  0.00  0.00    +0.006 A 
ATOM     18  C   UNL     1     -13.156  -8.751  16.985  0.00  0.00    +0.006 A 
ATOM     20  C   UNL     1     -10.562  -7.731  17.099  0.00  0.00    +0.015 A 
ATOM     21  C   UNL     1     -12.786  -7.693  16.155  0.00  0.00    +0.015 A 
ATOM     23  C   UNL     1     -11.488  -7.184  16.211  0.00  0.00    +0.059 A 
BRANCH  23  26
ATOM      3  O   UNL     1     -11.854  -5.485  14.567  0.00  0.00    -0.245 OA
ATOM     26  C   UNL     1     -11.102  -6.081  15.345  0.00  0.00    +0.337 C 
BRANCH  26   2
ATOM      2  O   UNL     1      -9.787  -5.753  15.474  0.00  0.00    -0.477 OA
ATOM     32  H   UNL     1      -9.234  -6.185  14.788  0.00  0.00    +0.295 HD
ENDBRANCH  26   2
ENDBRANCH  23  26
ENDBRANCH  14  16
ENDBRANCH   4  14
TORSDOF 7
ENDMDL
MODEL 4
REMARK VINA RESULT:      -6.8     27.743     29.766
REMARK  Name = 45783654
REMARK  7 active torsions:
REMARK  status: ('A' for Active; 'I' for Inactive)
REMARK    1  A    between atoms: O_2  and  C_26
REMARK    2  A    between atoms: N_4  and  C_14
REMARK    3  A    between atoms: N_8  and  C_28
REMARK    4  A    between atoms: C_10  and  C_15
REMARK    5  A    between atoms: C_14  and  C_16
REMARK    6  A    between atoms: C_19  and  C_22
REMARK    7  A    between atoms: C_23  and  C_26
REMARK                            x       y       z     vdW  Elec       q    Type
REMARK                         _______ _______ _______ _____ _____    ______ ____
ROOT
ATOM      4  N   UNL     1      -5.277  -9.742   8.761  0.00  0.00    -0.287 NA
ATOM     10  C   UNL     1      -6.387  -8.870   9.196  0.00  0.00    +0.146 C 
ATOM     11  C   UNL     1      -7.484  -9.074   8.135  0.00  0.00    +0.030 C 
ATOM     12  C   UNL     1      -6.877 -10.026   7.113  0.00  0.00    +0.017 C 
ATOM     13  C   UNL     1      -5.385  -9.851   7.305  0.00  0.00    +0.085 C 
ENDROOT
BRANCH  10  15
ATOM      1  O   UNL     1      -8.207  -9.264  10.778  0.00  0.00    -0.336 OA
ATOM      5  N   UNL     1      -6.164  -9.410  11.682  0.00  0.00    -0.190 NA
ATOM      6  N   UNL     1      -8.400  -9.567  12.131  0.00  0.00    -0.056 NA
ATOM     15  C   UNL     1      -6.862  -9.190  10.597  0.00  0.00    +0.245 A 
ATOM     19  C   UNL     1      -7.150  -9.636  12.597  0.00  0.00    +0.204 A 
BRANCH  19  22
ATOM      7  N   UNL     1      -7.652 -10.358  16.210  0.00  0.00    -0.237 NA
ATOM     22  C   UNL     1      -6.852  -9.930  13.969  0.00  0.00    +0.041 A 
ATOM     24  C   UNL     1      -5.539 -10.070  14.403  0.00  0.00    +0.017 A 
ATOM     25  C   UNL     1      -7.864 -10.082  14.903  0.00  0.00    +0.124 A 
ATOM     27  C   UNL     1      -5.281 -10.355  15.740  0.00  0.00    +0.047 A 
ATOM     28  C   UNL     1      -6.363 -10.488  16.594  0.00  0.00    +0.139 A 
BRANCH  28   8
ATOM      8  N   UNL     1      -6.111 -10.770  17.928  0.00  0.00    -0.290 N 
ATOM      9  N   UNL     1      -6.368 -10.796  20.134  0.00  0.00    -0.244 NA
ATOM     29  C   UNL     1      -5.066 -11.501  18.418  0.00  0.00    +0.114 A 
ATOM     30  C   UNL     1      -6.865 -10.369  18.996  0.00  0.00    +0.205 A 
ATOM     31  C   UNL     1      -5.245 -11.502  19.781  0.00  0.00    +0.130 A 
ENDBRANCH  28   8
ENDBRANCH  19  22
ENDBRANCH  10  15
BRANCH   4  14
ATOM     14  C   UNL     1      -3.968  -9.256   9.179  0.00  0.00    +0.120 C 
BRANCH  14  16
ATOM     16  C   UNL     1      -3.373 -10.113  10.265  0.00  0.00    -0.033 A 
ATOM     17  C   UNL     1      -3.807 -11.427  10.432  0.00  0.00    +0.006 A 
ATOM     18  C   UNL     1      -2.386  -9.592  11.102  0.00  0.00    +0.006 A 
ATOM     20  C   UNL     1      -3.255 -12.221  11.437  0.00  0.00    +0.015 A 
ATOM     21  C   UNL     1      -1.834 -10.386  12.108  0.00  0.00    +0.015 A 
ATOM     23  C   UNL     1      -2.269 -11.701  12.275  0.00  0.00    +0.059 A 
BRANCH  23  26
ATOM      3  O   UNL     1      -1.606 -12.216  14.515  0.00  0.00    -0.245 OA
ATOM     26  C   UNL     1      -1.693 -12.528  13.324  0.00  0.00    +0.337 C 
BRANCH  26   2
ATOM      2  O   UNL     1      -1.244 -13.725  12.854  0.00  0.00    -0.477 OA
ATOM     32  H   UNL     1      -0.361 -13.950  13.219  0.00  0.00    +0.295 HD
ENDBRANCH  26   2
ENDBRANCH  23  26
ENDBRANCH  14  16
ENDBRANCH   4  14
TORSDOF 7
ENDMDL
MODEL 5
REMARK VINA RESULT:      -6.8      3.387      5.188
REMARK  Name = 45783654
REMARK  7 active torsions:
REMARK  status: ('A' for Active; 'I' for Inactive)
REMARK    1  A    between atoms: O_2  and  C_26
REMARK    2  A    between atoms: N_4  and  C_14
REMARK    3  A    between atoms: N_8  and  C_28
REMARK    4  A    between atoms: C_10  and  C_15
REMARK    5  A    between atoms: C_14  and  C_16
REMARK    6  A    between atoms: C_19  and  C_22
REMARK    7  A    between atoms: C_23  and  C_26
REMARK                            x       y       z     vdW  Elec       q    Type
REMARK                         _______ _______ _______ _____ _____    ______ ____
ROOT
ATOM      4  N   UNL     1      12.195  11.941  23.866  0.00  0.00    -0.287 NA
ATOM     10  C   UNL     1      13.261  12.873  23.446  0.00  0.00    +0.146 C 
ATOM     11  C   UNL     1      13.763  13.509  24.755  0.00  0.00    +0.030 C 
ATOM     12  C   UNL     1      12.880  12.922  25.848  0.00  0.00    +0.017 C 
ATOM     13  C   UNL     1      11.634  12.487  25.103  0.00  0.00    +0.085 C 
ENDROOT
BRANCH  10  15
ATOM      1  O   UNL     1      14.824  12.828  21.568  0.00  0.00    -0.336 OA
ATOM      5  N   UNL     1      14.954  11.038  22.907  0.00  0.00    -0.190 NA
ATOM      6  N   UNL     1      15.823  12.010  21.028  0.00  0.00    -0.056 NA
ATOM     15  C   UNL     1      14.364  12.183  22.672  0.00  0.00    +0.245 A 
ATOM     19  C   UNL     1      15.840  10.974  21.872  0.00  0.00    +0.204 A 
BRANCH  19  22
ATOM      7  N   UNL     1      18.988   8.996  21.783  0.00  0.00    -0.237 NA
ATOM     22  C   UNL     1      16.732   9.862  21.711  0.00  0.00    +0.041 A 
ATOM     24  C   UNL     1      16.255   8.610  21.339  0.00  0.00    +0.017 A 
ATOM     25  C   UNL     1      18.094  10.002  21.919  0.00  0.00    +0.124 A 
ATOM     27  C   UNL     1      17.144   7.550  21.189  0.00  0.00    +0.047 A 
ATOM     28  C   UNL     1      18.488   7.794  21.421  0.00  0.00    +0.139 A 
BRANCH  28   8
ATOM      8  N   UNL     1      19.377   6.741  21.272  0.00  0.00    -0.290 N 
ATOM      9  N   UNL     1      21.098   5.398  21.679  0.00  0.00    -0.244 NA
ATOM     29  C   UNL     1      19.348   5.789  20.293  0.00  0.00    +0.114 A 
ATOM     30  C   UNL     1      20.445   6.464  22.080  0.00  0.00    +0.205 A 
ATOM     31  C   UNL     1      20.421   4.972  20.564  0.00  0.00    +0.130 A 
ENDBRANCH  28   8
ENDBRANCH  19  22
ENDBRANCH  10  15
BRANCH   4  14
ATOM     14  C   UNL     1      11.176  11.737  22.845  0.00  0.00    +0.120 C 
BRANCH  14  16
ATOM     16  C   UNL     1      11.323  10.401  22.166  0.00  0.00    -0.033 A 
ATOM     17  C   UNL     1      11.935  10.319  20.916  0.00  0.00    +0.006 A 
ATOM     18  C   UNL     1      10.847   9.247  22.787  0.00  0.00    +0.006 A 
ATOM     20  C   UNL     1      12.072   9.081  20.287  0.00  0.00    +0.015 A 
ATOM     21  C   UNL     1      10.982   8.009  22.157  0.00  0.00    +0.015 A 
ATOM     23  C   UNL     1      11.595   7.927  20.907  0.00  0.00    +0.059 A 
BRANCH  23  26
ATOM      3  O   UNL     1      12.331   6.436  19.186  0.00  0.00    -0.245 OA
ATOM     26  C   UNL     1      11.738   6.636  20.251  0.00  0.00    +0.337 C 
BRANCH  26   2
ATOM      2  O   UNL     1      11.135   5.631  20.944  0.00  0.00    -0.477 OA
ATOM     32  H   UNL     1      11.186   4.777  20.465  0.00  0.00    +0.295 HD
ENDBRANCH  26   2
ENDBRANCH  23  26
ENDBRANCH  14  16
ENDBRANCH   4  14
TORSDOF 7
ENDMDL
MODEL 6
REMARK VINA RESULT:      -6.8     27.649     30.507
REMARK  Name = 45783654
REMARK  7 active torsions:
REMARK  status: ('A' for Active; 'I' for Inactive)
REMARK    1  A    between atoms: O_2  and  C_26
REMARK    2  A    between atoms: N_4  and  C_14
REMARK    3  A    between atoms: N_8  and  C_28
REMARK    4  A    between atoms: C_10  and  C_15
REMARK    5  A    between atoms: C_14  and  C_16
REMARK    6  A    between atoms: C_19  and  C_22
REMARK    7  A    between atoms: C_23  and  C_26
REMARK                            x       y       z     vdW  Elec       q    Type
REMARK                         _______ _______ _______ _____ _____    ______ ____
ROOT
ATOM      4  N   UNL     1      -3.465 -11.764  14.044  0.00  0.00    -0.287 NA
ATOM     10  C   UNL     1      -2.581 -11.836  12.863  0.00  0.00    +0.146 C 
ATOM     11  C   UNL     1      -2.577 -13.324  12.467  0.00  0.00    +0.030 C 
ATOM     12  C   UNL     1      -3.433 -14.018  13.517  0.00  0.00    +0.017 C 
ATOM     13  C   UNL     1      -3.385 -13.071  14.699  0.00  0.00    +0.085 C 
ENDROOT
BRANCH  10  15
ATOM      1  O   UNL     1      -2.159  -9.986  11.323  0.00  0.00    -0.336 OA
ATOM      5  N   UNL     1      -4.178 -10.924  11.092  0.00  0.00    -0.190 NA
ATOM      6  N   UNL     1      -2.797  -9.286  10.292  0.00  0.00    -0.056 NA
ATOM     15  C   UNL     1      -3.040 -10.933  11.738  0.00  0.00    +0.245 A 
ATOM     19  C   UNL     1      -3.983  -9.897  10.216  0.00  0.00    +0.204 A 
BRANCH  19  22
ATOM      7  N   UNL     1      -6.916  -8.136   8.757  0.00  0.00    -0.237 NA
ATOM     22  C   UNL     1      -4.993  -9.507   9.273  0.00  0.00    +0.041 A 
ATOM     24  C   UNL     1      -5.052 -10.081   8.008  0.00  0.00    +0.017 A 
ATOM     25  C   UNL     1      -5.939  -8.548   9.596  0.00  0.00    +0.124 A 
ATOM     27  C   UNL     1      -6.042  -9.683   7.117  0.00  0.00    +0.047 A 
ATOM     28  C   UNL     1      -6.942  -8.716   7.536  0.00  0.00    +0.139 A 
BRANCH  28   8
ATOM      8  N   UNL     1      -7.931  -8.317   6.651  0.00  0.00    -0.290 N 
ATOM      9  N   UNL     1      -9.311  -8.368   4.911  0.00  0.00    -0.244 NA
ATOM     29  C   UNL     1      -8.662  -7.165   6.719  0.00  0.00    +0.114 A 
ATOM     30  C   UNL     1      -8.357  -9.007   5.550  0.00  0.00    +0.205 A 
ATOM     31  C   UNL     1      -9.505  -7.218   5.634  0.00  0.00    +0.130 A 
ENDBRANCH  28   8
ENDBRANCH  19  22
ENDBRANCH  10  15
BRANCH   4  14
ATOM     14  C   UNL     1      -3.125 -10.675  14.950  0.00  0.00    +0.120 C 
BRANCH  14  16
ATOM     16  C   UNL     1      -3.943 -10.721  16.214  0.00  0.00    -0.033 A 
ATOM     17  C   UNL     1      -5.243 -10.218  16.220  0.00  0.00    +0.006 A 
ATOM     18  C   UNL     1      -3.400 -11.267  17.376  0.00  0.00    +0.006 A 
ATOM     20  C   UNL     1      -6.001 -10.261  17.390  0.00  0.00    +0.015 A 
ATOM     21  C   UNL     1      -4.158 -11.310  18.547  0.00  0.00    +0.015 A 
ATOM     23  C   UNL     1      -5.459 -10.807  18.553  0.00  0.00    +0.059 A 
BRANCH  23  26
ATOM      3  O   UNL     1      -5.892 -11.364  20.839  0.00  0.00    -0.245 OA
ATOM     26  C   UNL     1      -6.249 -10.852  19.774  0.00  0.00    +0.337 C 
BRANCH  26   2
ATOM      2  O   UNL     1      -7.464 -10.254  19.629  0.00  0.00    -0.477 OA
ATOM     32  H   UNL     1      -7.765  -9.835  20.464  0.00  0.00    +0.295 HD
ENDBRANCH  26   2
ENDBRANCH  23  26
ENDBRANCH  14  16
ENDBRANCH   4  14
TORSDOF 7
ENDMDL
MODEL 7
REMARK VINA RESULT:      -6.6      4.637     11.357
REMARK  Name = 45783654
REMARK  7 active torsions:
REMARK  status: ('A' for Active; 'I' for Inactive)
REMARK    1  A    between atoms: O_2  and  C_26
REMARK    2  A    between atoms: N_4  and  C_14
REMARK    3  A    between atoms: N_8  and  C_28
REMARK    4  A    between atoms: C_10  and  C_15
REMARK    5  A    between atoms: C_14  and  C_16
REMARK    6  A    between atoms: C_19  and  C_22
REMARK    7  A    between atoms: C_23  and  C_26
REMARK                            x       y       z     vdW  Elec       q    Type
REMARK                         _______ _______ _______ _____ _____    ______ ____
ROOT
ATOM      4  N   UNL     1      22.600   4.785  22.080  0.00  0.00    -0.287 NA
ATOM     10  C   UNL     1      21.700   5.921  22.363  0.00  0.00    +0.146 C 
ATOM     11  C   UNL     1      22.550   7.174  22.082  0.00  0.00    +0.030 C 
ATOM     12  C   UNL     1      23.928   6.644  21.708  0.00  0.00    +0.017 C 
ATOM     13  C   UNL     1      23.961   5.264  22.332  0.00  0.00    +0.085 C 
ENDROOT
BRANCH  10  15
ATOM      1  O   UNL     1      20.475   5.134  20.401  0.00  0.00    -0.336 OA
ATOM      5  N   UNL     1      19.279   6.458  21.754  0.00  0.00    -0.190 NA
ATOM      6  N   UNL     1      19.208   5.245  19.816  0.00  0.00    -0.056 NA
ATOM     15  C   UNL     1      20.432   5.878  21.537  0.00  0.00    +0.245 A 
ATOM     19  C   UNL     1      18.560   6.042  20.672  0.00  0.00    +0.204 A 
BRANCH  19  22
ATOM      7  N   UNL     1      15.151   7.334  21.403  0.00  0.00    -0.237 NA
ATOM     22  C   UNL     1      17.195   6.438  20.475  0.00  0.00    +0.041 A 
ATOM     24  C   UNL     1      16.589   6.324  19.229  0.00  0.00    +0.017 A 
ATOM     25  C   UNL     1      16.440   6.944  21.521  0.00  0.00    +0.124 A 
ATOM     27  C   UNL     1      15.264   6.715  19.069  0.00  0.00    +0.047 A 
ATOM     28  C   UNL     1      14.595   7.209  20.177  0.00  0.00    +0.139 A 
BRANCH  28   8
ATOM      8  N   UNL     1      13.274   7.599  20.022  0.00  0.00    -0.290 N 
ATOM      9  N   UNL     1      11.082   7.703  20.362  0.00  0.00    -0.244 NA
ATOM     29  C   UNL     1      12.799   8.511  19.123  0.00  0.00    +0.114 A 
ATOM     30  C   UNL     1      12.207   7.142  20.744  0.00  0.00    +0.205 A 
ATOM     31  C   UNL     1      11.444   8.557  19.351  0.00  0.00    +0.130 A 
ENDBRANCH  28   8
ENDBRANCH  19  22
ENDBRANCH  10  15
BRANCH   4  14
ATOM     14  C   UNL     1      22.285   3.595  22.860  0.00  0.00    +0.120 C 
BRANCH  14  16
ATOM     16  C   UNL     1      23.336   2.528  22.703  0.00  0.00    -0.033 A 
ATOM     17  C   UNL     1      23.965   1.999  23.829  0.00  0.00    +0.006 A 
ATOM     18  C   UNL     1      23.678   2.068  21.432  0.00  0.00    +0.006 A 
ATOM     20  C   UNL     1      24.938   1.009  23.684  0.00  0.00    +0.015 A 
ATOM     21  C   UNL     1      24.651   1.079  21.285  0.00  0.00    +0.015 A 
ATOM     23  C   UNL     1      25.281   0.550  22.413  0.00  0.00    +0.059 A 
BRANCH  23  26
ATOM      3  O   UNL     1      26.099  -1.619  21.819  0.00  0.00    -0.245 OA
ATOM     26  C   UNL     1      26.295  -0.482  22.261  0.00  0.00    +0.337 C 
BRANCH  26   2
ATOM      2  O   UNL     1      27.526  -0.065  22.665  0.00  0.00    -0.477 OA
ATOM     32  H   UNL     1      28.080  -0.812  22.975  0.00  0.00    +0.295 HD
ENDBRANCH  26   2
ENDBRANCH  23  26
ENDBRANCH  14  16
ENDBRANCH   4  14
TORSDOF 7
ENDMDL
MODEL 8
REMARK VINA RESULT:      -6.6      2.803      4.621
REMARK  Name = 45783654
REMARK  7 active torsions:
REMARK  status: ('A' for Active; 'I' for Inactive)
REMARK    1  A    between atoms: O_2  and  C_26
REMARK    2  A    between atoms: N_4  and  C_14
REMARK    3  A    between atoms: N_8  and  C_28
REMARK    4  A    between atoms: C_10  and  C_15
REMARK    5  A    between atoms: C_14  and  C_16
REMARK    6  A    between atoms: C_19  and  C_22
REMARK    7  A    between atoms: C_23  and  C_26
REMARK                            x       y       z     vdW  Elec       q    Type
REMARK                         _______ _______ _______ _____ _____    ______ ____
ROOT
ATOM      4  N   UNL     1      13.627   9.277  18.935  0.00  0.00    -0.287 NA
ATOM     10  C   UNL     1      13.706   8.386  20.110  0.00  0.00    +0.146 C 
ATOM     11  C   UNL     1      13.007   7.088  19.665  0.00  0.00    +0.030 C 
ATOM     12  C   UNL     1      12.514   7.366  18.251  0.00  0.00    +0.017 C 
ATOM     13  C   UNL     1      12.430   8.878  18.194  0.00  0.00    +0.085 C 
ENDROOT
BRANCH  10  15
ATOM      1  O   UNL     1      15.639   9.059  21.446  0.00  0.00    -0.336 OA
ATOM      5  N   UNL     1      15.962   7.198  20.245  0.00  0.00    -0.190 NA
ATOM      6  N   UNL     1      16.946   8.642  21.720  0.00  0.00    -0.056 NA
ATOM     15  C   UNL     1      15.130   8.154  20.569  0.00  0.00    +0.245 A 
ATOM     19  C   UNL     1      17.063   7.539  20.975  0.00  0.00    +0.204 A 
BRANCH  19  22
ATOM      7  N   UNL     1      20.413   6.224  21.912  0.00  0.00    -0.237 NA
ATOM     22  C   UNL     1      18.265   6.756  20.939  0.00  0.00    +0.041 A 
ATOM     24  C   UNL     1      18.469   5.802  19.948  0.00  0.00    +0.017 A 
ATOM     25  C   UNL     1      19.258   6.927  21.889  0.00  0.00    +0.124 A 
ATOM     27  C   UNL     1      19.644   5.059  19.938  0.00  0.00    +0.047 A 
ATOM     28  C   UNL     1      20.575   5.306  20.933  0.00  0.00    +0.139 A 
BRANCH  28   8
ATOM      8  N   UNL     1      21.749   4.568  20.927  0.00  0.00    -0.290 N 
ATOM      9  N   UNL     1      23.132   2.856  21.226  0.00  0.00    -0.244 NA
ATOM     29  C   UNL     1      22.970   4.992  20.484  0.00  0.00    +0.114 A 
ATOM     30  C   UNL     1      21.896   3.280  21.363  0.00  0.00    +0.205 A 
ATOM     31  C   UNL     1      23.807   3.919  20.680  0.00  0.00    +0.130 A 
ENDBRANCH  28   8
ENDBRANCH  19  22
ENDBRANCH  10  15
BRANCH   4  14
ATOM     14  C   UNL     1      13.609  10.691  19.286  0.00  0.00    +0.120 C 
BRANCH  14  16
ATOM     16  C   UNL     1      12.952  10.928  20.620  0.00  0.00    -0.033 A 
ATOM     17  C   UNL     1      13.602  11.688  21.592  0.00  0.00    +0.006 A 
ATOM     18  C   UNL     1      11.693  10.389  20.883  0.00  0.00    +0.006 A 
ATOM     20  C   UNL     1      12.993  11.909  22.827  0.00  0.00    +0.015 A 
ATOM     21  C   UNL     1      11.083  10.608  22.119  0.00  0.00    +0.015 A 
ATOM     23  C   UNL     1      11.734  11.369  23.091  0.00  0.00    +0.059 A 
BRANCH  23  26
ATOM      3  O   UNL     1      11.573  11.288  25.477  0.00  0.00    -0.245 OA
ATOM     26  C   UNL     1      11.099  11.599  24.379  0.00  0.00    +0.337 C 
BRANCH  26   2
ATOM      2  O   UNL     1       9.888  12.211  24.261  0.00  0.00    -0.477 OA
ATOM     32  H   UNL     1       9.549  12.173  23.341  0.00  0.00    +0.295 HD
ENDBRANCH  26   2
ENDBRANCH  23  26
ENDBRANCH  14  16
ENDBRANCH   4  14
TORSDOF 7
ENDMDL
MODEL 9
REMARK VINA RESULT:      -6.5      4.008     10.544
REMARK  Name = 45783654
REMARK  7 active torsions:
REMARK  status: ('A' for Active; 'I' for Inactive)
REMARK    1  A    between atoms: O_2  and  C_26
REMARK    2  A    between atoms: N_4  and  C_14
REMARK    3  A    between atoms: N_8  and  C_28
REMARK    4  A    between atoms: C_10  and  C_15
REMARK    5  A    between atoms: C_14  and  C_16
REMARK    6  A    between atoms: C_19  and  C_22
REMARK    7  A    between atoms: C_23  and  C_26
REMARK                            x       y       z     vdW  Elec       q    Type
REMARK                         _______ _______ _______ _____ _____    ______ ____
ROOT
ATOM      4  N   UNL     1      21.612   5.301  22.746  0.00  0.00    -0.287 NA
ATOM     10  C   UNL     1      21.311   5.885  21.423  0.00  0.00    +0.146 C 
ATOM     11  C   UNL     1      21.186   4.675  20.479  0.00  0.00    +0.030 C 
ATOM     12  C   UNL     1      21.493   3.461  21.346  0.00  0.00    +0.017 C 
ATOM     13  C   UNL     1      22.303   4.036  22.490  0.00  0.00    +0.085 C 
ENDROOT
BRANCH  10  15
ATOM      1  O   UNL     1      20.247   8.070  21.685  0.00  0.00    -0.336 OA
ATOM      5  N   UNL     1      18.817   6.404  21.246  0.00  0.00    -0.190 NA
ATOM      6  N   UNL     1      18.974   8.650  21.649  0.00  0.00    -0.056 NA
ATOM     15  C   UNL     1      20.066   6.746  21.438  0.00  0.00    +0.245 A 
ATOM     19  C   UNL     1      18.185   7.605  21.385  0.00  0.00    +0.204 A 
BRANCH  19  22
ATOM      7  N   UNL     1      14.646   6.713  20.665  0.00  0.00    -0.237 NA
ATOM     22  C   UNL     1      16.761   7.727  21.253  0.00  0.00    +0.041 A 
ATOM     24  C   UNL     1      16.113   8.918  21.562  0.00  0.00    +0.017 A 
ATOM     25  C   UNL     1      15.990   6.664  20.813  0.00  0.00    +0.124 A 
ATOM     27  C   UNL     1      14.732   9.007  21.423  0.00  0.00    +0.047 A 
ATOM     28  C   UNL     1      14.052   7.886  20.976  0.00  0.00    +0.139 A 
BRANCH  28   8
ATOM      8  N   UNL     1      12.675   7.971  20.835  0.00  0.00    -0.290 N 
ATOM      9  N   UNL     1      10.700   8.382  19.907  0.00  0.00    -0.244 NA
ATOM     29  C   UNL     1      11.742   7.614  21.767  0.00  0.00    +0.114 A 
ATOM     30  C   UNL     1      12.001   8.426  19.735  0.00  0.00    +0.205 A 
ATOM     31  C   UNL     1      10.531   7.878  21.172  0.00  0.00    +0.130 A 
ENDBRANCH  28   8
ENDBRANCH  19  22
ENDBRANCH  10  15
BRANCH   4  14
ATOM     14  C   UNL     1      22.389   6.187  23.602  0.00  0.00    +0.120 C 
BRANCH  14  16
ATOM     16  C   UNL     1      21.841   6.235  25.004  0.00  0.00    -0.033 A 
ATOM     17  C   UNL     1      20.750   7.053  25.297  0.00  0.00    +0.006 A 
ATOM     18  C   UNL     1      22.424   5.461  26.007  0.00  0.00    +0.006 A 
ATOM     20  C   UNL     1      20.242   7.097  26.596  0.00  0.00    +0.015 A 
ATOM     21  C   UNL     1      21.916   5.506  27.306  0.00  0.00    +0.015 A 
ATOM     23  C   UNL     1      20.825   6.324  27.600  0.00  0.00    +0.059 A 
BRANCH  23  26
ATOM      3  O   UNL     1      20.721   7.086  29.865  0.00  0.00    -0.245 OA
ATOM     26  C   UNL     1      20.295   6.370  28.954  0.00  0.00    +0.337 C 
BRANCH  26   2
ATOM      2  O   UNL     1      19.246   5.520  29.131  0.00  0.00    -0.477 OA
ATOM     32  H   UNL     1      18.899   5.557  30.048  0.00  0.00    +0.295 HD
ENDBRANCH  26   2
ENDBRANCH  23  26
ENDBRANCH  14  16
ENDBRANCH   4  14
TORSDOF 7
ENDMDL
MODEL 10
REMARK VINA RESULT:      -6.5     26.424     30.190
REMARK  Name = 45783654
REMARK  7 active torsions:
REMARK  status: ('A' for Active; 'I' for Inactive)
REMARK    1  A    between atoms: O_2  and  C_26
REMARK    2  A    between atoms: N_4  and  C_14
REMARK    3  A    between atoms: N_8  and  C_28
REMARK    4  A    between atoms: C_10  and  C_15
REMARK    5  A    between atoms: C_14  and  C_16
REMARK    6  A    between atoms: C_19  and  C_22
REMARK    7  A    between atoms: C_23  and  C_26
REMARK                            x       y       z     vdW  Elec       q    Type
REMARK                         _______ _______ _______ _____ _____    ______ ____
ROOT
ATOM      4  N   UNL     1      -2.970 -10.743  14.198  0.00  0.00    -0.287 NA
ATOM     10  C   UNL     1      -3.176 -11.223  15.580  0.00  0.00    +0.146 C 
ATOM     11  C   UNL     1      -1.987 -10.653  16.374  0.00  0.00    +0.030 C 
ATOM     12  C   UNL     1      -1.135  -9.921  15.345  0.00  0.00    +0.017 C 
ATOM     13  C   UNL     1      -1.526 -10.570  14.033  0.00  0.00    +0.085 C 
ENDROOT
BRANCH  10  15
ATOM      1  O   UNL     1      -4.728 -11.072  17.462  0.00  0.00    -0.336 OA
ATOM      5  N   UNL     1      -5.517 -10.203  15.556  0.00  0.00    -0.190 NA
ATOM      6  N   UNL     1      -6.012 -10.597  17.754  0.00  0.00    -0.056 NA
ATOM     15  C   UNL     1      -4.515 -10.801  16.148  0.00  0.00    +0.245 A 
ATOM     19  C   UNL     1      -6.412 -10.099  16.580  0.00  0.00    +0.204 A 
BRANCH  19  22
ATOM      7  N   UNL     1      -9.573  -8.299  17.354  0.00  0.00    -0.237 NA
ATOM     22  C   UNL     1      -7.699  -9.491  16.399  0.00  0.00    +0.041 A 
ATOM     24  C   UNL     1      -8.323  -9.491  15.156  0.00  0.00    +0.017 A 
ATOM     25  C   UNL     1      -8.360  -8.888  17.456  0.00  0.00    +0.124 A 
ATOM     27  C   UNL     1      -9.571  -8.895  15.011  0.00  0.00    +0.047 A 
ATOM     28  C   UNL     1     -10.147  -8.318  16.130  0.00  0.00    +0.139 A 
BRANCH  28   8
ATOM      8  N   UNL     1     -11.392  -7.724  15.991  0.00  0.00    -0.290 N 
ATOM      9  N   UNL     1     -13.596  -7.464  16.081  0.00  0.00    -0.244 NA
ATOM     29  C   UNL     1     -11.643  -6.479  15.487  0.00  0.00    +0.114 A 
ATOM     30  C   UNL     1     -12.595  -8.276  16.334  0.00  0.00    +0.205 A 
ATOM     31  C   UNL     1     -13.009  -6.341  15.551  0.00  0.00    +0.130 A 
ENDBRANCH  28   8
ENDBRANCH  19  22
ENDBRANCH  10  15
BRANCH   4  14
ATOM     14  C   UNL     1      -3.535 -11.632  13.191  0.00  0.00    +0.120 C 
BRANCH  14  16
ATOM     16  C   UNL     1      -4.166 -10.867  12.058  0.00  0.00    -0.033 A 
ATOM     17  C   UNL     1      -5.305 -10.097  12.286  0.00  0.00    +0.006 A 
ATOM     18  C   UNL     1      -3.609 -10.928  10.781  0.00  0.00    +0.006 A 
ATOM     20  C   UNL     1      -5.889  -9.388  11.237  0.00  0.00    +0.015 A 
ATOM     21  C   UNL     1      -4.193 -10.220   9.730  0.00  0.00    +0.015 A 
ATOM     23  C   UNL     1      -5.333  -9.449   9.959  0.00  0.00    +0.059 A 
BRANCH  23  26
ATOM      3  O   UNL     1      -6.839  -7.868   8.980  0.00  0.00    -0.245 OA
ATOM     26  C   UNL     1      -5.942  -8.710   8.864  0.00  0.00    +0.337 C 
BRANCH  26   2
ATOM      2  O   UNL     1      -5.412  -9.041   7.654  0.00  0.00    -0.477 OA
ATOM     32  H   UNL     1      -5.326 -10.013   7.549  0.00  0.00    +0.295 HD
ENDBRANCH  26   2
ENDBRANCH  23  26
ENDBRANCH  14  16
ENDBRANCH   4  14
TORSDOF 7
ENDMDL
