REMARK  Name = 45361026
REMARK  9 active torsions:
REMARK  status: ('A' for Active; 'I' for Inactive)
REMARK    1  A    between atoms: N_4  and  C_15
REMARK    2  A    between atoms: N_5  and  C_17
REMARK    3  A    between atoms: N_7  and  C_26
REMARK    4  A    between atoms: C_12  and  C_16
REMARK    5  A    between atoms: C_15  and  C_19
REMARK    6  A    between atoms: C_16  and  C_18
REMARK    7  A    between atoms: C_18  and  C_20
REMARK    8  A    between atoms: C_25  and  C_27
REMARK    9  A    between atoms: C_26  and  C_28
REMARK                            x       y       z     vdW  Elec       q    Type
REMARK                         _______ _______ _______ _____ _____    ______ ____
ROOT
ATOM      2  O   UNL     1       1.864  -1.527  -0.461  0.00  0.00    -0.274 OA
ATOM      4  N   UNL     1       3.417   0.540   0.319  0.00  0.00    -0.286 NA
ATOM      5  N   UNL     1       0.107   1.923  -0.406  0.00  0.00    -0.296 NA
ATOM      6  N   UNL     1      -0.019  -0.778   0.602  0.00  0.00    -0.312 N 
ATOM      8  C   UNL     1       1.426   1.927   0.265  0.00  0.00    +0.084 C 
ATOM      9  C   UNL     1       2.010   0.572   0.761  0.00  0.00    +0.161 C 
ATOM     10  C   UNL     1       2.571   2.468  -0.612  0.00  0.00    +0.036 C 
ATOM     11  C   UNL     1       3.814   1.918   0.054  0.00  0.00    +0.087 C 
ATOM     12  C   UNL     1      -1.023   1.482   0.459  0.00  0.00    +0.074 C 
ATOM     13  C   UNL     1       1.306  -0.670   0.223  0.00  0.00    +0.232 C 
ATOM     14  C   UNL     1      -0.726   0.252   1.338  0.00  0.00    +0.123 C 
ATOM     17  C   UNL     1      -0.185   3.240  -0.996  0.00  0.00    +0.105 C 
ATOM     32  H   UNL     1      -0.540  -1.594   0.296  0.00  0.00    +0.149 HD
ENDROOT
BRANCH   4  15
ATOM     15  C   UNL     1       4.306  -0.115   1.270  0.00  0.00    +0.120 C 
BRANCH  15  19
ATOM     19  C   UNL     1       5.574  -0.593   0.614  0.00  0.00    -0.033 A 
ATOM     21  C   UNL     1       5.561  -1.744  -0.174  0.00  0.00    +0.005 A 
ATOM     22  C   UNL     1       6.763   0.114   0.797  0.00  0.00    +0.005 A 
ATOM     23  C   UNL     1       6.737  -2.188  -0.779  0.00  0.00    +0.003 A 
ATOM     24  C   UNL     1       7.939  -0.330   0.192  0.00  0.00    +0.003 A 
ATOM     25  C   UNL     1       7.925  -1.481  -0.597  0.00  0.00    -0.050 A 
ATOM     27  C   UNL     1       9.182  -1.956  -1.244  0.00  0.00    +0.044 C 
ENDBRANCH  15  19
ENDBRANCH   4  15
BRANCH  12  16
ATOM     16  C   UNL     1      -2.262   1.151  -0.400  0.00  0.00    +0.029 C 
BRANCH  16  18
ATOM     18  C   UNL     1      -3.533   1.286   0.419  0.00  0.00    +0.097 C 
BRANCH  18  20
ATOM      3  O   UNL     1      -4.721   0.636  -1.589  0.00  0.00    -0.276 OA
ATOM      7  N   UNL     1      -5.928   1.087   0.342  0.00  0.00    -0.311 N 
ATOM     20  C   UNL     1      -4.766   0.963  -0.406  0.00  0.00    +0.213 C 
ATOM     33  H   UNL     1      -5.868   1.348   1.322  0.00  0.00    +0.149 HD
BRANCH   7  26
ATOM     26  C   UNL     1      -7.235   0.834  -0.217  0.00  0.00    +0.146 C 
BRANCH  26  28
ATOM      1  S   UNL     1      -8.030  -1.555  -1.398  0.00  0.00    -0.100 S 
ATOM     28  C   UNL     1      -7.659  -0.598  -0.027  0.00  0.00    +0.007 A 
ATOM     29  C   UNL     1      -7.803  -1.301   1.149  0.00  0.00    +0.013 A 
ATOM     30  C   UNL     1      -8.225  -2.643   0.921  0.00  0.00    +0.008 A 
ATOM     31  C   UNL     1      -8.386  -2.914  -0.419  0.00  0.00    +0.045 A 
ENDBRANCH  26  28
ENDBRANCH   7  26
ENDBRANCH  18  20
ENDBRANCH  16  18
ENDBRANCH  12  16
TORSDOF 7
