MODEL 1
REMARK VINA RESULT:      -7.2      0.000      0.000
REMARK  Name = 11941656
REMARK  7 active torsions:
REMARK  status: ('A' for Active; 'I' for Inactive)
REMARK    1  A    between atoms: O_4  and  C_29
REMARK    2  A    between atoms: O_4  and  C_30
REMARK    3  A    between atoms: N_5  and  C_12
REMARK    4  A    between atoms: N_6  and  C_13
REMARK    5  A    between atoms: N_7  and  C_19
REMARK    6  A    between atoms: C_18  and  C_22
REMARK    7  A    between atoms: C_19  and  C_23
REMARK                            x       y       z     vdW  Elec       q    Type
REMARK                         _______ _______ _______ _____ _____    ______ ____
ROOT
ATOM      1  O   UNL     1      11.027  13.152  23.524  0.00  0.00    -0.370 OA
ATOM      2  O   UNL     1      13.981  12.146  23.471  0.00  0.00    -0.370 OA
ATOM     10  C   UNL     1      12.719  11.483  23.656  0.00  0.00    +0.171 C 
ATOM     11  C   UNL     1      11.834  12.416  24.459  0.00  0.00    +0.171 C 
ATOM     12  C   UNL     1      12.003  11.342  22.333  0.00  0.00    +0.130 C 
ATOM     13  C   UNL     1      12.809  13.340  25.154  0.00  0.00    +0.131 C 
ATOM     14  C   UNL     1      11.292  12.677  22.196  0.00  0.00    +0.185 C 
ATOM     15  C   UNL     1      13.958  13.403  24.164  0.00  0.00    +0.185 C 
ENDROOT
BRANCH  12   5
ATOM      5  N   UNL     1      11.038  10.267  22.404  0.00  0.00    -0.306 N 
ATOM      8  N   UNL     1      12.570   8.714  21.607  0.00  0.00    -0.214 NA
ATOM      9  N   UNL     1      10.317   8.072  22.170  0.00  0.00    -0.223 NA
ATOM     16  C   UNL     1      11.321   8.961  22.045  0.00  0.00    +0.216 A 
ATOM     18  C   UNL     1      12.810   7.432  21.265  0.00  0.00    +0.076 A 
ATOM     20  C   UNL     1      10.626   6.809  21.811  0.00  0.00    +0.116 A 
ATOM     21  C   UNL     1      11.869   6.427  21.347  0.00  0.00    +0.048 A 
ATOM     31  H   UNL     1      10.116  10.449  22.784  0.00  0.00    +0.149 HD
BRANCH  18  22
ATOM     22  C   UNL     1      14.149   7.163  20.796  0.00  0.00    +0.001 A 
ATOM     24  C   UNL     1      14.388   6.991  19.434  0.00  0.00    +0.013 A 
ATOM     25  C   UNL     1      15.203   7.072  21.706  0.00  0.00    +0.013 A 
ATOM     26  C   UNL     1      15.681   6.730  18.980  0.00  0.00    +0.046 A 
ATOM     27  C   UNL     1      16.495   6.811  21.252  0.00  0.00    +0.046 A 
ATOM     29  C   UNL     1      16.735   6.641  19.889  0.00  0.00    +0.120 A 
BRANCH  29   4
ATOM      4  O   UNL     1      17.996   6.388  19.446  0.00  0.00    -0.495 OA
ATOM     30  C   UNL     1      18.972   6.038  20.426  0.00  0.00    +0.277 C 
ENDBRANCH  29   4
ENDBRANCH  18  22
ENDBRANCH  12   5
BRANCH  13   6
ATOM      3  O   UNL     1      13.890  14.793  27.400  0.00  0.00    -0.253 OA
ATOM      6  N   UNL     1      13.236  12.793  26.419  0.00  0.00    -0.292 N 
ATOM      7  N   UNL     1      14.082  12.791  28.558  0.00  0.00    -0.296 N 
ATOM     17  C   UNL     1      13.749  13.572  27.454  0.00  0.00    +0.300 C 
ATOM     32  H   UNL     1      13.098  11.800  26.588  0.00  0.00    +0.151 HD
ATOM     33  H   UNL     1      13.912  11.791  28.518  0.00  0.00    +0.151 HD
BRANCH   7  19
ATOM     19  C   UNL     1      14.636  13.347  29.770  0.00  0.00    +0.132 C 
BRANCH  19  23
ATOM     23  C   UNL     1      14.047  12.639  30.945  0.00  0.00    -0.016 C 
ATOM     28  C   UNL     1      13.055  13.133  31.694  0.00  0.00    +0.005 C 
ENDBRANCH  19  23
ENDBRANCH   7  19
ENDBRANCH  13   6
TORSDOF 6
ENDMDL
MODEL 2
REMARK VINA RESULT:      -7.0     27.599     31.568
REMARK  Name = 11941656
REMARK  7 active torsions:
REMARK  status: ('A' for Active; 'I' for Inactive)
REMARK    1  A    between atoms: O_4  and  C_29
REMARK    2  A    between atoms: O_4  and  C_30
REMARK    3  A    between atoms: N_5  and  C_12
REMARK    4  A    between atoms: N_6  and  C_13
REMARK    5  A    between atoms: N_7  and  C_19
REMARK    6  A    between atoms: C_18  and  C_22
REMARK    7  A    between atoms: C_19  and  C_23
REMARK                            x       y       z     vdW  Elec       q    Type
REMARK                         _______ _______ _______ _____ _____    ______ ____
ROOT
ATOM      1  O   UNL     1      -4.757  -8.943  10.439  0.00  0.00    -0.370 OA
ATOM      2  O   UNL     1      -5.942 -11.829  10.447  0.00  0.00    -0.370 OA
ATOM     10  C   UNL     1      -4.630 -11.304  10.705  0.00  0.00    +0.171 C 
ATOM     11  C   UNL     1      -4.409 -10.152   9.745  0.00  0.00    +0.171 C 
ATOM     12  C   UNL     1      -4.583 -10.660  12.071  0.00  0.00    +0.130 C 
ATOM     13  C   UNL     1      -5.388 -10.416   8.623  0.00  0.00    +0.131 C 
ATOM     14  C   UNL     1      -5.099  -9.259  11.796  0.00  0.00    +0.185 C 
ATOM     15  C   UNL     1      -6.524 -11.120   9.343  0.00  0.00    +0.185 C 
ENDROOT
BRANCH  12   5
ATOM      5  N   UNL     1      -3.218 -10.605  12.546  0.00  0.00    -0.306 N 
ATOM      8  N   UNL     1      -3.891 -10.655  14.769  0.00  0.00    -0.214 NA
ATOM      9  N   UNL     1      -1.559 -10.551  14.171  0.00  0.00    -0.223 NA
ATOM     16  C   UNL     1      -2.875 -10.604  13.887  0.00  0.00    +0.216 A 
ATOM     18  C   UNL     1      -3.521 -10.652  16.065  0.00  0.00    +0.076 A 
ATOM     20  C   UNL     1      -1.260 -10.552  15.486  0.00  0.00    +0.116 A 
ATOM     21  C   UNL     1      -2.209 -10.601  16.488  0.00  0.00    +0.048 A 
ATOM     31  H   UNL     1      -2.456 -10.620  11.878  0.00  0.00    +0.149 HD
BRANCH  18  22
ATOM     22  C   UNL     1      -4.608 -10.708  17.014  0.00  0.00    +0.001 A 
ATOM     24  C   UNL     1      -4.445 -11.387  18.220  0.00  0.00    +0.013 A 
ATOM     25  C   UNL     1      -5.822 -10.084  16.722  0.00  0.00    +0.013 A 
ATOM     26  C   UNL     1      -5.496 -11.442  19.137  0.00  0.00    +0.046 A 
ATOM     27  C   UNL     1      -6.871 -10.139  17.639  0.00  0.00    +0.046 A 
ATOM     29  C   UNL     1      -6.709 -10.818  18.846  0.00  0.00    +0.120 A 
BRANCH  29   4
ATOM      4  O   UNL     1      -7.733 -10.871  19.741  0.00  0.00    -0.495 OA
ATOM     30  C   UNL     1      -9.046 -11.056  19.215  0.00  0.00    +0.277 C 
ENDBRANCH  29   4
ENDBRANCH  18  22
ENDBRANCH  12   5
BRANCH  13   6
ATOM      3  O   UNL     1      -5.903 -10.336   5.785  0.00  0.00    -0.253 OA
ATOM      6  N   UNL     1      -4.806 -11.263   7.609  0.00  0.00    -0.292 N 
ATOM      7  N   UNL     1      -4.412 -12.091   5.500  0.00  0.00    -0.296 N 
ATOM     17  C   UNL     1      -5.114 -11.154   6.254  0.00  0.00    +0.300 C 
ATOM     32  H   UNL     1      -4.090 -11.928   7.887  0.00  0.00    +0.151 HD
ATOM     33  H   UNL     1      -3.766 -12.715   5.974  0.00  0.00    +0.151 HD
BRANCH   7  19
ATOM     19  C   UNL     1      -4.545 -12.197   4.066  0.00  0.00    +0.132 C 
BRANCH  19  23
ATOM     23  C   UNL     1      -3.209 -12.502   3.474  0.00  0.00    -0.016 C 
ATOM     28  C   UNL     1      -3.027 -12.909   2.212  0.00  0.00    +0.005 C 
ENDBRANCH  19  23
ENDBRANCH   7  19
ENDBRANCH  13   6
TORSDOF 6
ENDMDL
MODEL 3
REMARK VINA RESULT:      -6.9     27.176     29.946
REMARK  Name = 11941656
REMARK  7 active torsions:
REMARK  status: ('A' for Active; 'I' for Inactive)
REMARK    1  A    between atoms: O_4  and  C_29
REMARK    2  A    between atoms: O_4  and  C_30
REMARK    3  A    between atoms: N_5  and  C_12
REMARK    4  A    between atoms: N_6  and  C_13
REMARK    5  A    between atoms: N_7  and  C_19
REMARK    6  A    between atoms: C_18  and  C_22
REMARK    7  A    between atoms: C_19  and  C_23
REMARK                            x       y       z     vdW  Elec       q    Type
REMARK                         _______ _______ _______ _____ _____    ______ ____
ROOT
ATOM      1  O   UNL     1      -5.878 -11.565  19.247  0.00  0.00    -0.370 OA
ATOM      2  O   UNL     1      -7.042 -11.786  16.361  0.00  0.00    -0.370 OA
ATOM     10  C   UNL     1      -5.886 -11.130  16.908  0.00  0.00    +0.171 C 
ATOM     11  C   UNL     1      -6.276 -10.590  18.269  0.00  0.00    +0.171 C 
ATOM     12  C   UNL     1      -4.805 -12.142  17.208  0.00  0.00    +0.130 C 
ATOM     13  C   UNL     1      -7.784 -10.493  18.208  0.00  0.00    +0.131 C 
ATOM     14  C   UNL     1      -5.188 -12.638  18.591  0.00  0.00    +0.185 C 
ATOM     15  C   UNL     1      -8.145 -11.630  17.267  0.00  0.00    +0.185 C 
ENDROOT
BRANCH  12   5
ATOM      5  N   UNL     1      -3.515 -11.489  17.252  0.00  0.00    -0.306 N 
ATOM      8  N   UNL     1      -3.493 -11.173  14.950  0.00  0.00    -0.214 NA
ATOM      9  N   UNL     1      -1.668 -10.420  16.333  0.00  0.00    -0.223 NA
ATOM     16  C   UNL     1      -2.864 -11.006  16.129  0.00  0.00    +0.216 A 
ATOM     18  C   UNL     1      -2.830 -10.692  13.879  0.00  0.00    +0.076 A 
ATOM     20  C   UNL     1      -1.062  -9.962  15.219  0.00  0.00    +0.116 A 
ATOM     21  C   UNL     1      -1.600 -10.071  13.953  0.00  0.00    +0.048 A 
ATOM     31  H   UNL     1      -3.071 -11.319  18.147  0.00  0.00    +0.149 HD
BRANCH  18  22
ATOM     22  C   UNL     1      -3.501 -10.868  12.613  0.00  0.00    +0.001 A 
ATOM     24  C   UNL     1      -4.733 -10.255  12.386  0.00  0.00    +0.013 A 
ATOM     25  C   UNL     1      -2.920 -11.654  11.617  0.00  0.00    +0.013 A 
ATOM     26  C   UNL     1      -5.383 -10.426  11.164  0.00  0.00    +0.046 A 
ATOM     27  C   UNL     1      -3.570 -11.824  10.395  0.00  0.00    +0.046 A 
ATOM     29  C   UNL     1      -4.801 -11.210  10.168  0.00  0.00    +0.120 A 
BRANCH  29   4
ATOM      4  O   UNL     1      -5.435 -11.375   8.975  0.00  0.00    -0.495 OA
ATOM     30  C   UNL     1      -5.054 -10.505   7.911  0.00  0.00    +0.277 C 
ENDBRANCH  29   4
ENDBRANCH  18  22
ENDBRANCH  12   5
BRANCH  13   6
ATOM      3  O   UNL     1     -10.490  -9.527  17.944  0.00  0.00    -0.253 OA
ATOM      6  N   UNL     1      -8.205  -9.219  17.675  0.00  0.00    -0.292 N 
ATOM      7  N   UNL     1      -9.662  -7.559  17.034  0.00  0.00    -0.296 N 
ATOM     17  C   UNL     1      -9.541  -8.833  17.584  0.00  0.00    +0.300 C 
ATOM     32  H   UNL     1      -7.491  -8.545  17.412  0.00  0.00    +0.151 HD
ATOM     33  H   UNL     1      -8.818  -7.052  16.784  0.00  0.00    +0.151 HD
BRANCH   7  19
ATOM     19  C   UNL     1     -10.938  -6.916  16.827  0.00  0.00    +0.132 C 
BRANCH  19  23
ATOM     23  C   UNL     1     -10.861  -6.059  15.607  0.00  0.00    -0.016 C 
ATOM     28  C   UNL     1     -11.913  -5.764  14.835  0.00  0.00    +0.005 C 
ENDBRANCH  19  23
ENDBRANCH   7  19
ENDBRANCH  13   6
TORSDOF 6
ENDMDL
MODEL 4
REMARK VINA RESULT:      -6.7      5.123     10.158
REMARK  Name = 11941656
REMARK  7 active torsions:
REMARK  status: ('A' for Active; 'I' for Inactive)
REMARK    1  A    between atoms: O_4  and  C_29
REMARK    2  A    between atoms: O_4  and  C_30
REMARK    3  A    between atoms: N_5  and  C_12
REMARK    4  A    between atoms: N_6  and  C_13
REMARK    5  A    between atoms: N_7  and  C_19
REMARK    6  A    between atoms: C_18  and  C_22
REMARK    7  A    between atoms: C_19  and  C_23
REMARK                            x       y       z     vdW  Elec       q    Type
REMARK                         _______ _______ _______ _____ _____    ______ ____
ROOT
ATOM      1  O   UNL     1      14.132   7.892  16.634  0.00  0.00    -0.370 OA
ATOM      2  O   UNL     1      13.509  10.781  17.637  0.00  0.00    -0.370 OA
ATOM     10  C   UNL     1      12.857   9.513  17.821  0.00  0.00    +0.171 C 
ATOM     11  C   UNL     1      12.984   8.749  16.518  0.00  0.00    +0.171 C 
ATOM     12  C   UNL     1      13.619   8.673  18.818  0.00  0.00    +0.130 C 
ATOM     13  C   UNL     1      13.231   9.823  15.483  0.00  0.00    +0.131 C 
ATOM     14  C   UNL     1      14.679   8.011  17.955  0.00  0.00    +0.185 C 
ATOM     15  C   UNL     1      13.975  10.878  16.283  0.00  0.00    +0.185 C 
ENDROOT
BRANCH  12   5
ATOM      5  N   UNL     1      12.746   7.671  19.391  0.00  0.00    -0.306 N 
ATOM      8  N   UNL     1      11.956   9.147  21.002  0.00  0.00    -0.214 NA
ATOM      9  N   UNL     1      11.162   6.875  20.892  0.00  0.00    -0.223 NA
ATOM     16  C   UNL     1      11.918   7.908  20.475  0.00  0.00    +0.216 A 
ATOM     18  C   UNL     1      11.139   9.342  22.057  0.00  0.00    +0.076 A 
ATOM     20  C   UNL     1      10.369   7.140  21.950  0.00  0.00    +0.116 A 
ATOM     21  C   UNL     1      10.315   8.368  22.579  0.00  0.00    +0.048 A 
ATOM     31  H   UNL     1      12.683   6.758  18.958  0.00  0.00    +0.149 HD
BRANCH  18  22
ATOM     22  C   UNL     1      11.177  10.670  22.624  0.00  0.00    +0.001 A 
ATOM     24  C   UNL     1      11.426  11.770  21.804  0.00  0.00    +0.013 A 
ATOM     25  C   UNL     1      10.966  10.852  23.991  0.00  0.00    +0.013 A 
ATOM     26  C   UNL     1      11.463  13.053  22.352  0.00  0.00    +0.046 A 
ATOM     27  C   UNL     1      11.003  12.134  24.537  0.00  0.00    +0.046 A 
ATOM     29  C   UNL     1      11.251  13.235  23.718  0.00  0.00    +0.120 A 
BRANCH  29   4
ATOM      4  O   UNL     1      11.286  14.486  24.251  0.00  0.00    -0.495 OA
ATOM     30  C   UNL     1      10.506  15.490  23.604  0.00  0.00    +0.277 C 
ENDBRANCH  29   4
ENDBRANCH  18  22
ENDBRANCH  12   5
BRANCH  13   6
ATOM      3  O   UNL     1      12.908  11.763  13.372  0.00  0.00    -0.253 OA
ATOM      6  N   UNL     1      11.989  10.342  14.961  0.00  0.00    -0.292 N 
ATOM      7  N   UNL     1      10.607  11.606  13.627  0.00  0.00    -0.296 N 
ATOM     17  C   UNL     1      11.926  11.282  13.934  0.00  0.00    +0.300 C 
ATOM     32  H   UNL     1      11.118   9.956  15.313  0.00  0.00    +0.151 HD
ATOM     33  H   UNL     1       9.859  11.142  14.132  0.00  0.00    +0.151 HD
BRANCH   7  19
ATOM     19  C   UNL     1      10.256  12.557  12.599  0.00  0.00    +0.132 C 
BRANCH  19  23
ATOM     23  C   UNL     1       9.354  11.897  11.610  0.00  0.00    -0.016 C 
ATOM     28  C   UNL     1       8.407  12.540  10.917  0.00  0.00    +0.005 C 
ENDBRANCH  19  23
ENDBRANCH   7  19
ENDBRANCH  13   6
TORSDOF 6
ENDMDL
MODEL 5
REMARK VINA RESULT:      -6.6     17.698     22.547
REMARK  Name = 11941656
REMARK  7 active torsions:
REMARK  status: ('A' for Active; 'I' for Inactive)
REMARK    1  A    between atoms: O_4  and  C_29
REMARK    2  A    between atoms: O_4  and  C_30
REMARK    3  A    between atoms: N_5  and  C_12
REMARK    4  A    between atoms: N_6  and  C_13
REMARK    5  A    between atoms: N_7  and  C_19
REMARK    6  A    between atoms: C_18  and  C_22
REMARK    7  A    between atoms: C_19  and  C_23
REMARK                            x       y       z     vdW  Elec       q    Type
REMARK                         _______ _______ _______ _____ _____    ______ ____
ROOT
ATOM      1  O   UNL     1      12.737   4.576  -0.897  0.00  0.00    -0.370 OA
ATOM      2  O   UNL     1      13.533   4.015   2.068  0.00  0.00    -0.370 OA
ATOM     10  C   UNL     1      12.866   5.110   1.419  0.00  0.00    +0.171 C 
ATOM     11  C   UNL     1      13.522   5.299   0.065  0.00  0.00    +0.171 C 
ATOM     12  C   UNL     1      11.441   4.732   1.088  0.00  0.00    +0.130 C 
ATOM     13  C   UNL     1      14.882   4.657   0.223  0.00  0.00    +0.131 C 
ATOM     14  C   UNL     1      11.586   4.020  -0.245  0.00  0.00    +0.185 C 
ATOM     15  C   UNL     1      14.605   3.555   1.231  0.00  0.00    +0.185 C 
ENDROOT
BRANCH  12   5
ATOM      5  N   UNL     1      10.637   5.925   0.932  0.00  0.00    -0.306 N 
ATOM      8  N   UNL     1      10.055   5.940   3.181  0.00  0.00    -0.214 NA
ATOM      9  N   UNL     1       9.245   7.632   1.668  0.00  0.00    -0.223 NA
ATOM     16  C   UNL     1       9.949   6.525   1.972  0.00  0.00    +0.216 A 
ATOM     18  C   UNL     1       9.372   6.551   4.170  0.00  0.00    +0.076 A 
ATOM     20  C   UNL     1       8.587   8.191   2.705  0.00  0.00    +0.116 A 
ATOM     21  C   UNL     1       8.615   7.689   3.991  0.00  0.00    +0.048 A 
ATOM     31  H   UNL     1      10.604   6.390   0.032  0.00  0.00    +0.149 HD
BRANCH  18  22
ATOM     22  C   UNL     1       9.483   5.926   5.467  0.00  0.00    +0.001 A 
ATOM     24  C   UNL     1       9.271   6.678   6.622  0.00  0.00    +0.013 A 
ATOM     25  C   UNL     1       9.806   4.572   5.566  0.00  0.00    +0.013 A 
ATOM     26  C   UNL     1       9.380   6.076   7.876  0.00  0.00    +0.046 A 
ATOM     27  C   UNL     1       9.914   3.971   6.819  0.00  0.00    +0.046 A 
ATOM     29  C   UNL     1       9.701   4.722   7.975  0.00  0.00    +0.120 A 
BRANCH  29   4
ATOM      4  O   UNL     1       9.805   4.135   9.198  0.00  0.00    -0.495 OA
ATOM     30  C   UNL     1       8.998   4.669  10.246  0.00  0.00    +0.277 C 
ENDBRANCH  29   4
ENDBRANCH  18  22
ENDBRANCH  12   5
BRANCH  13   6
ATOM      3  O   UNL     1      16.893   6.069  -1.290  0.00  0.00    -0.253 OA
ATOM      6  N   UNL     1      15.850   5.599   0.731  0.00  0.00    -0.292 N 
ATOM      7  N   UNL     1      17.598   7.093   0.669  0.00  0.00    -0.296 N 
ATOM     17  C   UNL     1      16.790   6.238  -0.076  0.00  0.00    +0.300 C 
ATOM     32  H   UNL     1      15.804   5.859   1.712  0.00  0.00    +0.151 HD
ATOM     33  H   UNL     1      17.426   7.183   1.666  0.00  0.00    +0.151 HD
BRANCH   7  19
ATOM     19  C   UNL     1      18.655   7.880   0.080  0.00  0.00    +0.132 C 
BRANCH  19  23
ATOM     23  C   UNL     1      19.433   8.545   1.167  0.00  0.00    -0.016 C 
ATOM     28  C   UNL     1      19.902   7.909   2.246  0.00  0.00    +0.005 C 
ENDBRANCH  19  23
ENDBRANCH   7  19
ENDBRANCH  13   6
TORSDOF 6
ENDMDL
MODEL 6
REMARK VINA RESULT:      -6.4     26.551     30.003
REMARK  Name = 11941656
REMARK  7 active torsions:
REMARK  status: ('A' for Active; 'I' for Inactive)
REMARK    1  A    between atoms: O_4  and  C_29
REMARK    2  A    between atoms: O_4  and  C_30
REMARK    3  A    between atoms: N_5  and  C_12
REMARK    4  A    between atoms: N_6  and  C_13
REMARK    5  A    between atoms: N_7  and  C_19
REMARK    6  A    between atoms: C_18  and  C_22
REMARK    7  A    between atoms: C_19  and  C_23
REMARK                            x       y       z     vdW  Elec       q    Type
REMARK                         _______ _______ _______ _____ _____    ______ ____
ROOT
ATOM      1  O   UNL     1     -16.675   5.491  21.992  0.00  0.00    -0.370 OA
ATOM      2  O   UNL     1     -13.940   4.889  23.369  0.00  0.00    -0.370 OA
ATOM     10  C   UNL     1     -15.056   5.726  23.720  0.00  0.00    +0.171 C 
ATOM     11  C   UNL     1     -15.591   6.325  22.434  0.00  0.00    +0.171 C 
ATOM     12  C   UNL     1     -16.198   4.883  24.238  0.00  0.00    +0.130 C 
ATOM     13  C   UNL     1     -14.428   6.231  21.472  0.00  0.00    +0.131 C 
ATOM     14  C   UNL     1     -16.905   4.460  22.963  0.00  0.00    +0.185 C 
ATOM     15  C   UNL     1     -13.708   4.984  21.955  0.00  0.00    +0.185 C 
ENDROOT
BRANCH  12   5
ATOM      5  N   UNL     1     -17.078   5.692  25.053  0.00  0.00    -0.306 N 
ATOM      8  N   UNL     1     -16.635   4.427  26.951  0.00  0.00    -0.214 NA
ATOM      9  N   UNL     1     -18.142   6.307  27.024  0.00  0.00    -0.223 NA
ATOM     16  C   UNL     1     -17.294   5.466  26.402  0.00  0.00    +0.216 A 
ATOM     18  C   UNL     1     -16.870   4.236  28.265  0.00  0.00    +0.076 A 
ATOM     20  C   UNL     1     -18.330   6.057  28.336  0.00  0.00    +0.116 A 
ATOM     21  C   UNL     1     -17.714   5.026  29.017  0.00  0.00    +0.048 A 
ATOM     31  H   UNL     1     -17.530   6.502  24.646  0.00  0.00    +0.149 HD
BRANCH  18  22
ATOM     22  C   UNL     1     -16.164   3.125  28.858  0.00  0.00    +0.001 A 
ATOM     24  C   UNL     1     -16.680   1.834  28.748  0.00  0.00    +0.013 A 
ATOM     25  C   UNL     1     -14.968   3.341  29.543  0.00  0.00    +0.013 A 
ATOM     26  C   UNL     1     -15.999   0.760  29.321  0.00  0.00    +0.046 A 
ATOM     27  C   UNL     1     -14.288   2.267  30.116  0.00  0.00    +0.046 A 
ATOM     29  C   UNL     1     -14.803   0.976  30.005  0.00  0.00    +0.120 A 
BRANCH  29   4
ATOM      4  O   UNL     1     -14.139  -0.072  30.563  0.00  0.00    -0.495 OA
ATOM     30  C   UNL     1     -13.314  -0.853  29.699  0.00  0.00    +0.277 C 
ENDBRANCH  29   4
ENDBRANCH  18  22
ENDBRANCH  12   5
BRANCH  13   6
ATOM      3  O   UNL     1     -13.381   7.793  19.284  0.00  0.00    -0.253 OA
ATOM      6  N   UNL     1     -13.579   7.394  21.562  0.00  0.00    -0.292 N 
ATOM      7  N   UNL     1     -12.318   9.169  20.821  0.00  0.00    -0.296 N 
ATOM     17  C   UNL     1     -13.117   8.090  20.447  0.00  0.00    +0.300 C 
ATOM     32  H   UNL     1     -13.358   7.762  22.484  0.00  0.00    +0.151 HD
ATOM     33  H   UNL     1     -12.172   9.350  21.809  0.00  0.00    +0.151 HD
BRANCH   7  19
ATOM     19  C   UNL     1     -11.710  10.059  19.861  0.00  0.00    +0.132 C 
BRANCH  19  23
ATOM     23  C   UNL     1     -10.396   9.492  19.433  0.00  0.00    -0.016 C 
ATOM     28  C   UNL     1     -10.001   9.404  18.158  0.00  0.00    +0.005 C 
ENDBRANCH  19  23
ENDBRANCH   7  19
ENDBRANCH  13   6
TORSDOF 6
ENDMDL
MODEL 7
REMARK VINA RESULT:      -6.3     27.879     30.840
REMARK  Name = 11941656
REMARK  7 active torsions:
REMARK  status: ('A' for Active; 'I' for Inactive)
REMARK    1  A    between atoms: O_4  and  C_29
REMARK    2  A    between atoms: O_4  and  C_30
REMARK    3  A    between atoms: N_5  and  C_12
REMARK    4  A    between atoms: N_6  and  C_13
REMARK    5  A    between atoms: N_7  and  C_19
REMARK    6  A    between atoms: C_18  and  C_22
REMARK    7  A    between atoms: C_19  and  C_23
REMARK                            x       y       z     vdW  Elec       q    Type
REMARK                         _______ _______ _______ _____ _____    ______ ____
ROOT
ATOM      1  O   UNL     1     -10.401 -10.102  15.727  0.00  0.00    -0.370 OA
ATOM      2  O   UNL     1     -10.184  -6.993  15.882  0.00  0.00    -0.370 OA
ATOM     10  C   UNL     1     -10.086  -8.036  16.866  0.00  0.00    +0.171 C 
ATOM     11  C   UNL     1     -11.096  -9.103  16.492  0.00  0.00    +0.171 C 
ATOM     12  C   UNL     1      -8.752  -8.736  16.756  0.00  0.00    +0.130 C 
ATOM     13  C   UNL     1     -12.096  -8.376  15.621  0.00  0.00    +0.131 C 
ATOM     14  C   UNL     1      -9.006  -9.769  15.673  0.00  0.00    +0.185 C 
ATOM     15  C   UNL     1     -11.236  -7.314  14.959  0.00  0.00    +0.185 C 
ENDROOT
BRANCH  12   5
ATOM      5  N   UNL     1      -8.432  -9.391  18.005  0.00  0.00    -0.306 N 
ATOM      8  N   UNL     1      -6.336 -10.035  17.238  0.00  0.00    -0.214 NA
ATOM      9  N   UNL     1      -7.081 -10.595  19.460  0.00  0.00    -0.223 NA
ATOM     16  C   UNL     1      -7.230 -10.035  18.245  0.00  0.00    +0.216 A 
ATOM     18  C   UNL     1      -5.178 -10.672  17.506  0.00  0.00    +0.076 A 
ATOM     20  C   UNL     1      -5.900 -11.215  19.660  0.00  0.00    +0.116 A 
ATOM     21  C   UNL     1      -4.901 -11.285  18.710  0.00  0.00    +0.048 A 
ATOM     31  H   UNL     1      -9.087  -9.341  18.776  0.00  0.00    +0.149 HD
BRANCH  18  22
ATOM     22  C   UNL     1      -4.216 -10.673  16.430  0.00  0.00    +0.001 A 
ATOM     24  C   UNL     1      -4.653 -10.669  15.105  0.00  0.00    +0.013 A 
ATOM     25  C   UNL     1      -2.850 -10.682  16.713  0.00  0.00    +0.013 A 
ATOM     26  C   UNL     1      -3.724 -10.671  14.065  0.00  0.00    +0.046 A 
ATOM     27  C   UNL     1      -1.922 -10.685  15.672  0.00  0.00    +0.046 A 
ATOM     29  C   UNL     1      -2.359 -10.679  14.348  0.00  0.00    +0.120 A 
BRANCH  29   4
ATOM      4  O   UNL     1      -1.453 -10.680  13.332  0.00  0.00    -0.495 OA
ATOM     30  C   UNL     1      -1.926 -10.302  12.040  0.00  0.00    +0.277 C 
ENDBRANCH  29   4
ENDBRANCH  18  22
ENDBRANCH  12   5
BRANCH  13   6
ATOM      3  O   UNL     1     -14.775  -7.735  14.762  0.00  0.00    -0.253 OA
ATOM      6  N   UNL     1     -13.144  -7.780  16.414  0.00  0.00    -0.292 N 
ATOM      7  N   UNL     1     -15.228  -6.932  16.892  0.00  0.00    -0.296 N 
ATOM     17  C   UNL     1     -14.416  -7.504  15.915  0.00  0.00    +0.300 C 
ATOM     32  H   UNL     1     -12.968  -7.613  17.401  0.00  0.00    +0.151 HD
ATOM     33  H   UNL     1     -14.850  -6.797  17.824  0.00  0.00    +0.151 HD
BRANCH   7  19
ATOM     19  C   UNL     1     -16.597  -6.548  16.642  0.00  0.00    +0.132 C 
BRANCH  19  23
ATOM     23  C   UNL     1     -17.321  -6.445  17.943  0.00  0.00    -0.016 C 
ATOM     28  C   UNL     1     -17.367  -5.333  18.685  0.00  0.00    +0.005 C 
ENDBRANCH  19  23
ENDBRANCH   7  19
ENDBRANCH  13   6
TORSDOF 6
ENDMDL
MODEL 8
REMARK VINA RESULT:      -6.3     27.952     30.929
REMARK  Name = 11941656
REMARK  7 active torsions:
REMARK  status: ('A' for Active; 'I' for Inactive)
REMARK    1  A    between atoms: O_4  and  C_29
REMARK    2  A    between atoms: O_4  and  C_30
REMARK    3  A    between atoms: N_5  and  C_12
REMARK    4  A    between atoms: N_6  and  C_13
REMARK    5  A    between atoms: N_7  and  C_19
REMARK    6  A    between atoms: C_18  and  C_22
REMARK    7  A    between atoms: C_19  and  C_23
REMARK                            x       y       z     vdW  Elec       q    Type
REMARK                         _______ _______ _______ _____ _____    ______ ____
ROOT
ATOM      1  O   UNL     1     -10.080 -10.668  16.191  0.00  0.00    -0.370 OA
ATOM      2  O   UNL     1     -10.303  -7.573  16.516  0.00  0.00    -0.370 OA
ATOM     10  C   UNL     1      -9.944  -8.634  17.417  0.00  0.00    +0.171 C 
ATOM     11  C   UNL     1     -10.823  -9.824  17.085  0.00  0.00    +0.171 C 
ATOM     12  C   UNL     1      -8.543  -9.116  17.125  0.00  0.00    +0.130 C 
ATOM     13  C   UNL     1     -12.010  -9.217  16.371  0.00  0.00    +0.131 C 
ATOM     14  C   UNL     1      -8.764 -10.125  16.012  0.00  0.00    +0.185 C 
ATOM     15  C   UNL     1     -11.394  -8.007  15.690  0.00  0.00    +0.185 C 
ENDROOT
BRANCH  12   5
ATOM      5  N   UNL     1      -7.992  -9.772  18.291  0.00  0.00    -0.306 N 
ATOM      8  N   UNL     1      -6.002 -10.255  17.193  0.00  0.00    -0.214 NA
ATOM      9  N   UNL     1      -6.356 -10.909  19.485  0.00  0.00    -0.223 NA
ATOM     16  C   UNL     1      -6.728 -10.336  18.324  0.00  0.00    +0.216 A 
ATOM     18  C   UNL     1      -4.777 -10.816  17.261  0.00  0.00    +0.076 A 
ATOM     20  C   UNL     1      -5.121 -11.450  19.483  0.00  0.00    +0.116 A 
ATOM     21  C   UNL     1      -4.278 -11.432  18.390  0.00  0.00    +0.048 A 
ATOM     31  H   UNL     1      -8.522  -9.783  19.154  0.00  0.00    +0.149 HD
BRANCH  18  22
ATOM     22  C   UNL     1      -3.996 -10.730  16.051  0.00  0.00    +0.001 A 
ATOM     24  C   UNL     1      -2.606 -10.646  16.124  0.00  0.00    +0.013 A 
ATOM     25  C   UNL     1      -4.630 -10.729  14.808  0.00  0.00    +0.013 A 
ATOM     26  C   UNL     1      -1.850 -10.561  14.954  0.00  0.00    +0.046 A 
ATOM     27  C   UNL     1      -3.874 -10.644  13.639  0.00  0.00    +0.046 A 
ATOM     29  C   UNL     1      -2.484 -10.561  13.712  0.00  0.00    +0.120 A 
BRANCH  29   4
ATOM      4  O   UNL     1      -1.746 -10.480  12.572  0.00  0.00    -0.495 OA
ATOM     30  C   UNL     1      -2.422 -10.061  11.388  0.00  0.00    +0.277 C 
ENDBRANCH  29   4
ENDBRANCH  18  22
ENDBRANCH  12   5
BRANCH  13   6
ATOM      3  O   UNL     1     -13.950 -10.933  17.642  0.00  0.00    -0.253 OA
ATOM      6  N   UNL     1     -13.038  -8.825  17.305  0.00  0.00    -0.292 N 
ATOM      7  N   UNL     1     -14.820  -9.081  18.737  0.00  0.00    -0.296 N 
ATOM     17  C   UNL     1     -13.937  -9.726  17.873  0.00  0.00    +0.300 C 
ATOM     32  H   UNL     1     -13.068  -7.857  17.614  0.00  0.00    +0.151 HD
ATOM     33  H   UNL     1     -14.720  -8.081  18.881  0.00  0.00    +0.151 HD
BRANCH   7  19
ATOM     19  C   UNL     1     -15.856  -9.781  19.460  0.00  0.00    +0.132 C 
BRANCH  19  23
ATOM     23  C   UNL     1     -15.826  -9.356  20.890  0.00  0.00    -0.016 C 
ATOM     28  C   UNL     1     -15.784  -8.079  21.289  0.00  0.00    +0.005 C 
ENDBRANCH  19  23
ENDBRANCH   7  19
ENDBRANCH  13   6
TORSDOF 6
ENDMDL
MODEL 9
REMARK VINA RESULT:      -6.2     18.365     21.811
REMARK  Name = 11941656
REMARK  7 active torsions:
REMARK  status: ('A' for Active; 'I' for Inactive)
REMARK    1  A    between atoms: O_4  and  C_29
REMARK    2  A    between atoms: O_4  and  C_30
REMARK    3  A    between atoms: N_5  and  C_12
REMARK    4  A    between atoms: N_6  and  C_13
REMARK    5  A    between atoms: N_7  and  C_19
REMARK    6  A    between atoms: C_18  and  C_22
REMARK    7  A    between atoms: C_19  and  C_23
REMARK                            x       y       z     vdW  Elec       q    Type
REMARK                         _______ _______ _______ _____ _____    ______ ____
ROOT
ATOM      1  O   UNL     1       7.104  11.541   1.911  0.00  0.00    -0.370 OA
ATOM      2  O   UNL     1       5.962  10.133   4.451  0.00  0.00    -0.370 OA
ATOM     10  C   UNL     1       6.489   9.642   3.208  0.00  0.00    +0.171 C 
ATOM     11  C   UNL     1       6.040  10.597   2.119  0.00  0.00    +0.171 C 
ATOM     12  C   UNL     1       7.996   9.754   3.198  0.00  0.00    +0.130 C 
ATOM     13  C   UNL     1       4.833  11.288   2.712  0.00  0.00    +0.131 C 
ATOM     14  C   UNL     1       8.221  11.184   2.739  0.00  0.00    +0.185 C 
ATOM     15  C   UNL     1       5.158  11.295   4.195  0.00  0.00    +0.185 C 
ENDROOT
BRANCH  12   5
ATOM      5  N   UNL     1       8.555   8.827   2.238  0.00  0.00    -0.306 N 
ATOM      8  N   UNL     1       9.247   7.369   3.909  0.00  0.00    -0.214 NA
ATOM      9  N   UNL     1       9.644   6.884   1.582  0.00  0.00    -0.223 NA
ATOM     16  C   UNL     1       9.176   7.642   2.592  0.00  0.00    +0.216 A 
ATOM     18  C   UNL     1       9.859   6.207   4.217  0.00  0.00    +0.076 A 
ATOM     20  C   UNL     1      10.243   5.736   1.962  0.00  0.00    +0.116 A 
ATOM     21  C   UNL     1      10.380   5.342   3.278  0.00  0.00    +0.048 A 
ATOM     31  H   UNL     1       8.451   9.012   1.247  0.00  0.00    +0.149 HD
BRANCH  18  22
ATOM     22  C   UNL     1       9.937   5.911   5.628  0.00  0.00    +0.001 A 
ATOM     24  C   UNL     1      10.155   6.940   6.544  0.00  0.00    +0.013 A 
ATOM     25  C   UNL     1       9.797   4.597   6.075  0.00  0.00    +0.013 A 
ATOM     26  C   UNL     1      10.232   6.654   7.907  0.00  0.00    +0.046 A 
ATOM     27  C   UNL     1       9.874   4.312   7.438  0.00  0.00    +0.046 A 
ATOM     29  C   UNL     1      10.091   5.341   8.354  0.00  0.00    +0.120 A 
BRANCH  29   4
ATOM      4  O   UNL     1      10.164   5.063   9.684  0.00  0.00    -0.495 OA
ATOM     30  C   UNL     1       8.976   4.588  10.316  0.00  0.00    +0.277 C 
ENDBRANCH  29   4
ENDBRANCH  18  22
ENDBRANCH  12   5
BRANCH  13   6
ATOM      3  O   UNL     1       2.398  12.299   1.538  0.00  0.00    -0.253 OA
ATOM      6  N   UNL     1       3.623  10.548   2.445  0.00  0.00    -0.292 N 
ATOM      7  N   UNL     1       1.468  10.181   1.727  0.00  0.00    -0.296 N 
ATOM     17  C   UNL     1       2.488  11.119   1.873  0.00  0.00    +0.300 C 
ATOM     32  H   UNL     1       3.619   9.547   2.624  0.00  0.00    +0.151 HD
ATOM     33  H   UNL     1       1.642   9.223   2.014  0.00  0.00    +0.151 HD
BRANCH   7  19
ATOM     19  C   UNL     1       0.182  10.508   1.160  0.00  0.00    +0.132 C 
BRANCH  19  23
ATOM     23  C   UNL     1      -0.869   9.682   1.825  0.00  0.00    -0.016 C 
ATOM     28  C   UNL     1      -1.381   9.956   3.030  0.00  0.00    +0.005 C 
ENDBRANCH  19  23
ENDBRANCH   7  19
ENDBRANCH  13   6
TORSDOF 6
ENDMDL
MODEL 10
REMARK VINA RESULT:      -6.2     28.454     31.044
REMARK  Name = 11941656
REMARK  7 active torsions:
REMARK  status: ('A' for Active; 'I' for Inactive)
REMARK    1  A    between atoms: O_4  and  C_29
REMARK    2  A    between atoms: O_4  and  C_30
REMARK    3  A    between atoms: N_5  and  C_12
REMARK    4  A    between atoms: N_6  and  C_13
REMARK    5  A    between atoms: N_7  and  C_19
REMARK    6  A    between atoms: C_18  and  C_22
REMARK    7  A    between atoms: C_19  and  C_23
REMARK                            x       y       z     vdW  Elec       q    Type
REMARK                         _______ _______ _______ _____ _____    ______ ____
ROOT
ATOM      1  O   UNL     1     -11.707 -10.598  16.082  0.00  0.00    -0.370 OA
ATOM      2  O   UNL     1      -9.500  -9.606  14.112  0.00  0.00    -0.370 OA
ATOM     10  C   UNL     1      -9.656  -9.520  15.538  0.00  0.00    +0.171 C 
ATOM     11  C   UNL     1     -11.131  -9.308  15.817  0.00  0.00    +0.171 C 
ATOM     12  C   UNL     1      -9.347 -10.853  16.178  0.00  0.00    +0.130 C 
ATOM     13  C   UNL     1     -11.674  -8.745  14.523  0.00  0.00    +0.131 C 
ATOM     14  C   UNL     1     -10.670 -11.590  16.069  0.00  0.00    +0.185 C 
ATOM     15  C   UNL     1     -10.774  -9.394  13.485  0.00  0.00    +0.185 C 
ENDROOT
BRANCH  12   5
ATOM      5  N   UNL     1      -8.995 -10.664  17.569  0.00  0.00    -0.306 N 
ATOM      8  N   UNL     1      -6.744 -11.056  17.148  0.00  0.00    -0.214 NA
ATOM      9  N   UNL     1      -7.533 -10.558  19.370  0.00  0.00    -0.223 NA
ATOM     16  C   UNL     1      -7.701 -10.763  18.050  0.00  0.00    +0.216 A 
ATOM     18  C   UNL     1      -5.496 -11.146  17.651  0.00  0.00    +0.076 A 
ATOM     20  C   UNL     1      -6.260 -10.663  19.805  0.00  0.00    +0.116 A 
ATOM     21  C   UNL     1      -5.191 -10.957  18.983  0.00  0.00    +0.048 A 
ATOM     31  H   UNL     1      -9.711 -10.393  18.232  0.00  0.00    +0.149 HD
BRANCH  18  22
ATOM     22  C   UNL     1      -4.468 -11.458  16.687  0.00  0.00    +0.001 A 
ATOM     24  C   UNL     1      -3.342 -10.642  16.581  0.00  0.00    +0.013 A 
ATOM     25  C   UNL     1      -4.601 -12.574  15.860  0.00  0.00    +0.013 A 
ATOM     26  C   UNL     1      -2.348 -10.943  15.649  0.00  0.00    +0.046 A 
ATOM     27  C   UNL     1      -3.607 -12.874  14.929  0.00  0.00    +0.046 A 
ATOM     29  C   UNL     1      -2.481 -12.059  14.823  0.00  0.00    +0.120 A 
BRANCH  29   4
ATOM      4  O   UNL     1      -1.511 -12.352  13.915  0.00  0.00    -0.495 OA
ATOM     30  C   UNL     1      -1.493 -13.678  13.388  0.00  0.00    +0.277 C 
ENDBRANCH  29   4
ENDBRANCH  18  22
ENDBRANCH  12   5
BRANCH  13   6
ATOM      3  O   UNL     1     -13.397  -6.895  13.132  0.00  0.00    -0.253 OA
ATOM      6  N   UNL     1     -11.559  -7.307  14.489  0.00  0.00    -0.292 N 
ATOM      7  N   UNL     1     -12.099  -5.143  13.926  0.00  0.00    -0.296 N 
ATOM     17  C   UNL     1     -12.440  -6.487  13.788  0.00  0.00    +0.300 C 
ATOM     32  H   UNL     1     -10.840  -6.866  15.056  0.00  0.00    +0.151 HD
ATOM     33  H   UNL     1     -11.302  -4.899  14.505  0.00  0.00    +0.151 HD
BRANCH   7  19
ATOM     19  C   UNL     1     -12.847  -4.079  13.301  0.00  0.00    +0.132 C 
BRANCH  19  23
ATOM     23  C   UNL     1     -12.081  -3.567  12.126  0.00  0.00    -0.016 C 
ATOM     28  C   UNL     1     -12.069  -4.160  10.927  0.00  0.00    +0.005 C 
ENDBRANCH  19  23
ENDBRANCH   7  19
ENDBRANCH  13   6
TORSDOF 6
ENDMDL
