REMARK  Name = 7673731
REMARK  7 active torsions:
REMARK  status: ('A' for Active; 'I' for Inactive)
REMARK    1  A    between atoms: N_8  and  C_19
REMARK    2  A    between atoms: C_11  and  C_14
REMARK    3  A    between atoms: C_14  and  C_19
REMARK    4  A    between atoms: C_18  and  C_27
REMARK    5  A    between atoms: C_19  and  C_30
REMARK    6  A    between atoms: C_20  and  C_23
REMARK    7  A    between atoms: C_31  and  C_32
REMARK                            x       y       z     vdW  Elec       q    Type
REMARK                         _______ _______ _______ _____ _____    ______ ____
ROOT
ATOM      2  O   UNL     1       3.308   1.027   1.145  0.00  0.00    -0.275 OA
ATOM      5  O   UNL     1      -0.598  -4.455  -1.338  0.00  0.00    -0.270 OA
ATOM      6  N   UNL     1       2.360  -0.827   0.105  0.00  0.00    -0.287 N 
ATOM      7  N   UNL     1       0.344  -2.837   0.061  0.00  0.00    -0.294 N 
ATOM     18  C   UNL     1       1.010  -0.507   0.589  0.00  0.00    +0.179 C 
ATOM     21  C   UNL     1       0.213  -1.737   1.025  0.00  0.00    +0.140 C 
ATOM     22  C   UNL     1       2.475  -1.983  -0.799  0.00  0.00    +0.127 C 
ATOM     23  C   UNL     1       3.407   0.058   0.387  0.00  0.00    +0.219 C 
ATOM     26  C   UNL     1       1.722  -3.193  -0.262  0.00  0.00    +0.127 C 
ATOM     31  C   UNL     1      -0.710  -3.532  -0.533  0.00  0.00    +0.247 C 
ENDROOT
BRANCH  31  32
ATOM      1  F   UNL     1      -4.682  -0.858  -1.288  0.00  0.00    -0.205 F 
ATOM     32  C   UNL     1      -2.080  -3.145  -0.177  0.00  0.00    +0.040 A 
ATOM     33  C   UNL     1      -2.743  -2.166  -0.916  0.00  0.00    +0.051 A 
ATOM     34  C   UNL     1      -2.720  -3.756   0.902  0.00  0.00    +0.013 A 
ATOM     35  C   UNL     1      -4.045  -1.798  -0.578  0.00  0.00    +0.124 A 
ATOM     36  C   UNL     1      -4.022  -3.389   1.241  0.00  0.00    +0.004 A 
ATOM     37  C   UNL     1      -4.685  -2.409   0.501  0.00  0.00    +0.038 A 
ENDBRANCH  31  32
BRANCH  23  20
ATOM      9  N   UNL     1       6.944   0.702   1.393  0.00  0.00    -0.316 NA
ATOM     20  C   UNL     1       4.722  -0.216  -0.287  0.00  0.00    +0.078 C 
ATOM     24  C   UNL     1       5.572  -1.175   0.548  0.00  0.00    +0.028 C 
ATOM     25  C   UNL     1       5.476   1.087  -0.560  0.00  0.00    +0.028 C 
ATOM     28  C   UNL     1       6.187  -0.491   1.770  0.00  0.00    +0.081 C 
ATOM     29  C   UNL     1       6.095   1.676   0.709  0.00  0.00    +0.081 C 
ATOM     39  H   UNL     1       7.341   1.129   2.229  0.00  0.00    +0.122 HD
ENDBRANCH  23  20
BRANCH  18  27
ATOM      3  O   UNL     1       0.103  -0.294  -1.611  0.00  0.00    -0.274 OA
ATOM      8  N   UNL     1       0.008   1.533  -0.172  0.00  0.00    -0.302 N 
ATOM     27  C   UNL     1       0.323   0.231  -0.523  0.00  0.00    +0.236 C 
ATOM     38  H   UNL     1       0.306   1.893   0.730  0.00  0.00    +0.150 HD
BRANCH   8  19
ATOM     19  C   UNL     1      -0.638   2.460  -1.072  0.00  0.00    +0.159 C 
BRANCH  19  30
ATOM      4  O   UNL     1       1.546   3.432  -1.508  0.00  0.00    -0.274 OA
ATOM     10  N   UNL     1      -0.003   3.416  -3.203  0.00  0.00    -0.328 N 
ATOM     30  C   UNL     1       0.428   3.137  -1.923  0.00  0.00    +0.231 C 
ATOM     40  H   UNL     1       0.609   3.874  -3.870  0.00  0.00    +0.145 HD
ATOM     41  H   UNL     1      -0.936   3.183  -3.528  0.00  0.00    +0.145 HD
ENDBRANCH  19  30
BRANCH  19  14
ATOM     14  C   UNL     1      -1.530   3.461  -0.331  0.00  0.00    +0.035 C 
BRANCH  14  11
ATOM     11  C   UNL     1      -2.590   2.816   0.560  0.00  0.00    -0.009 C 
ATOM     12  C   UNL     1      -3.776   2.323  -0.280  0.00  0.00    +0.003 C 
ATOM     13  C   UNL     1      -3.058   3.797   1.643  0.00  0.00    +0.003 C 
ATOM     15  C   UNL     1      -4.875   1.722   0.594  0.00  0.00    +0.000 C 
ATOM     16  C   UNL     1      -4.158   3.193   2.514  0.00  0.00    +0.000 C 
ATOM     17  C   UNL     1      -5.331   2.696   1.675  0.00  0.00    +0.000 C 
ENDBRANCH  14  11
ENDBRANCH  19  14
ENDBRANCH   8  19
ENDBRANCH  18  27
TORSDOF 7
