MODEL 1
REMARK VINA RESULT:      -7.4      0.000      0.000
REMARK  Name = 71693982
REMARK  7 active torsions:
REMARK  status: ('A' for Active; 'I' for Inactive)
REMARK    1  A    between atoms: O_4  and  C_12
REMARK    2  A    between atoms: O_5  and  C_14
REMARK    3  A    between atoms: N_7  and  C_11
REMARK    4  A    between atoms: C_10  and  C_15
REMARK    5  A    between atoms: C_18  and  C_20
REMARK    6  A    between atoms: C_21  and  C_22
REMARK    7  A    between atoms: C_27  and  C_28
REMARK                            x       y       z     vdW  Elec       q    Type
REMARK                         _______ _______ _______ _____ _____    ______ ____
ROOT
ATOM     10  C   UNL     1      14.020   9.075  18.971  0.00  0.00    +0.046 C 
ATOM     11  C   UNL     1      12.804   8.842  19.896  0.00  0.00    +0.112 C 
ATOM     12  C   UNL     1      11.610   8.956  18.948  0.00  0.00    +0.164 C 
ATOM     13  C   UNL     1      13.538   8.720  17.541  0.00  0.00    +0.044 C 
ATOM     14  C   UNL     1      12.095   8.241  17.694  0.00  0.00    +0.145 C 
ENDROOT
BRANCH  10  15
ATOM      8  N   UNL     1      17.330   8.311  20.660  0.00  0.00    -0.251 NA
ATOM     15  C   UNL     1      15.257   8.323  19.417  0.00  0.00    -0.024 A 
ATOM     16  C   UNL     1      15.473   7.007  19.027  0.00  0.00    +0.007 A 
ATOM     17  C   UNL     1      16.205   8.925  20.227  0.00  0.00    +0.115 A 
ATOM     19  C   UNL     1      16.619   6.342  19.452  0.00  0.00    +0.032 A 
ATOM     21  C   UNL     1      17.508   7.032  20.261  0.00  0.00    +0.144 A 
BRANCH  21  22
ATOM      1  F   UNL     1      18.777   6.150  22.086  0.00  0.00    -0.164 F 
ATOM      2  F   UNL     1      19.892   7.037  20.452  0.00  0.00    -0.164 F 
ATOM      3  F   UNL     1      18.911   5.115  20.179  0.00  0.00    -0.164 F 
ATOM     22  C   UNL     1      18.747   6.350  20.735  0.00  0.00    +0.434 C 
ENDBRANCH  21  22
ENDBRANCH  10  15
BRANCH  11   7
ATOM      6  O   UNL     1      11.506   8.517  22.437  0.00  0.00    -0.270 OA
ATOM      7  N   UNL     1      12.740   9.811  20.960  0.00  0.00    -0.305 N 
ATOM     18  C   UNL     1      12.087   9.563  22.160  0.00  0.00    +0.244 C 
ATOM     29  H   UNL     1      13.179  10.709  20.790  0.00  0.00    +0.149 HD
BRANCH  18  20
ATOM     20  C   UNL     1      12.089  10.675  23.145  0.00  0.00    +0.037 A 
ATOM     23  C   UNL     1      13.226  11.466  23.302  0.00  0.00    +0.014 A 
ATOM     24  C   UNL     1      10.951  10.928  23.913  0.00  0.00    +0.014 A 
ATOM     25  C   UNL     1      13.227  12.512  24.226  0.00  0.00    +0.019 A 
ATOM     26  C   UNL     1      10.952  11.973  24.837  0.00  0.00    +0.019 A 
ATOM     27  C   UNL     1      12.090  12.765  24.993  0.00  0.00    +0.052 A 
BRANCH  27  28
ATOM      9  N   UNL     1      12.092  14.705  26.708  0.00  0.00    -0.191 NA
ATOM     28  C   UNL     1      12.091  13.835  25.940  0.00  0.00    +0.099 C 
ENDBRANCH  27  28
ENDBRANCH  18  20
ENDBRANCH  11   7
BRANCH  12   4
ATOM      4  O   UNL     1      10.449   8.338  19.473  0.00  0.00    -0.387 OA
ATOM     30  H   UNL     1       9.711   8.960  19.357  0.00  0.00    +0.210 HD
ENDBRANCH  12   4
BRANCH  14   5
ATOM      5  O   UNL     1      12.100   6.829  17.880  0.00  0.00    -0.389 OA
ATOM     31  H   UNL     1      12.817   6.464  17.332  0.00  0.00    +0.210 HD
ENDBRANCH  14   5
TORSDOF 7
ENDMDL
MODEL 2
REMARK VINA RESULT:      -7.3      4.184      7.658
REMARK  Name = 71693982
REMARK  7 active torsions:
REMARK  status: ('A' for Active; 'I' for Inactive)
REMARK    1  A    between atoms: O_4  and  C_12
REMARK    2  A    between atoms: O_5  and  C_14
REMARK    3  A    between atoms: N_7  and  C_11
REMARK    4  A    between atoms: C_10  and  C_15
REMARK    5  A    between atoms: C_18  and  C_20
REMARK    6  A    between atoms: C_21  and  C_22
REMARK    7  A    between atoms: C_27  and  C_28
REMARK                            x       y       z     vdW  Elec       q    Type
REMARK                         _______ _______ _______ _____ _____    ______ ____
ROOT
ATOM     10  C   UNL     1      12.512   8.930  21.885  0.00  0.00    +0.046 C 
ATOM     11  C   UNL     1      12.794   7.723  20.962  0.00  0.00    +0.112 C 
ATOM     12  C   UNL     1      11.900   6.623  21.533  0.00  0.00    +0.164 C 
ATOM     13  C   UNL     1      11.115   8.669  22.507  0.00  0.00    +0.044 C 
ATOM     14  C   UNL     1      10.617   7.367  21.883  0.00  0.00    +0.145 C 
ENDROOT
BRANCH  10  15
ATOM      8  N   UNL     1      12.366  12.663  21.223  0.00  0.00    -0.251 NA
ATOM     15  C   UNL     1      12.640  10.262  21.175  0.00  0.00    -0.024 A 
ATOM     16  C   UNL     1      13.126  10.335  19.874  0.00  0.00    +0.007 A 
ATOM     17  C   UNL     1      12.277  11.443  21.800  0.00  0.00    +0.115 A 
ATOM     19  C   UNL     1      13.232  11.572  19.247  0.00  0.00    +0.032 A 
ATOM     21  C   UNL     1      12.843  12.696  19.959  0.00  0.00    +0.144 A 
BRANCH  21  22
ATOM      1  F   UNL     1      13.884  14.848  19.889  0.00  0.00    -0.164 F 
ATOM      2  F   UNL     1      11.782  14.756  19.364  0.00  0.00    -0.164 F 
ATOM      3  F   UNL     1      13.278  13.966  17.997  0.00  0.00    -0.164 F 
ATOM     22  C   UNL     1      12.943  14.040  19.317  0.00  0.00    +0.434 C 
ENDBRANCH  21  22
ENDBRANCH  10  15
BRANCH  11   7
ATOM      6  O   UNL     1      14.432   7.129  18.679  0.00  0.00    -0.270 OA
ATOM      7  N   UNL     1      14.185   7.346  20.975  0.00  0.00    -0.305 N 
ATOM     18  C   UNL     1      14.898   7.077  19.814  0.00  0.00    +0.244 C 
ATOM     29  H   UNL     1      14.629   7.261  21.883  0.00  0.00    +0.149 HD
BRANCH  18  20
ATOM     20  C   UNL     1      16.316   6.676  19.999  0.00  0.00    +0.037 A 
ATOM     23  C   UNL     1      16.938   5.857  19.057  0.00  0.00    +0.014 A 
ATOM     24  C   UNL     1      17.026   7.121  21.114  0.00  0.00    +0.014 A 
ATOM     25  C   UNL     1      18.271   5.482  19.230  0.00  0.00    +0.019 A 
ATOM     26  C   UNL     1      18.359   6.746  21.287  0.00  0.00    +0.019 A 
ATOM     27  C   UNL     1      18.981   5.927  20.344  0.00  0.00    +0.052 A 
BRANCH  27  28
ATOM      9  N   UNL     1      21.454   5.230  20.668  0.00  0.00    -0.191 NA
ATOM     28  C   UNL     1      20.345   5.542  20.522  0.00  0.00    +0.099 C 
ENDBRANCH  27  28
ENDBRANCH  18  20
ENDBRANCH  11   7
BRANCH  12   4
ATOM      4  O   UNL     1      11.653   5.592  20.594  0.00  0.00    -0.387 OA
ATOM     30  H   UNL     1      10.850   5.124  20.880  0.00  0.00    +0.210 HD
ENDBRANCH  12   4
BRANCH  14   5
ATOM      5  O   UNL     1       9.871   7.678  20.711  0.00  0.00    -0.389 OA
ATOM     31  H   UNL     1       8.931   7.531  20.915  0.00  0.00    +0.210 HD
ENDBRANCH  14   5
TORSDOF 7
ENDMDL
MODEL 3
REMARK VINA RESULT:      -7.2      4.399      7.445
REMARK  Name = 71693982
REMARK  7 active torsions:
REMARK  status: ('A' for Active; 'I' for Inactive)
REMARK    1  A    between atoms: O_4  and  C_12
REMARK    2  A    between atoms: O_5  and  C_14
REMARK    3  A    between atoms: N_7  and  C_11
REMARK    4  A    between atoms: C_10  and  C_15
REMARK    5  A    between atoms: C_18  and  C_20
REMARK    6  A    between atoms: C_21  and  C_22
REMARK    7  A    between atoms: C_27  and  C_28
REMARK                            x       y       z     vdW  Elec       q    Type
REMARK                         _______ _______ _______ _____ _____    ______ ____
ROOT
ATOM     10  C   UNL     1      13.294   9.231  20.332  0.00  0.00    +0.046 C 
ATOM     11  C   UNL     1      13.471   7.697  20.409  0.00  0.00    +0.112 C 
ATOM     12  C   UNL     1      12.548   7.290  21.557  0.00  0.00    +0.164 C 
ATOM     13  C   UNL     1      11.915   9.529  20.977  0.00  0.00    +0.044 C 
ATOM     14  C   UNL     1      11.323   8.170  21.344  0.00  0.00    +0.145 C 
ENDROOT
BRANCH  10  15
ATOM      8  N   UNL     1      14.468  11.400  17.450  0.00  0.00    -0.251 NA
ATOM     15  C   UNL     1      13.458   9.777  18.929  0.00  0.00    -0.024 A 
ATOM     16  C   UNL     1      12.790   9.201  17.854  0.00  0.00    +0.007 A 
ATOM     17  C   UNL     1      14.278  10.864  18.677  0.00  0.00    +0.115 A 
ATOM     19  C   UNL     1      12.960   9.724  16.577  0.00  0.00    +0.032 A 
ATOM     21  C   UNL     1      13.803  10.814  16.430  0.00  0.00    +0.144 A 
BRANCH  21  22
ATOM      1  F   UNL     1      14.364  12.721  15.098  0.00  0.00    -0.164 F 
ATOM      2  F   UNL     1      12.900  11.346  14.279  0.00  0.00    -0.164 F 
ATOM      3  F   UNL     1      14.994  10.771  14.373  0.00  0.00    -0.164 F 
ATOM     22  C   UNL     1      14.009  11.402  15.073  0.00  0.00    +0.434 C 
ENDBRANCH  21  22
ENDBRANCH  10  15
BRANCH  11   7
ATOM      6  O   UNL     1      15.413   6.881  18.458  0.00  0.00    -0.270 OA
ATOM      7  N   UNL     1      14.839   7.324  20.661  0.00  0.00    -0.305 N 
ATOM     18  C   UNL     1      15.709   6.941  19.648  0.00  0.00    +0.244 C 
ATOM     29  H   UNL     1      15.147   7.327  21.628  0.00  0.00    +0.149 HD
BRANCH  18  20
ATOM     20  C   UNL     1      17.080   6.560  20.075  0.00  0.00    +0.037 A 
ATOM     23  C   UNL     1      17.799   5.611  19.348  0.00  0.00    +0.014 A 
ATOM     24  C   UNL     1      17.649   7.153  21.202  0.00  0.00    +0.014 A 
ATOM     25  C   UNL     1      19.087   5.255  19.749  0.00  0.00    +0.019 A 
ATOM     26  C   UNL     1      18.937   6.797  21.603  0.00  0.00    +0.019 A 
ATOM     27  C   UNL     1      19.656   5.848  20.876  0.00  0.00    +0.052 A 
BRANCH  27  28
ATOM      9  N   UNL     1      22.046   5.188  21.620  0.00  0.00    -0.191 NA
ATOM     28  C   UNL     1      20.974   5.483  21.287  0.00  0.00    +0.099 C 
ENDBRANCH  27  28
ENDBRANCH  18  20
ENDBRANCH  11   7
BRANCH  12   4
ATOM      4  O   UNL     1      12.206   5.917  21.508  0.00  0.00    -0.387 OA
ATOM     30  H   UNL     1      11.240   5.861  21.411  0.00  0.00    +0.210 HD
ENDBRANCH  12   4
BRANCH  14   5
ATOM      5  O   UNL     1      10.541   7.702  20.250  0.00  0.00    -0.389 OA
ATOM     31  H   UNL     1      10.678   8.317  19.508  0.00  0.00    +0.210 HD
ENDBRANCH  14   5
TORSDOF 7
ENDMDL
MODEL 4
REMARK VINA RESULT:      -6.7      4.127      7.341
REMARK  Name = 71693982
REMARK  7 active torsions:
REMARK  status: ('A' for Active; 'I' for Inactive)
REMARK    1  A    between atoms: O_4  and  C_12
REMARK    2  A    between atoms: O_5  and  C_14
REMARK    3  A    between atoms: N_7  and  C_11
REMARK    4  A    between atoms: C_10  and  C_15
REMARK    5  A    between atoms: C_18  and  C_20
REMARK    6  A    between atoms: C_21  and  C_22
REMARK    7  A    between atoms: C_27  and  C_28
REMARK                            x       y       z     vdW  Elec       q    Type
REMARK                         _______ _______ _______ _____ _____    ______ ____
ROOT
ATOM     10  C   UNL     1      12.381   8.413  19.485  0.00  0.00    +0.046 C 
ATOM     11  C   UNL     1      13.696   8.749  18.745  0.00  0.00    +0.112 C 
ATOM     12  C   UNL     1      13.497   8.123  17.365  0.00  0.00    +0.164 C 
ATOM     13  C   UNL     1      11.323   8.170  18.377  0.00  0.00    +0.044 C 
ATOM     14  C   UNL     1      12.038   8.431  17.053  0.00  0.00    +0.145 C 
ENDROOT
BRANCH  10  15
ATOM      8  N   UNL     1      12.091  11.762  21.243  0.00  0.00    -0.251 NA
ATOM     15  C   UNL     1      11.989   9.463  20.503  0.00  0.00    -0.024 A 
ATOM     16  C   UNL     1      11.198   9.137  21.599  0.00  0.00    +0.007 A 
ATOM     17  C   UNL     1      12.405  10.778  20.371  0.00  0.00    +0.115 A 
ATOM     19  C   UNL     1      10.854  10.123  22.518  0.00  0.00    +0.032 A 
ATOM     21  C   UNL     1      11.322  11.408  22.296  0.00  0.00    +0.144 A 
BRANCH  21  22
ATOM      1  F   UNL     1      10.111  13.420  22.751  0.00  0.00    -0.164 F 
ATOM      2  F   UNL     1      12.051  13.206  23.696  0.00  0.00    -0.164 F 
ATOM      3  F   UNL     1      10.369  12.014  24.389  0.00  0.00    -0.164 F 
ATOM     22  C   UNL     1      10.972  12.491  23.262  0.00  0.00    +0.434 C 
ENDBRANCH  21  22
ENDBRANCH  10  15
BRANCH  11   7
ATOM      6  O   UNL     1      15.806  10.242  19.994  0.00  0.00    -0.270 OA
ATOM      7  N   UNL     1      14.849   8.210  19.419  0.00  0.00    -0.305 N 
ATOM     18  C   UNL     1      15.822   9.014  19.997  0.00  0.00    +0.244 C 
ATOM     29  H   UNL     1      14.939   7.200  19.438  0.00  0.00    +0.149 HD
BRANCH  18  20
ATOM     20  C   UNL     1      16.963   8.304  20.631  0.00  0.00    +0.037 A 
ATOM     23  C   UNL     1      17.179   6.953  20.363  0.00  0.00    +0.014 A 
ATOM     24  C   UNL     1      17.817   8.991  21.494  0.00  0.00    +0.014 A 
ATOM     25  C   UNL     1      18.251   6.287  20.957  0.00  0.00    +0.019 A 
ATOM     26  C   UNL     1      18.890   8.325  22.089  0.00  0.00    +0.019 A 
ATOM     27  C   UNL     1      19.107   6.973  21.820  0.00  0.00    +0.052 A 
BRANCH  27  28
ATOM      9  N   UNL     1      21.094   5.736  22.925  0.00  0.00    -0.191 NA
ATOM     28  C   UNL     1      20.204   6.291  22.429  0.00  0.00    +0.099 C 
ENDBRANCH  27  28
ENDBRANCH  18  20
ENDBRANCH  11   7
BRANCH  12   4
ATOM      4  O   UNL     1      14.357   8.686  16.392  0.00  0.00    -0.387 OA
ATOM     30  H   UNL     1      14.396   8.067  15.643  0.00  0.00    +0.210 HD
ENDBRANCH  12   4
BRANCH  14   5
ATOM      5  O   UNL     1      11.868   9.801  16.704  0.00  0.00    -0.389 OA
ATOM     31  H   UNL     1      11.855   9.856  15.733  0.00  0.00    +0.210 HD
ENDBRANCH  14   5
TORSDOF 7
ENDMDL
MODEL 5
REMARK VINA RESULT:      -6.5      4.947      8.196
REMARK  Name = 71693982
REMARK  7 active torsions:
REMARK  status: ('A' for Active; 'I' for Inactive)
REMARK    1  A    between atoms: O_4  and  C_12
REMARK    2  A    between atoms: O_5  and  C_14
REMARK    3  A    between atoms: N_7  and  C_11
REMARK    4  A    between atoms: C_10  and  C_15
REMARK    5  A    between atoms: C_18  and  C_20
REMARK    6  A    between atoms: C_21  and  C_22
REMARK    7  A    between atoms: C_27  and  C_28
REMARK                            x       y       z     vdW  Elec       q    Type
REMARK                         _______ _______ _______ _____ _____    ______ ____
ROOT
ATOM     10  C   UNL     1      13.025   9.132  21.080  0.00  0.00    +0.046 C 
ATOM     11  C   UNL     1      12.676   8.850  19.601  0.00  0.00    +0.112 C 
ATOM     12  C   UNL     1      12.767   7.328  19.499  0.00  0.00    +0.164 C 
ATOM     13  C   UNL     1      12.714   7.820  21.846  0.00  0.00    +0.044 C 
ATOM     14  C   UNL     1      12.144   6.856  20.806  0.00  0.00    +0.145 C 
ENDROOT
BRANCH  10  15
ATOM      8  N   UNL     1      10.928  11.344  23.338  0.00  0.00    -0.251 NA
ATOM     15  C   UNL     1      12.326  10.357  21.631  0.00  0.00    -0.024 A 
ATOM     16  C   UNL     1      12.416  11.584  20.984  0.00  0.00    +0.007 A 
ATOM     17  C   UNL     1      11.577  10.290  22.794  0.00  0.00    +0.115 A 
ATOM     19  C   UNL     1      11.763  12.692  21.513  0.00  0.00    +0.032 A 
ATOM     21  C   UNL     1      11.039  12.521  22.682  0.00  0.00    +0.144 A 
BRANCH  21  22
ATOM      1  F   UNL     1       9.299  14.153  22.506  0.00  0.00    -0.164 F 
ATOM      2  F   UNL     1      11.129  14.770  23.491  0.00  0.00    -0.164 F 
ATOM      3  F   UNL     1       9.769  13.400  24.490  0.00  0.00    -0.164 F 
ATOM     22  C   UNL     1      10.325  13.688  23.278  0.00  0.00    +0.434 C 
ENDBRANCH  21  22
ENDBRANCH  10  15
BRANCH  11   7
ATOM      6  O   UNL     1      12.170   9.541  16.860  0.00  0.00    -0.270 OA
ATOM      7  N   UNL     1      13.586   9.505  18.697  0.00  0.00    -0.305 N 
ATOM     18  C   UNL     1      13.251   9.800  17.382  0.00  0.00    +0.244 C 
ATOM     29  H   UNL     1      14.509   9.728  19.054  0.00  0.00    +0.149 HD
BRANCH  18  20
ATOM     20  C   UNL     1      14.310  10.453  16.570  0.00  0.00    +0.037 A 
ATOM     23  C   UNL     1      15.038  11.518  17.100  0.00  0.00    +0.014 A 
ATOM     24  C   UNL     1      14.577  10.000  15.278  0.00  0.00    +0.014 A 
ATOM     25  C   UNL     1      16.034  12.130  16.338  0.00  0.00    +0.019 A 
ATOM     26  C   UNL     1      15.573  10.612  14.516  0.00  0.00    +0.019 A 
ATOM     27  C   UNL     1      16.302  11.677  15.047  0.00  0.00    +0.052 A 
BRANCH  27  28
ATOM      9  N   UNL     1      18.147  12.813  13.630  0.00  0.00    -0.191 NA
ATOM     28  C   UNL     1      17.321  12.304  14.266  0.00  0.00    +0.099 C 
ENDBRANCH  27  28
ENDBRANCH  18  20
ENDBRANCH  11   7
BRANCH  12   4
ATOM      4  O   UNL     1      12.057   6.823  18.383  0.00  0.00    -0.387 OA
ATOM     30  H   UNL     1      11.233   7.333  18.307  0.00  0.00    +0.210 HD
ENDBRANCH  12   4
BRANCH  14   5
ATOM      5  O   UNL     1      10.728   6.999  20.779  0.00  0.00    -0.389 OA
ATOM     31  H   UNL     1      10.342   6.124  20.959  0.00  0.00    +0.210 HD
ENDBRANCH  14   5
TORSDOF 7
ENDMDL
MODEL 6
REMARK VINA RESULT:      -6.4     29.416     32.067
REMARK  Name = 71693982
REMARK  7 active torsions:
REMARK  status: ('A' for Active; 'I' for Inactive)
REMARK    1  A    between atoms: O_4  and  C_12
REMARK    2  A    between atoms: O_5  and  C_14
REMARK    3  A    between atoms: N_7  and  C_11
REMARK    4  A    between atoms: C_10  and  C_15
REMARK    5  A    between atoms: C_18  and  C_20
REMARK    6  A    between atoms: C_21  and  C_22
REMARK    7  A    between atoms: C_27  and  C_28
REMARK                            x       y       z     vdW  Elec       q    Type
REMARK                         _______ _______ _______ _____ _____    ______ ____
ROOT
ATOM     10  C   UNL     1     -17.303   4.794  32.622  0.00  0.00    +0.046 C 
ATOM     11  C   UNL     1     -16.805   5.033  34.066  0.00  0.00    +0.112 C 
ATOM     12  C   UNL     1     -18.061   5.497  34.802  0.00  0.00    +0.164 C 
ATOM     13  C   UNL     1     -18.831   4.554  32.736  0.00  0.00    +0.044 C 
ATOM     14  C   UNL     1     -19.150   4.599  34.230  0.00  0.00    +0.145 C 
ENDROOT
BRANCH  10  15
ATOM      8  N   UNL     1     -14.989   1.848  32.024  0.00  0.00    -0.251 NA
ATOM     15  C   UNL     1     -16.549   3.691  31.910  0.00  0.00    -0.024 A 
ATOM     16  C   UNL     1     -16.697   3.491  30.542  0.00  0.00    +0.007 A 
ATOM     17  C   UNL     1     -15.691   2.850  32.600  0.00  0.00    +0.115 A 
ATOM     19  C   UNL     1     -15.992   2.470  29.914  0.00  0.00    +0.032 A 
ATOM     21  C   UNL     1     -15.158   1.683  30.694  0.00  0.00    +0.144 A 
BRANCH  21  22
ATOM      1  F   UNL     1     -13.120   0.939  29.686  0.00  0.00    -0.164 F 
ATOM      2  F   UNL     1     -14.963   0.096  28.914  0.00  0.00    -0.164 F 
ATOM      3  F   UNL     1     -14.235  -0.500  30.875  0.00  0.00    -0.164 F 
ATOM     22  C   UNL     1     -14.386   0.578  30.054  0.00  0.00    +0.434 C 
ENDBRANCH  21  22
ENDBRANCH  10  15
BRANCH  11   7
ATOM      6  O   UNL     1     -14.225   4.723  35.288  0.00  0.00    -0.270 OA
ATOM      7  N   UNL     1     -15.755   6.017  34.119  0.00  0.00    -0.305 N 
ATOM     18  C   UNL     1     -14.534   5.776  34.735  0.00  0.00    +0.244 C 
ATOM     29  H   UNL     1     -15.950   6.921  33.702  0.00  0.00    +0.149 HD
BRANCH  18  20
ATOM     20  C   UNL     1     -13.566   6.903  34.728  0.00  0.00    +0.037 A 
ATOM     23  C   UNL     1     -12.904   7.262  35.902  0.00  0.00    +0.014 A 
ATOM     24  C   UNL     1     -13.319   7.601  33.546  0.00  0.00    +0.014 A 
ATOM     25  C   UNL     1     -11.994   8.319  35.895  0.00  0.00    +0.019 A 
ATOM     26  C   UNL     1     -12.408   8.659  33.538  0.00  0.00    +0.019 A 
ATOM     27  C   UNL     1     -11.746   9.017  34.713  0.00  0.00    +0.052 A 
BRANCH  27  28
ATOM      9  N   UNL     1     -10.059  10.981  34.697  0.00  0.00    -0.191 NA
ATOM     28  C   UNL     1     -10.815  10.100  34.705  0.00  0.00    +0.099 C 
ENDBRANCH  27  28
ENDBRANCH  18  20
ENDBRANCH  11   7
BRANCH  12   4
ATOM      4  O   UNL     1     -17.950   5.335  36.205  0.00  0.00    -0.387 OA
ATOM     30  H   UNL     1     -17.138   5.791  36.487  0.00  0.00    +0.210 HD
ENDBRANCH  12   4
BRANCH  14   5
ATOM      5  O   UNL     1     -19.054   3.280  34.758  0.00  0.00    -0.389 OA
ATOM     31  H   UNL     1     -19.025   2.665  34.004  0.00  0.00    +0.210 HD
ENDBRANCH  14   5
TORSDOF 7
ENDMDL
MODEL 7
REMARK VINA RESULT:      -6.3     27.547     29.297
REMARK  Name = 71693982
REMARK  7 active torsions:
REMARK  status: ('A' for Active; 'I' for Inactive)
REMARK    1  A    between atoms: O_4  and  C_12
REMARK    2  A    between atoms: O_5  and  C_14
REMARK    3  A    between atoms: N_7  and  C_11
REMARK    4  A    between atoms: C_10  and  C_15
REMARK    5  A    between atoms: C_18  and  C_20
REMARK    6  A    between atoms: C_21  and  C_22
REMARK    7  A    between atoms: C_27  and  C_28
REMARK                            x       y       z     vdW  Elec       q    Type
REMARK                         _______ _______ _______ _____ _____    ______ ____
ROOT
ATOM     10  C   UNL     1      -2.998 -10.704  14.716  0.00  0.00    +0.046 C 
ATOM     11  C   UNL     1      -3.550 -11.468  13.491  0.00  0.00    +0.112 C 
ATOM     12  C   UNL     1      -2.292 -12.022  12.822  0.00  0.00    +0.164 C 
ATOM     13  C   UNL     1      -1.611 -11.330  15.015  0.00  0.00    +0.044 C 
ATOM     14  C   UNL     1      -1.437 -12.461  14.004  0.00  0.00    +0.145 C 
ENDROOT
BRANCH  10  15
ATOM      8  N   UNL     1      -6.081 -10.048  16.828  0.00  0.00    -0.251 NA
ATOM     15  C   UNL     1      -3.951 -10.706  15.894  0.00  0.00    -0.024 A 
ATOM     16  C   UNL     1      -3.611 -11.333  17.087  0.00  0.00    +0.007 A 
ATOM     17  C   UNL     1      -5.186 -10.084  15.815  0.00  0.00    +0.115 A 
ATOM     19  C   UNL     1      -4.507 -11.317  18.152  0.00  0.00    +0.032 A 
ATOM     21  C   UNL     1      -5.717 -10.668  17.972  0.00  0.00    +0.144 A 
BRANCH  21  22
ATOM      1  F   UNL     1      -6.946 -11.857  19.645  0.00  0.00    -0.164 F 
ATOM      2  F   UNL     1      -7.928 -10.155  18.729  0.00  0.00    -0.164 F 
ATOM      3  F   UNL     1      -6.291  -9.841  20.126  0.00  0.00    -0.164 F 
ATOM     22  C   UNL     1      -6.702 -10.632  19.094  0.00  0.00    +0.434 C 
ENDBRANCH  21  22
ENDBRANCH  10  15
BRANCH  11   7
ATOM      6  O   UNL     1      -5.565 -12.272  11.610  0.00  0.00    -0.270 OA
ATOM      7  N   UNL     1      -4.294 -10.608  12.608  0.00  0.00    -0.305 N 
ATOM     18  C   UNL     1      -5.255 -11.090  11.728  0.00  0.00    +0.244 C 
ATOM     29  H   UNL     1      -4.072  -9.619  12.634  0.00  0.00    +0.149 HD
BRANCH  18  20
ATOM     20  C   UNL     1      -5.915 -10.077  10.865  0.00  0.00    +0.037 A 
ATOM     23  C   UNL     1      -5.145  -9.149  10.164  0.00  0.00    +0.014 A 
ATOM     24  C   UNL     1      -7.306 -10.056  10.755  0.00  0.00    +0.014 A 
ATOM     25  C   UNL     1      -5.766  -8.199   9.352  0.00  0.00    +0.019 A 
ATOM     26  C   UNL     1      -7.927  -9.106   9.943  0.00  0.00    +0.019 A 
ATOM     27  C   UNL     1      -7.156  -8.178   9.242  0.00  0.00    +0.052 A 
BRANCH  27  28
ATOM      9  N   UNL     1      -8.310  -6.414   7.738  0.00  0.00    -0.191 NA
ATOM     28  C   UNL     1      -7.792  -7.205   8.411  0.00  0.00    +0.099 C 
ENDBRANCH  27  28
ENDBRANCH  18  20
ENDBRANCH  11   7
BRANCH  12   4
ATOM      4  O   UNL     1      -2.577 -13.112  11.965  0.00  0.00    -0.387 OA
ATOM     30  H   UNL     1      -3.178 -12.788  11.272  0.00  0.00    +0.210 HD
ENDBRANCH  12   4
BRANCH  14   5
ATOM      5  O   UNL     1      -1.936 -13.666  14.576  0.00  0.00    -0.389 OA
ATOM     31  H   UNL     1      -2.534 -13.419  15.303  0.00  0.00    +0.210 HD
ENDBRANCH  14   5
TORSDOF 7
ENDMDL
MODEL 8
REMARK VINA RESULT:      -6.3     27.227     29.017
REMARK  Name = 71693982
REMARK  7 active torsions:
REMARK  status: ('A' for Active; 'I' for Inactive)
REMARK    1  A    between atoms: O_4  and  C_12
REMARK    2  A    between atoms: O_5  and  C_14
REMARK    3  A    between atoms: N_7  and  C_11
REMARK    4  A    between atoms: C_10  and  C_15
REMARK    5  A    between atoms: C_18  and  C_20
REMARK    6  A    between atoms: C_21  and  C_22
REMARK    7  A    between atoms: C_27  and  C_28
REMARK                            x       y       z     vdW  Elec       q    Type
REMARK                         _______ _______ _______ _____ _____    ______ ____
ROOT
ATOM     10  C   UNL     1      -6.109 -11.426  16.770  0.00  0.00    +0.046 C 
ATOM     11  C   UNL     1      -6.391 -10.206  17.677  0.00  0.00    +0.112 C 
ATOM     12  C   UNL     1      -6.806 -10.840  19.004  0.00  0.00    +0.164 C 
ATOM     13  C   UNL     1      -5.799 -12.604  17.729  0.00  0.00    +0.044 C 
ATOM     14  C   UNL     1      -5.850 -12.019  19.139  0.00  0.00    +0.145 C 
ENDROOT
BRANCH  10  15
ATOM      8  N   UNL     1      -4.446 -10.669  13.445  0.00  0.00    -0.251 NA
ATOM     15  C   UNL     1      -5.033 -11.161  15.738  0.00  0.00    -0.024 A 
ATOM     16  C   UNL     1      -3.688 -11.159  16.091  0.00  0.00    +0.007 A 
ATOM     17  C   UNL     1      -5.357 -10.912  14.414  0.00  0.00    +0.115 A 
ATOM     19  C   UNL     1      -2.722 -10.913  15.121  0.00  0.00    +0.032 A 
ATOM     21  C   UNL     1      -3.149 -10.675  13.824  0.00  0.00    +0.144 A 
BRANCH  21  22
ATOM      1  F   UNL     1      -2.668  -9.833  11.638  0.00  0.00    -0.164 F 
ATOM      2  F   UNL     1      -1.501 -11.530  12.316  0.00  0.00    -0.164 F 
ATOM      3  F   UNL     1      -1.152  -9.563  13.172  0.00  0.00    -0.164 F 
ATOM     22  C   UNL     1      -2.140 -10.408  12.759  0.00  0.00    +0.434 C 
ENDBRANCH  21  22
ENDBRANCH  10  15
BRANCH  11   7
ATOM      6  O   UNL     1      -9.150 -10.900  17.294  0.00  0.00    -0.270 OA
ATOM      7  N   UNL     1      -7.424  -9.359  17.139  0.00  0.00    -0.305 N 
ATOM     18  C   UNL     1      -8.738  -9.784  16.991  0.00  0.00    +0.244 C 
ATOM     29  H   UNL     1      -7.148  -8.428  16.844  0.00  0.00    +0.149 HD
BRANCH  18  20
ATOM     20  C   UNL     1      -9.678  -8.799  16.395  0.00  0.00    +0.037 A 
ATOM     23  C   UNL     1     -10.082  -7.687  17.133  0.00  0.00    +0.014 A 
ATOM     24  C   UNL     1     -10.154  -8.987  15.098  0.00  0.00    +0.014 A 
ATOM     25  C   UNL     1     -10.964  -6.761  16.573  0.00  0.00    +0.019 A 
ATOM     26  C   UNL     1     -11.035  -8.062  14.537  0.00  0.00    +0.019 A 
ATOM     27  C   UNL     1     -11.439  -6.949  15.275  0.00  0.00    +0.052 A 
BRANCH  27  28
ATOM      9  N   UNL     1     -13.076  -5.232  14.237  0.00  0.00    -0.191 NA
ATOM     28  C   UNL     1     -12.342  -6.002  14.701  0.00  0.00    +0.099 C 
ENDBRANCH  27  28
ENDBRANCH  18  20
ENDBRANCH  11   7
BRANCH  12   4
ATOM      4  O   UNL     1      -6.669  -9.944  20.092  0.00  0.00    -0.387 OA
ATOM     30  H   UNL     1      -6.466 -10.474  20.882  0.00  0.00    +0.210 HD
ENDBRANCH  12   4
BRANCH  14   5
ATOM      5  O   UNL     1      -4.544 -11.579  19.499  0.00  0.00    -0.389 OA
ATOM     31  H   UNL     1      -4.369 -10.755  19.012  0.00  0.00    +0.210 HD
ENDBRANCH  14   5
TORSDOF 7
ENDMDL
MODEL 9
REMARK VINA RESULT:      -6.3     28.338     30.412
REMARK  Name = 71693982
REMARK  7 active torsions:
REMARK  status: ('A' for Active; 'I' for Inactive)
REMARK    1  A    between atoms: O_4  and  C_12
REMARK    2  A    between atoms: O_5  and  C_14
REMARK    3  A    between atoms: N_7  and  C_11
REMARK    4  A    between atoms: C_10  and  C_15
REMARK    5  A    between atoms: C_18  and  C_20
REMARK    6  A    between atoms: C_21  and  C_22
REMARK    7  A    between atoms: C_27  and  C_28
REMARK                            x       y       z     vdW  Elec       q    Type
REMARK                         _______ _______ _______ _____ _____    ______ ____
ROOT
ATOM     10  C   UNL     1     -16.736   4.356  24.068  0.00  0.00    +0.046 C 
ATOM     11  C   UNL     1     -16.128   3.149  24.819  0.00  0.00    +0.112 C 
ATOM     12  C   UNL     1     -17.251   2.112  24.792  0.00  0.00    +0.164 C 
ATOM     13  C   UNL     1     -17.862   3.775  23.175  0.00  0.00    +0.044 C 
ATOM     14  C   UNL     1     -17.827   2.262  23.390  0.00  0.00    +0.145 C 
ENDROOT
BRANCH  10  15
ATOM      8  N   UNL     1     -13.647   5.229  22.046  0.00  0.00    -0.251 NA
ATOM     15  C   UNL     1     -15.702   5.169  23.318  0.00  0.00    -0.024 A 
ATOM     16  C   UNL     1     -15.824   6.549  23.202  0.00  0.00    +0.007 A 
ATOM     17  C   UNL     1     -14.606   4.562  22.728  0.00  0.00    +0.115 A 
ATOM     19  C   UNL     1     -14.858   7.270  22.507  0.00  0.00    +0.032 A 
ATOM     21  C   UNL     1     -13.799   6.569  21.953  0.00  0.00    +0.144 A 
BRANCH  21  22
ATOM      1  F   UNL     1     -11.520   6.706  21.238  0.00  0.00    -0.164 F 
ATOM      2  F   UNL     1     -12.530   8.577  21.665  0.00  0.00    -0.164 F 
ATOM      3  F   UNL     1     -13.044   7.450  19.878  0.00  0.00    -0.164 F 
ATOM     22  C   UNL     1     -12.744   7.311  21.201  0.00  0.00    +0.434 C 
ENDBRANCH  21  22
ENDBRANCH  10  15
BRANCH  11   7
ATOM      6  O   UNL     1     -17.795   3.063  27.155  0.00  0.00    -0.270 OA
ATOM      7  N   UNL     1     -15.741   3.488  26.164  0.00  0.00    -0.305 N 
ATOM     18  C   UNL     1     -16.621   3.415  27.236  0.00  0.00    +0.244 C 
ATOM     29  H   UNL     1     -14.790   3.811  26.301  0.00  0.00    +0.149 HD
BRANCH  18  20
ATOM     20  C   UNL     1     -16.075   3.825  28.556  0.00  0.00    +0.037 A 
ATOM     23  C   UNL     1     -16.539   4.986  29.173  0.00  0.00    +0.014 A 
ATOM     24  C   UNL     1     -15.099   3.046  29.178  0.00  0.00    +0.014 A 
ATOM     25  C   UNL     1     -16.028   5.369  30.413  0.00  0.00    +0.019 A 
ATOM     26  C   UNL     1     -14.588   3.429  30.418  0.00  0.00    +0.019 A 
ATOM     27  C   UNL     1     -15.053   4.590  31.036  0.00  0.00    +0.052 A 
BRANCH  27  28
ATOM      9  N   UNL     1     -14.104   5.302  33.337  0.00  0.00    -0.191 NA
ATOM     28  C   UNL     1     -14.528   4.983  32.305  0.00  0.00    +0.099 C 
ENDBRANCH  27  28
ENDBRANCH  18  20
ENDBRANCH  11   7
BRANCH  12   4
ATOM      4  O   UNL     1     -16.772   0.798  25.009  0.00  0.00    -0.387 OA
ATOM     30  H   UNL     1     -17.484   0.296  25.442  0.00  0.00    +0.210 HD
ENDBRANCH  12   4
BRANCH  14   5
ATOM      5  O   UNL     1     -16.963   1.683  22.417  0.00  0.00    -0.389 OA
ATOM     31  H   UNL     1     -16.869   2.323  21.691  0.00  0.00    +0.210 HD
ENDBRANCH  14   5
TORSDOF 7
ENDMDL
MODEL 10
REMARK VINA RESULT:      -6.3      3.689      6.375
REMARK  Name = 71693982
REMARK  7 active torsions:
REMARK  status: ('A' for Active; 'I' for Inactive)
REMARK    1  A    between atoms: O_4  and  C_12
REMARK    2  A    between atoms: O_5  and  C_14
REMARK    3  A    between atoms: N_7  and  C_11
REMARK    4  A    between atoms: C_10  and  C_15
REMARK    5  A    between atoms: C_18  and  C_20
REMARK    6  A    between atoms: C_21  and  C_22
REMARK    7  A    between atoms: C_27  and  C_28
REMARK                            x       y       z     vdW  Elec       q    Type
REMARK                         _______ _______ _______ _____ _____    ______ ____
ROOT
ATOM     10  C   UNL     1      14.533   7.454  19.577  0.00  0.00    +0.046 C 
ATOM     11  C   UNL     1      14.343   8.988  19.618  0.00  0.00    +0.112 C 
ATOM     12  C   UNL     1      12.907   9.154  20.113  0.00  0.00    +0.164 C 
ATOM     13  C   UNL     1      13.489   6.872  20.566  0.00  0.00    +0.044 C 
ATOM     14  C   UNL     1      12.782   8.078  21.183  0.00  0.00    +0.145 C 
ENDROOT
BRANCH  10  15
ATOM      8  N   UNL     1      17.936   7.192  21.233  0.00  0.00    -0.251 NA
ATOM     15  C   UNL     1      15.959   7.026  19.851  0.00  0.00    -0.024 A 
ATOM     16  C   UNL     1      16.603   6.112  19.025  0.00  0.00    +0.007 A 
ATOM     17  C   UNL     1      16.662   7.532  20.933  0.00  0.00    +0.115 A 
ATOM     19  C   UNL     1      17.914   5.738  19.302  0.00  0.00    +0.032 A 
ATOM     21  C   UNL     1      18.530   6.301  20.408  0.00  0.00    +0.144 A 
BRANCH  21  22
ATOM      1  F   UNL     1      20.281   4.676  20.297  0.00  0.00    -0.164 F 
ATOM      2  F   UNL     1      20.203   5.916  22.074  0.00  0.00    -0.164 F 
ATOM      3  F   UNL     1      20.849   6.771  20.182  0.00  0.00    -0.164 F 
ATOM     22  C   UNL     1      19.936   5.923  20.735  0.00  0.00    +0.434 C 
ENDBRANCH  21  22
ENDBRANCH  10  15
BRANCH  11   7
ATOM      6  O   UNL     1      15.156  11.691  19.093  0.00  0.00    -0.270 OA
ATOM      7  N   UNL     1      14.540   9.591  18.325  0.00  0.00    -0.305 N 
ATOM     18  C   UNL     1      14.936  10.913  18.169  0.00  0.00    +0.244 C 
ATOM     29  H   UNL     1      14.353   9.011  17.514  0.00  0.00    +0.149 HD
BRANCH  18  20
ATOM     20  C   UNL     1      15.069  11.392  16.769  0.00  0.00    +0.037 A 
ATOM     23  C   UNL     1      14.123  11.024  15.813  0.00  0.00    +0.014 A 
ATOM     24  C   UNL     1      16.140  12.213  16.412  0.00  0.00    +0.014 A 
ATOM     25  C   UNL     1      14.247  11.477  14.499  0.00  0.00    +0.019 A 
ATOM     26  C   UNL     1      16.264  12.665  15.098  0.00  0.00    +0.019 A 
ATOM     27  C   UNL     1      15.317  12.297  14.142  0.00  0.00    +0.052 A 
BRANCH  27  28
ATOM      9  N   UNL     1      15.547  13.136  11.703  0.00  0.00    -0.191 NA
ATOM     28  C   UNL     1      15.445  12.760  12.796  0.00  0.00    +0.099 C 
ENDBRANCH  27  28
ENDBRANCH  18  20
ENDBRANCH  11   7
BRANCH  12   4
ATOM      4  O   UNL     1      12.672  10.442  20.653  0.00  0.00    -0.387 OA
ATOM     30  H   UNL     1      11.752  10.463  20.967  0.00  0.00    +0.210 HD
ENDBRANCH  12   4
BRANCH  14   5
ATOM      5  O   UNL     1      13.474   8.455  22.370  0.00  0.00    -0.389 OA
ATOM     31  H   UNL     1      13.535   7.666  22.936  0.00  0.00    +0.210 HD
ENDBRANCH  14   5
TORSDOF 7
ENDMDL
