MODEL 1
REMARK VINA RESULT:      -6.6      0.000      0.000
REMARK  Name = 75537015
REMARK  2 active torsions:
REMARK  status: ('A' for Active; 'I' for Inactive)
REMARK    1  A    between atoms: N_4  and  C_8
REMARK    2  A    between atoms: C_19  and  C_20
REMARK                            x       y       z     vdW  Elec       q    Type
REMARK                         _______ _______ _______ _____ _____    ______ ____
ROOT
ATOM      1  O   UNL     1      20.450   8.863  21.596  0.00  0.00    -0.252 OA
ATOM      3  O   UNL     1      13.621   9.867  20.704  0.00  0.00    -0.275 OA
ATOM      4  N   UNL     1      19.667   6.699  21.080  0.00  0.00    -0.281 N 
ATOM      5  N   UNL     1      18.220   8.417  21.007  0.00  0.00    -0.278 N 
ATOM      6  N   UNL     1      15.445   8.519  21.198  0.00  0.00    -0.298 N 
ATOM      7  C   UNL     1      17.457   7.276  20.531  0.00  0.00    +0.112 C 
ATOM      9  C   UNL     1      18.382   6.089  20.788  0.00  0.00    +0.133 C 
ATOM     10  C   UNL     1      16.110   7.202  21.243  0.00  0.00    +0.132 C 
ATOM     13  C   UNL     1      17.597   9.727  21.066  0.00  0.00    +0.128 C 
ATOM     14  C   UNL     1      19.558   8.092  21.266  0.00  0.00    +0.305 C 
ATOM     15  C   UNL     1      16.238   9.625  21.756  0.00  0.00    +0.127 C 
ATOM     19  C   UNL     1      14.163   8.760  20.707  0.00  0.00    +0.219 C 
ENDROOT
BRANCH  19  20
ATOM      2  O   UNL     1      10.560   7.819  20.431  0.00  0.00    -0.380 OA
ATOM     20  C   UNL     1      13.424   7.577  20.153  0.00  0.00    +0.079 C 
ATOM     21  C   UNL     1      12.516   8.015  19.005  0.00  0.00    +0.041 C 
ATOM     22  C   UNL     1      12.639   6.860  21.252  0.00  0.00    +0.041 C 
ATOM     23  C   UNL     1      11.234   8.671  19.507  0.00  0.00    +0.160 C 
ATOM     24  C   UNL     1      11.339   7.578  21.601  0.00  0.00    +0.160 C 
ENDBRANCH  19  20
BRANCH   4   8
ATOM      8  C   UNL     1      20.859   5.912  21.281  0.00  0.00    +0.078 C 
ATOM     11  C   UNL     1      20.692   4.520  20.669  0.00  0.00    +0.022 C 
ATOM     12  C   UNL     1      21.208   5.828  22.769  0.00  0.00    +0.022 C 
ATOM     16  C   UNL     1      21.920   3.646  20.914  0.00  0.00    +0.002 C 
ATOM     17  C   UNL     1      22.436   4.954  23.011  0.00  0.00    +0.002 C 
ATOM     18  C   UNL     1      22.268   3.567  22.398  0.00  0.00    +0.000 C 
ENDBRANCH   4   8
TORSDOF 2
ENDMDL
MODEL 2
REMARK VINA RESULT:      -6.5      1.624      2.206
REMARK  Name = 75537015
REMARK  2 active torsions:
REMARK  status: ('A' for Active; 'I' for Inactive)
REMARK    1  A    between atoms: N_4  and  C_8
REMARK    2  A    between atoms: C_19  and  C_20
REMARK                            x       y       z     vdW  Elec       q    Type
REMARK                         _______ _______ _______ _____ _____    ______ ____
ROOT
ATOM      1  O   UNL     1      19.469   8.522  22.639  0.00  0.00    -0.252 OA
ATOM      3  O   UNL     1      13.042   9.091  20.028  0.00  0.00    -0.275 OA
ATOM      4  N   UNL     1      19.372   6.742  21.094  0.00  0.00    -0.281 N 
ATOM      5  N   UNL     1      17.627   8.151  21.228  0.00  0.00    -0.278 N 
ATOM      6  N   UNL     1      14.949   7.864  20.524  0.00  0.00    -0.298 N 
ATOM      7  C   UNL     1      17.299   7.266  20.124  0.00  0.00    +0.112 C 
ATOM      9  C   UNL     1      18.382   6.193  20.184  0.00  0.00    +0.133 C 
ATOM     10  C   UNL     1      15.873   6.742  20.267  0.00  0.00    +0.132 C 
ATOM     13  C   UNL     1      16.718   9.225  21.586  0.00  0.00    +0.128 C 
ATOM     14  C   UNL     1      18.896   7.888  21.762  0.00  0.00    +0.305 C 
ATOM     15  C   UNL     1      15.293   8.685  21.695  0.00  0.00    +0.127 C 
ATOM     19  C   UNL     1      13.812   8.162  19.776  0.00  0.00    +0.219 C 
ENDROOT
BRANCH  19  20
ATOM      2  O   UNL     1      12.521   8.734  16.319  0.00  0.00    -0.380 OA
ATOM     20  C   UNL     1      13.535   7.276  18.597  0.00  0.00    +0.079 C 
ATOM     21  C   UNL     1      14.416   7.683  17.416  0.00  0.00    +0.041 C 
ATOM     22  C   UNL     1      12.051   7.302  18.229  0.00  0.00    +0.041 C 
ATOM     23  C   UNL     1      13.882   8.920  16.703  0.00  0.00    +0.160 C 
ATOM     24  C   UNL     1      11.668   8.556  17.448  0.00  0.00    +0.160 C 
ENDBRANCH  19  20
BRANCH   4   8
ATOM      8  C   UNL     1      20.627   6.077  21.351  0.00  0.00    +0.078 C 
ATOM     11  C   UNL     1      21.788   6.874  20.753  0.00  0.00    +0.022 C 
ATOM     12  C   UNL     1      20.600   4.644  20.814  0.00  0.00    +0.022 C 
ATOM     16  C   UNL     1      23.124   6.166  20.964  0.00  0.00    +0.002 C 
ATOM     17  C   UNL     1      21.937   3.938  21.026  0.00  0.00    +0.002 C 
ATOM     18  C   UNL     1      23.094   4.736  20.431  0.00  0.00    +0.000 C 
ENDBRANCH   4   8
TORSDOF 2
ENDMDL
MODEL 3
REMARK VINA RESULT:      -6.4     18.225     20.916
REMARK  Name = 75537015
REMARK  2 active torsions:
REMARK  status: ('A' for Active; 'I' for Inactive)
REMARK    1  A    between atoms: N_4  and  C_8
REMARK    2  A    between atoms: C_19  and  C_20
REMARK                            x       y       z     vdW  Elec       q    Type
REMARK                         _______ _______ _______ _____ _____    ______ ____
ROOT
ATOM      1  O   UNL     1      12.858   6.611  -0.790  0.00  0.00    -0.252 OA
ATOM      3  O   UNL     1      11.475   7.167   6.009  0.00  0.00    -0.275 OA
ATOM      4  N   UNL     1      10.941   5.261  -0.534  0.00  0.00    -0.281 N 
ATOM      5  N   UNL     1      11.692   6.417   1.241  0.00  0.00    -0.278 N 
ATOM      6  N   UNL     1      11.348   6.050   3.978  0.00  0.00    -0.298 N 
ATOM      7  C   UNL     1      10.460   5.800   1.701  0.00  0.00    +0.112 C 
ATOM      9  C   UNL     1      10.080   4.856   0.563  0.00  0.00    +0.133 C 
ATOM     10  C   UNL     1      10.676   5.120   3.049  0.00  0.00    +0.132 C 
ATOM     13  C   UNL     1      12.445   7.277   2.135  0.00  0.00    +0.128 C 
ATOM     14  C   UNL     1      11.944   6.157  -0.113  0.00  0.00    +0.305 C 
ATOM     15  C   UNL     1      12.625   6.590   3.488  0.00  0.00    +0.127 C 
ATOM     19  C   UNL     1      10.881   6.407   5.241  0.00  0.00    +0.219 C 
ENDROOT
BRANCH  19  20
ATOM      2  O   UNL     1       8.196   7.422   7.629  0.00  0.00    -0.380 OA
ATOM     20  C   UNL     1       9.569   5.814   5.663  0.00  0.00    +0.079 C 
ATOM     21  C   UNL     1       8.424   6.760   5.304  0.00  0.00    +0.041 C 
ATOM     22  C   UNL     1       9.576   5.476   7.155  0.00  0.00    +0.041 C 
ATOM     23  C   UNL     1       8.302   7.913   6.294  0.00  0.00    +0.160 C 
ATOM     24  C   UNL     1       9.363   6.708   8.030  0.00  0.00    +0.160 C 
ENDBRANCH  19  20
BRANCH   4   8
ATOM      8  C   UNL     1      10.828   4.680  -1.850  0.00  0.00    +0.078 C 
ATOM     11  C   UNL     1       9.427   4.913  -2.420  0.00  0.00    +0.022 C 
ATOM     12  C   UNL     1      11.174   3.190  -1.816  0.00  0.00    +0.022 C 
ATOM     16  C   UNL     1       9.262   4.262  -3.791  0.00  0.00    +0.002 C 
ATOM     17  C   UNL     1      11.009   2.542  -3.188  0.00  0.00    +0.002 C 
ATOM     18  C   UNL     1       9.612   2.777  -3.756  0.00  0.00    +0.000 C 
ENDBRANCH   4   8
TORSDOF 2
ENDMDL
MODEL 4
REMARK VINA RESULT:      -6.2      5.660      8.126
REMARK  Name = 75537015
REMARK  2 active torsions:
REMARK  status: ('A' for Active; 'I' for Inactive)
REMARK    1  A    between atoms: N_4  and  C_8
REMARK    2  A    between atoms: C_19  and  C_20
REMARK                            x       y       z     vdW  Elec       q    Type
REMARK                         _______ _______ _______ _____ _____    ______ ____
ROOT
ATOM      1  O   UNL     1      10.812  11.225  25.502  0.00  0.00    -0.252 OA
ATOM      3  O   UNL     1      11.458   8.237  19.249  0.00  0.00    -0.275 OA
ATOM      4  N   UNL     1      12.901  12.025  24.753  0.00  0.00    -0.281 N 
ATOM      5  N   UNL     1      11.667  10.762  23.362  0.00  0.00    -0.278 N 
ATOM      6  N   UNL     1      12.355   9.217  21.152  0.00  0.00    -0.298 N 
ATOM      7  C   UNL     1      12.809  11.175  22.566  0.00  0.00    +0.112 C 
ATOM      9  C   UNL     1      13.734  11.847  23.577  0.00  0.00    +0.133 C 
ATOM     10  C   UNL     1      13.416   9.976  21.843  0.00  0.00    +0.132 C 
ATOM     13  C   UNL     1      10.629   9.943  22.764  0.00  0.00    +0.128 C 
ATOM     14  C   UNL     1      11.681  11.327  24.645  0.00  0.00    +0.305 C 
ATOM     15  C   UNL     1      11.259   8.765  22.022  0.00  0.00    +0.127 C 
ATOM     19  C   UNL     1      12.345   8.895  19.796  0.00  0.00    +0.219 C 
ENDROOT
BRANCH  19  20
ATOM      2  O   UNL     1      13.606   8.211  16.349  0.00  0.00    -0.380 OA
ATOM     20  C   UNL     1      13.500   9.396  18.980  0.00  0.00    +0.079 C 
ATOM     21  C   UNL     1      12.989  10.111  17.730  0.00  0.00    +0.041 C 
ATOM     22  C   UNL     1      14.457   8.257  18.627  0.00  0.00    +0.041 C 
ATOM     23  C   UNL     1      12.557   9.130  16.646  0.00  0.00    +0.160 C 
ATOM     24  C   UNL     1      13.941   7.401  17.474  0.00  0.00    +0.160 C 
ENDBRANCH  19  20
BRANCH   4   8
ATOM      8  C   UNL     1      13.369  12.728  25.922  0.00  0.00    +0.078 C 
ATOM     11  C   UNL     1      13.477  14.228  25.639  0.00  0.00    +0.022 C 
ATOM     12  C   UNL     1      14.704  12.154  26.402  0.00  0.00    +0.022 C 
ATOM     16  C   UNL     1      14.021  14.991  26.844  0.00  0.00    +0.002 C 
ATOM     17  C   UNL     1      15.246  12.919  27.607  0.00  0.00    +0.002 C 
ATOM     18  C   UNL     1      15.351  14.414  27.322  0.00  0.00    +0.000 C 
ENDBRANCH   4   8
TORSDOF 2
ENDMDL
MODEL 5
REMARK VINA RESULT:      -6.1      5.822      8.161
REMARK  Name = 75537015
REMARK  2 active torsions:
REMARK  status: ('A' for Active; 'I' for Inactive)
REMARK    1  A    between atoms: N_4  and  C_8
REMARK    2  A    between atoms: C_19  and  C_20
REMARK                            x       y       z     vdW  Elec       q    Type
REMARK                         _______ _______ _______ _____ _____    ______ ____
ROOT
ATOM      1  O   UNL     1      10.587   8.090  20.240  0.00  0.00    -0.252 OA
ATOM      3  O   UNL     1      11.885  12.143  25.748  0.00  0.00    -0.275 OA
ATOM      4  N   UNL     1      12.642   9.099  19.674  0.00  0.00    -0.281 N 
ATOM      5  N   UNL     1      11.763   9.504  21.702  0.00  0.00    -0.278 N 
ATOM      6  N   UNL     1      12.140  11.588  23.508  0.00  0.00    -0.298 N 
ATOM      7  C   UNL     1      13.055  10.167  21.725  0.00  0.00    +0.112 C 
ATOM      9  C   UNL     1      13.541  10.065  20.281  0.00  0.00    +0.133 C 
ATOM     10  C   UNL     1      12.914  11.592  22.252  0.00  0.00    +0.132 C 
ATOM     13  C   UNL     1      10.916   9.535  22.881  0.00  0.00    +0.128 C 
ATOM     14  C   UNL     1      11.544   8.805  20.508  0.00  0.00    +0.305 C 
ATOM     15  C   UNL     1      10.812  10.965  23.409  0.00  0.00    +0.127 C 
ATOM     19  C   UNL     1      12.562  12.137  24.718  0.00  0.00    +0.219 C 
ENDROOT
BRANCH  19  20
ATOM      2  O   UNL     1      15.180  12.629  27.334  0.00  0.00    -0.380 OA
ATOM     20  C   UNL     1      13.931  12.751  24.734  0.00  0.00    +0.079 C 
ATOM     21  C   UNL     1      14.975  11.698  25.101  0.00  0.00    +0.041 C 
ATOM     22  C   UNL     1      13.982  13.950  25.681  0.00  0.00    +0.041 C 
ATOM     23  C   UNL     1      15.005  11.419  26.600  0.00  0.00    +0.160 C 
ATOM     24  C   UNL     1      14.092  13.532  27.143  0.00  0.00    +0.160 C 
ENDBRANCH  19  20
BRANCH   4   8
ATOM      8  C   UNL     1      12.823   8.632  18.322  0.00  0.00    +0.078 C 
ATOM     11  C   UNL     1      14.215   8.021  18.146  0.00  0.00    +0.022 C 
ATOM     12  C   UNL     1      12.580   9.763  17.320  0.00  0.00    +0.022 C 
ATOM     16  C   UNL     1      14.453   7.566  16.708  0.00  0.00    +0.002 C 
ATOM     17  C   UNL     1      12.818   9.305  15.884  0.00  0.00    +0.002 C 
ATOM     18  C   UNL     1      14.207   8.696  15.711  0.00  0.00    +0.000 C 
ENDBRANCH   4   8
TORSDOF 2
ENDMDL
MODEL 6
REMARK VINA RESULT:      -6.1     27.454     30.237
REMARK  Name = 75537015
REMARK  2 active torsions:
REMARK  status: ('A' for Active; 'I' for Inactive)
REMARK    1  A    between atoms: N_4  and  C_8
REMARK    2  A    between atoms: C_19  and  C_20
REMARK                            x       y       z     vdW  Elec       q    Type
REMARK                         _______ _______ _______ _____ _____    ______ ____
ROOT
ATOM      1  O   UNL     1      -5.255 -11.846  18.705  0.00  0.00    -0.252 OA
ATOM      3  O   UNL     1     -11.204  -8.404  17.607  0.00  0.00    -0.275 OA
ATOM      4  N   UNL     1      -4.930 -10.910  16.564  0.00  0.00    -0.281 N 
ATOM      5  N   UNL     1      -6.802 -10.394  17.695  0.00  0.00    -0.278 N 
ATOM      6  N   UNL     1      -9.292  -9.481  16.850  0.00  0.00    -0.298 N 
ATOM      7  C   UNL     1      -6.862  -9.576  16.497  0.00  0.00    +0.112 C 
ATOM      9  C   UNL     1      -5.703 -10.092  15.647  0.00  0.00    +0.133 C 
ATOM     10  C   UNL     1      -8.235  -9.691  15.842  0.00  0.00    +0.132 C 
ATOM     13  C   UNL     1      -7.856 -10.295  18.689  0.00  0.00    +0.128 C 
ATOM     14  C   UNL     1      -5.616 -11.137  17.775  0.00  0.00    +0.305 C 
ATOM     15  C   UNL     1      -9.221 -10.383  18.010  0.00  0.00    +0.127 C 
ATOM     19  C   UNL     1     -10.318  -8.542  16.761  0.00  0.00    +0.219 C 
ENDROOT
BRANCH  19  20
ATOM      2  O   UNL     1     -12.965  -6.811  14.777  0.00  0.00    -0.380 OA
ATOM     20  C   UNL     1     -10.315  -7.659  15.548  0.00  0.00    +0.079 C 
ATOM     21  C   UNL     1     -10.877  -6.282  15.899  0.00  0.00    +0.041 C 
ATOM     22  C   UNL     1     -11.086  -8.307  14.398  0.00  0.00    +0.041 C 
ATOM     23  C   UNL     1     -12.400  -6.289  15.977  0.00  0.00    +0.160 C 
ATOM     24  C   UNL     1     -12.596  -8.172  14.561  0.00  0.00    +0.160 C 
ENDBRANCH  19  20
BRANCH   4   8
ATOM      8  C   UNL     1      -3.675 -11.509  16.182  0.00  0.00    +0.078 C 
ATOM     11  C   UNL     1      -2.604 -10.434  15.989  0.00  0.00    +0.022 C 
ATOM     12  C   UNL     1      -3.843 -12.361  14.921  0.00  0.00    +0.022 C 
ATOM     16  C   UNL     1      -1.277 -11.037  15.532  0.00  0.00    +0.002 C 
ATOM     17  C   UNL     1      -2.516 -12.962  14.466  0.00  0.00    +0.002 C 
ATOM     18  C   UNL     1      -1.448 -11.888  14.276  0.00  0.00    +0.000 C 
ENDBRANCH   4   8
TORSDOF 2
ENDMDL
MODEL 7
REMARK VINA RESULT:      -6.1     32.926     34.444
REMARK  Name = 75537015
REMARK  2 active torsions:
REMARK  status: ('A' for Active; 'I' for Inactive)
REMARK    1  A    between atoms: N_4  and  C_8
REMARK    2  A    between atoms: C_19  and  C_20
REMARK                            x       y       z     vdW  Elec       q    Type
REMARK                         _______ _______ _______ _____ _____    ______ ____
ROOT
ATOM      1  O   UNL     1     -17.461   1.909  22.631  0.00  0.00    -0.252 OA
ATOM      3  O   UNL     1     -16.023   0.666  29.327  0.00  0.00    -0.275 OA
ATOM      4  N   UNL     1     -16.382   3.894  23.311  0.00  0.00    -0.281 N 
ATOM      5  N   UNL     1     -16.528   2.190  24.770  0.00  0.00    -0.278 N 
ATOM      6  N   UNL     1     -16.410   2.108  27.549  0.00  0.00    -0.298 N 
ATOM      7  C   UNL     1     -15.722   3.187  25.452  0.00  0.00    +0.112 C 
ATOM      9  C   UNL     1     -15.811   4.410  24.543  0.00  0.00    +0.133 C 
ATOM     10  C   UNL     1     -16.235   3.407  26.871  0.00  0.00    +0.132 C 
ATOM     13  C   UNL     1     -16.808   0.922  25.418  0.00  0.00    +0.128 C 
ATOM     14  C   UNL     1     -16.863   2.577  23.465  0.00  0.00    +0.305 C 
ATOM     15  C   UNL     1     -17.292   1.164  26.846  0.00  0.00    +0.127 C 
ATOM     19  C   UNL     1     -15.840   1.751  28.769  0.00  0.00    +0.219 C 
ENDROOT
BRANCH  19  20
ATOM      2  O   UNL     1     -14.961   2.590  32.300  0.00  0.00    -0.380 OA
ATOM     20  C   UNL     1     -14.951   2.771  29.418  0.00  0.00    +0.079 C 
ATOM     21  C   UNL     1     -13.842   2.076  30.207  0.00  0.00    +0.041 C 
ATOM     22  C   UNL     1     -15.762   3.720  30.301  0.00  0.00    +0.041 C 
ATOM     23  C   UNL     1     -14.337   1.550  31.549  0.00  0.00    +0.160 C 
ATOM     24  C   UNL     1     -16.122   3.098  31.646  0.00  0.00    +0.160 C 
ENDBRANCH  19  20
BRANCH   4   8
ATOM      8  C   UNL     1     -16.539   4.717  22.137  0.00  0.00    +0.078 C 
ATOM     11  C   UNL     1     -15.248   5.483  21.842  0.00  0.00    +0.022 C 
ATOM     12  C   UNL     1     -17.727   5.668  22.298  0.00  0.00    +0.022 C 
ATOM     16  C   UNL     1     -15.403   6.404  20.635  0.00  0.00    +0.002 C 
ATOM     17  C   UNL     1     -17.880   6.587  21.089  0.00  0.00    +0.002 C 
ATOM     18  C   UNL     1     -16.591   7.349  20.796  0.00  0.00    +0.000 C 
ENDBRANCH   4   8
TORSDOF 2
ENDMDL
MODEL 8
REMARK VINA RESULT:      -6.0      2.312      3.205
REMARK  Name = 75537015
REMARK  2 active torsions:
REMARK  status: ('A' for Active; 'I' for Inactive)
REMARK    1  A    between atoms: N_4  and  C_8
REMARK    2  A    between atoms: C_19  and  C_20
REMARK                            x       y       z     vdW  Elec       q    Type
REMARK                         _______ _______ _______ _____ _____    ______ ____
ROOT
ATOM      1  O   UNL     1      18.048   5.310  19.193  0.00  0.00    -0.252 OA
ATOM      3  O   UNL     1      12.641   9.666  19.672  0.00  0.00    -0.275 OA
ATOM      4  N   UNL     1      18.731   6.807  20.883  0.00  0.00    -0.281 N 
ATOM      5  N   UNL     1      16.661   7.009  20.034  0.00  0.00    -0.278 N 
ATOM      6  N   UNL     1      14.889   9.154  19.948  0.00  0.00    -0.298 N 
ATOM      7  C   UNL     1      16.712   7.985  21.108  0.00  0.00    +0.112 C 
ATOM      9  C   UNL     1      18.179   7.984  21.529  0.00  0.00    +0.133 C 
ATOM     10  C   UNL     1      16.186   9.334  20.628  0.00  0.00    +0.132 C 
ATOM     13  C   UNL     1      15.437   6.842  19.270  0.00  0.00    +0.128 C 
ATOM     14  C   UNL     1      17.837   6.254  19.943  0.00  0.00    +0.305 C 
ATOM     15  C   UNL     1      14.912   8.205  18.824  0.00  0.00    +0.127 C 
ATOM     19  C   UNL     1      13.707   9.817  20.273  0.00  0.00    +0.219 C 
ENDROOT
BRANCH  19  20
ATOM      2  O   UNL     1      11.311  12.234  21.810  0.00  0.00    -0.380 OA
ATOM     20  C   UNL     1      13.769  10.765  21.434  0.00  0.00    +0.079 C 
ATOM     21  C   UNL     1      12.727  10.380  22.484  0.00  0.00    +0.041 C 
ATOM     22  C   UNL     1      13.593  12.211  20.970  0.00  0.00    +0.041 C 
ATOM     23  C   UNL     1      11.326  10.836  22.094  0.00  0.00    +0.160 C 
ATOM     24  C   UNL     1      12.134  12.559  20.692  0.00  0.00    +0.160 C 
ENDBRANCH  19  20
BRANCH   4   8
ATOM      8  C   UNL     1      20.089   6.376  21.109  0.00  0.00    +0.078 C 
ATOM     11  C   UNL     1      20.369   6.249  22.608  0.00  0.00    +0.022 C 
ATOM     12  C   UNL     1      21.080   7.330  20.437  0.00  0.00    +0.022 C 
ATOM     16  C   UNL     1      21.816   5.846  22.879  0.00  0.00    +0.002 C 
ATOM     17  C   UNL     1      22.525   6.924  20.709  0.00  0.00    +0.002 C 
ATOM     18  C   UNL     1      22.802   6.796  22.204  0.00  0.00    +0.000 C 
ENDBRANCH   4   8
TORSDOF 2
ENDMDL
MODEL 9
REMARK VINA RESULT:      -6.0     28.195     29.967
REMARK  Name = 75537015
REMARK  2 active torsions:
REMARK  status: ('A' for Active; 'I' for Inactive)
REMARK    1  A    between atoms: N_4  and  C_8
REMARK    2  A    between atoms: C_19  and  C_20
REMARK                            x       y       z     vdW  Elec       q    Type
REMARK                         _______ _______ _______ _____ _____    ______ ____
ROOT
ATOM      1  O   UNL     1      -2.216 -10.867  15.088  0.00  0.00    -0.252 OA
ATOM      3  O   UNL     1      -4.452  -9.900   8.568  0.00  0.00    -0.275 OA
ATOM      4  N   UNL     1      -4.536 -10.546  15.373  0.00  0.00    -0.281 N 
ATOM      5  N   UNL     1      -3.705 -10.624  13.286  0.00  0.00    -0.278 N 
ATOM      6  N   UNL     1      -4.667  -9.644  10.865  0.00  0.00    -0.298 N 
ATOM      7  C   UNL     1      -5.143 -10.537  13.104  0.00  0.00    +0.112 C 
ATOM      9  C   UNL     1      -5.672 -10.272  14.511  0.00  0.00    +0.133 C 
ATOM     10  C   UNL     1      -5.486  -9.461  12.078  0.00  0.00    +0.132 C 
ATOM     13  C   UNL     1      -2.836 -10.722  12.127  0.00  0.00    +0.128 C 
ATOM     14  C   UNL     1      -3.343 -10.703  14.638  0.00  0.00    +0.305 C 
ATOM     15  C   UNL     1      -3.215  -9.655  11.102  0.00  0.00    +0.127 C 
ATOM     19  C   UNL     1      -5.161  -9.773   9.569  0.00  0.00    +0.219 C 
ENDROOT
BRANCH  19  20
ATOM      2  O   UNL     1      -7.530 -10.821   6.880  0.00  0.00    -0.380 OA
ATOM     20  C   UNL     1      -6.653  -9.754   9.416  0.00  0.00    +0.079 C 
ATOM     21  C   UNL     1      -7.184 -11.178   9.257  0.00  0.00    +0.041 C 
ATOM     22  C   UNL     1      -7.072  -8.862   8.246  0.00  0.00    +0.041 C 
ATOM     23  C   UNL     1      -6.975 -11.713   7.844  0.00  0.00    +0.160 C 
ATOM     24  C   UNL     1      -6.887  -9.549   6.896  0.00  0.00    +0.160 C 
ENDBRANCH  19  20
BRANCH   4   8
ATOM      8  C   UNL     1      -4.642 -10.515  16.811  0.00  0.00    +0.078 C 
ATOM     11  C   UNL     1      -4.081 -11.802  17.419  0.00  0.00    +0.022 C 
ATOM     12  C   UNL     1      -6.092 -10.281  17.242  0.00  0.00    +0.022 C 
ATOM     16  C   UNL     1      -4.229 -11.818  18.938  0.00  0.00    +0.002 C 
ATOM     17  C   UNL     1      -6.237 -10.297  18.762  0.00  0.00    +0.002 C 
ATOM     18  C   UNL     1      -5.675 -11.581  19.366  0.00  0.00    +0.000 C 
ENDBRANCH   4   8
TORSDOF 2
ENDMDL
MODEL 10
REMARK VINA RESULT:      -6.0      2.579      8.457
REMARK  Name = 75537015
REMARK  2 active torsions:
REMARK  status: ('A' for Active; 'I' for Inactive)
REMARK    1  A    between atoms: N_4  and  C_8
REMARK    2  A    between atoms: C_19  and  C_20
REMARK                            x       y       z     vdW  Elec       q    Type
REMARK                         _______ _______ _______ _____ _____    ______ ____
ROOT
ATOM      1  O   UNL     1      12.689   8.493  18.999  0.00  0.00    -0.252 OA
ATOM      3  O   UNL     1      18.986   5.711  20.026  0.00  0.00    -0.275 OA
ATOM      4  N   UNL     1      13.620   9.901  20.646  0.00  0.00    -0.281 N 
ATOM      5  N   UNL     1      14.898   8.274  19.768  0.00  0.00    -0.278 N 
ATOM      6  N   UNL     1      17.167   6.975  20.722  0.00  0.00    -0.298 N 
ATOM      7  C   UNL     1      15.793   9.011  20.643  0.00  0.00    +0.112 C 
ATOM      9  C   UNL     1      14.867   9.969  21.387  0.00  0.00    +0.133 C 
ATOM     10  C   UNL     1      16.572   8.051  21.538  0.00  0.00    +0.132 C 
ATOM     13  C   UNL     1      15.403   7.151  19.000  0.00  0.00    +0.128 C 
ATOM     14  C   UNL     1      13.620   8.846  19.711  0.00  0.00    +0.305 C 
ATOM     15  C   UNL     1      16.203   6.218  19.908  0.00  0.00    +0.127 C 
ATOM     19  C   UNL     1      18.518   6.632  20.698  0.00  0.00    +0.219 C 
ENDROOT
BRANCH  19  20
ATOM      2  O   UNL     1      22.100   6.360  21.715  0.00  0.00    -0.380 OA
ATOM     20  C   UNL     1      19.433   7.456  21.555  0.00  0.00    +0.079 C 
ATOM     21  C   UNL     1      20.597   7.988  20.720  0.00  0.00    +0.041 C 
ATOM     22  C   UNL     1      19.924   6.653  22.761  0.00  0.00    +0.041 C 
ATOM     23  C   UNL     1      21.663   6.924  20.481  0.00  0.00    +0.160 C 
ATOM     24  C   UNL     1      21.045   5.685  22.397  0.00  0.00    +0.160 C 
ENDBRANCH  19  20
BRANCH   4   8
ATOM      8  C   UNL     1      12.495  10.746  20.963  0.00  0.00    +0.078 C 
ATOM     11  C   UNL     1      12.798  12.201  20.598  0.00  0.00    +0.022 C 
ATOM     12  C   UNL     1      12.114  10.610  22.439  0.00  0.00    +0.022 C 
ATOM     16  C   UNL     1      11.644  13.128  20.972  0.00  0.00    +0.002 C 
ATOM     17  C   UNL     1      10.959  11.538  22.810  0.00  0.00    +0.002 C 
ATOM     18  C   UNL     1      11.263  12.988  22.444  0.00  0.00    +0.000 C 
ENDBRANCH   4   8
TORSDOF 2
ENDMDL
