REMARK  Name = 7049502
REMARK  16 active torsions:
REMARK  status: ('A' for Active; 'I' for Inactive)
REMARK    1  A    between atoms: O_5  and  C_32
REMARK    2  A    between atoms: O_5  and  C_35
REMARK    3  A    between atoms: N_7  and  C_12
REMARK    4  A    between atoms: N_8  and  C_19
REMARK    5  A    between atoms: N_9  and  C_29
REMARK    6  A    between atoms: C_11  and  C_16
REMARK    7  A    between atoms: C_15  and  C_17
REMARK    8  A    between atoms: C_17  and  C_18
REMARK    9  A    between atoms: C_18  and  C_20
REMARK   10  A    between atoms: C_18  and  C_21
REMARK   11  A    between atoms: C_18  and  C_22
REMARK   12  A    between atoms: C_19  and  C_23
REMARK   13  A    between atoms: C_19  and  C_26
REMARK   14  A    between atoms: C_23  and  C_25
REMARK   15  A    between atoms: C_25  and  C_27
REMARK   16  A    between atoms: C_25  and  C_28
REMARK                            x       y       z     vdW  Elec       q    Type
REMARK                         _______ _______ _______ _____ _____    ______ ____
ROOT
ATOM      1  O   UNL     1      -4.678  -0.680   0.315  0.00  0.00    -0.276 OA
ATOM      6  N   UNL     1      -2.578  -1.305   1.063  0.00  0.00    -0.288 N 
ATOM     11  C   UNL     1      -2.142   0.029   1.450  0.00  0.00    +0.164 C 
ATOM     12  C   UNL     1      -0.325  -1.529   1.782  0.00  0.00    +0.094 C 
ATOM     13  C   UNL     1      -0.879  -0.191   2.279  0.00  0.00    +0.055 C 
ATOM     14  C   UNL     1      -1.578  -2.315   1.409  0.00  0.00    +0.131 C 
ATOM     15  C   UNL     1      -3.859  -1.557   0.596  0.00  0.00    +0.217 C 
ENDROOT
BRANCH  12   7
ATOM      3  O   UNL     1       2.519  -1.195   1.865  0.00  0.00    -0.253 OA
ATOM      7  N   UNL     1       0.556  -1.358   0.654  0.00  0.00    -0.295 N 
ATOM      9  N   UNL     1       2.534  -1.057  -0.478  0.00  0.00    -0.269 N 
ATOM     24  C   UNL     1       1.942  -1.201   0.780  0.00  0.00    +0.304 C 
ATOM     36  H   UNL     1       0.147  -1.287  -0.273  0.00  0.00    +0.151 HD
ATOM     38  H   UNL     1       1.910  -1.085  -1.281  0.00  0.00    +0.156 HD
BRANCH   9  29
ATOM     29  C   UNL     1       3.904  -0.877  -0.777  0.00  0.00    +0.038 A 
ATOM     30  C   UNL     1       4.843  -0.826   0.253  0.00  0.00    +0.069 A 
ATOM     31  C   UNL     1       4.317  -0.750  -2.104  0.00  0.00    +0.023 A 
ATOM     32  C   UNL     1       6.194  -0.648  -0.043  0.00  0.00    +0.122 A 
ATOM     33  C   UNL     1       5.668  -0.572  -2.400  0.00  0.00    +0.005 A 
ATOM     34  C   UNL     1       6.607  -0.521  -1.369  0.00  0.00    +0.046 A 
BRANCH  32   5
ATOM      5  O   UNL     1       7.111  -0.599   0.963  0.00  0.00    -0.495 OA
ATOM     35  C   UNL     1       6.620  -0.736   2.295  0.00  0.00    +0.277 C 
ENDBRANCH  32   5
ENDBRANCH   9  29
ENDBRANCH  12   7
BRANCH  11  16
ATOM      2  O   UNL     1      -1.999   0.342  -0.912  0.00  0.00    -0.274 OA
ATOM      8  N   UNL     1      -1.403   2.097   0.495  0.00  0.00    -0.302 N 
ATOM     16  C   UNL     1      -1.855   0.820   0.209  0.00  0.00    +0.234 C 
ATOM     37  H   UNL     1      -1.294   2.376   1.466  0.00  0.00    +0.150 HD
BRANCH   8  19
ATOM     19  C   UNL     1      -1.035   3.052  -0.525  0.00  0.00    +0.159 C 
BRANCH  19  26
ATOM      4  O   UNL     1       1.268   2.431  -0.054  0.00  0.00    -0.274 OA
ATOM     10  N   UNL     1       0.694   2.962  -2.213  0.00  0.00    -0.328 N 
ATOM     26  C   UNL     1       0.425   2.794  -0.871  0.00  0.00    +0.231 C 
ATOM     39  H   UNL     1       1.627   2.806  -2.580  0.00  0.00    +0.145 HD
ATOM     40  H   UNL     1      -0.012   3.260  -2.879  0.00  0.00    +0.145 HD
ENDBRANCH  19  26
BRANCH  19  23
ATOM     23  C   UNL     1      -1.222   4.502  -0.059  0.00  0.00    +0.034 C 
BRANCH  23  25
ATOM     25  C   UNL     1      -2.656   5.049  -0.210  0.00  0.00    -0.015 C 
ATOM     27  C   UNL     1      -2.699   6.514   0.233  0.00  0.00    +0.007 C 
ATOM     28  C   UNL     1      -3.676   4.239   0.592  0.00  0.00    +0.007 C 
ENDBRANCH  23  25
ENDBRANCH  19  23
ENDBRANCH   8  19
ENDBRANCH  11  16
BRANCH  15  17
ATOM     17  C   UNL     1      -4.216  -3.013   0.428  0.00  0.00    +0.102 C 
BRANCH  17  18
ATOM     18  C   UNL     1      -4.536  -3.385  -1.031  0.00  0.00    -0.029 C 
ATOM     20  C   UNL     1      -4.848  -4.885  -1.166  0.00  0.00    +0.011 C 
ATOM     21  C   UNL     1      -5.723  -2.566  -1.566  0.00  0.00    +0.011 C 
ATOM     22  C   UNL     1      -3.294  -3.063  -1.883  0.00  0.00    +0.011 C 
ENDBRANCH  17  18
ENDBRANCH  15  17
TORSDOF 10
