MODEL 1
REMARK VINA RESULT:      -6.2      0.000      0.000
REMARK  Name = 56774124
REMARK  8 active torsions:
REMARK  status: ('A' for Active; 'I' for Inactive)
REMARK    1  A    between atoms: O_2  and  C_21
REMARK    2  A    between atoms: N_3  and  C_6
REMARK    3  A    between atoms: N_3  and  C_12
REMARK    4  A    between atoms: C_5  and  C_10
REMARK    5  A    between atoms: C_5  and  C_11
REMARK    6  A    between atoms: C_7  and  C_9
REMARK    7  A    between atoms: C_9  and  C_15
REMARK    8  A    between atoms: C_20  and  C_21
REMARK                            x       y       z     vdW  Elec       q    Type
REMARK                         _______ _______ _______ _____ _____    ______ ____
ROOT
ATOM      5  C   UNL     1     -14.039   7.053  21.309  0.00  0.00    -0.016 C 
ATOM      6  C   UNL     1     -12.664   6.682  20.714  0.00  0.00    +0.060 C 
ATOM      7  C   UNL     1     -14.020   5.680  22.012  0.00  0.00    +0.004 C 
ATOM      8  C   UNL     1     -12.481   5.742  21.924  0.00  0.00    +0.023 C 
ATOM     10  C   UNL     1     -13.956   8.261  22.228  0.00  0.00    +0.013 C 
ATOM     11  C   UNL     1     -15.194   7.229  20.347  0.00  0.00    +0.013 C 
ENDROOT
BRANCH   6   3
ATOM      3  N   UNL     1     -11.719   7.796  20.830  0.00  0.00    -0.310 NA
ATOM     22  H   UNL     1     -11.959   8.475  21.551  0.00  0.00    +0.122 HD
BRANCH   3  12
ATOM     12  C   UNL     1     -11.603   8.466  19.535  0.00  0.00    +0.054 C 
ATOM     13  C   UNL     1     -11.213   7.449  18.457  0.00  0.00    +0.019 C 
ATOM     14  C   UNL     1     -10.576   9.599  19.625  0.00  0.00    +0.019 C 
ATOM     16  C   UNL     1     -11.009   8.127  17.103  0.00  0.00    +0.002 C 
ATOM     17  C   UNL     1     -10.372  10.274  18.270  0.00  0.00    +0.002 C 
ATOM     18  C   UNL     1      -9.994   9.264  17.190  0.00  0.00    +0.000 C 
ENDBRANCH   3  12
ENDBRANCH   6   3
BRANCH   7   9
ATOM      9  C   UNL     1     -14.568   5.618  23.420  0.00  0.00    +0.063 C 
BRANCH   9  15
ATOM      1  O   UNL     1     -16.549   2.623  23.067  0.00  0.00    -0.357 OA
ATOM      4  N   UNL     1     -15.858   3.709  22.545  0.00  0.00    -0.083 NA
ATOM     15  C   UNL     1     -15.385   4.363  23.610  0.00  0.00    +0.084 A 
ATOM     19  C   UNL     1     -15.744   3.742  24.820  0.00  0.00    +0.073 A 
ATOM     20  C   UNL     1     -16.474   2.654  24.423  0.00  0.00    +0.163 A 
BRANCH  20  21
ATOM     21  C   UNL     1     -17.156   1.570  25.141  0.00  0.00    +0.232 C 
BRANCH  21   2
ATOM      2  O   UNL     1     -16.302   0.428  25.241  0.00  0.00    -0.387 OA
ATOM     23  H   UNL     1     -15.935   0.272  24.354  0.00  0.00    +0.210 HD
ENDBRANCH  21   2
ENDBRANCH  20  21
ENDBRANCH   9  15
ENDBRANCH   7   9
TORSDOF 6
ENDMDL
MODEL 2
REMARK VINA RESULT:      -6.1     20.116     21.884
REMARK  Name = 56774124
REMARK  8 active torsions:
REMARK  status: ('A' for Active; 'I' for Inactive)
REMARK    1  A    between atoms: O_2  and  C_21
REMARK    2  A    between atoms: N_3  and  C_6
REMARK    3  A    between atoms: N_3  and  C_12
REMARK    4  A    between atoms: C_5  and  C_10
REMARK    5  A    between atoms: C_5  and  C_11
REMARK    6  A    between atoms: C_7  and  C_9
REMARK    7  A    between atoms: C_9  and  C_15
REMARK    8  A    between atoms: C_20  and  C_21
REMARK                            x       y       z     vdW  Elec       q    Type
REMARK                         _______ _______ _______ _____ _____    ______ ____
ROOT
ATOM      5  C   UNL     1      -4.162 -11.560  15.118  0.00  0.00    -0.016 C 
ATOM      6  C   UNL     1      -3.787 -11.126  16.550  0.00  0.00    +0.060 C 
ATOM      7  C   UNL     1      -2.974 -10.707  14.629  0.00  0.00    +0.004 C 
ATOM      8  C   UNL     1      -2.352 -10.913  16.026  0.00  0.00    +0.023 C 
ATOM     10  C   UNL     1      -4.018 -13.061  14.920  0.00  0.00    +0.013 C 
ATOM     11  C   UNL     1      -5.502 -11.107  14.577  0.00  0.00    +0.013 C 
ENDROOT
BRANCH   6   3
ATOM      3  N   UNL     1      -3.793 -12.268  17.469  0.00  0.00    -0.310 NA
ATOM     22  H   UNL     1      -3.882 -13.173  17.010  0.00  0.00    +0.122 HD
BRANCH   3  12
ATOM     12  C   UNL     1      -4.871 -12.097  18.442  0.00  0.00    +0.054 C 
ATOM     13  C   UNL     1      -6.107 -12.883  17.993  0.00  0.00    +0.019 C 
ATOM     14  C   UNL     1      -5.192 -10.607  18.606  0.00  0.00    +0.019 C 
ATOM     16  C   UNL     1      -7.280 -12.667  18.948  0.00  0.00    +0.002 C 
ATOM     17  C   UNL     1      -6.367 -10.393  19.559  0.00  0.00    +0.002 C 
ATOM     18  C   UNL     1      -7.597 -11.184  19.122  0.00  0.00    +0.000 C 
ENDBRANCH   3  12
ENDBRANCH   6   3
BRANCH   7   9
ATOM      9  C   UNL     1      -2.152 -11.260  13.487  0.00  0.00    +0.063 C 
BRANCH   9  15
ATOM      1  O   UNL     1      -1.956  -9.139  10.575  0.00  0.00    -0.357 OA
ATOM      4  N   UNL     1      -1.403  -9.738  11.699  0.00  0.00    -0.083 NA
ATOM     15  C   UNL     1      -2.395 -10.459  12.231  0.00  0.00    +0.084 A 
ATOM     19  C   UNL     1      -3.585 -10.353  11.491  0.00  0.00    +0.073 A 
ATOM     20  C   UNL     1      -3.256  -9.514  10.461  0.00  0.00    +0.163 A 
BRANCH  20  21
ATOM     21  C   UNL     1      -3.998  -8.968   9.317  0.00  0.00    +0.232 C 
BRANCH  21   2
ATOM      2  O   UNL     1      -5.072  -8.140   9.773  0.00  0.00    -0.387 OA
ATOM     23  H   UNL     1      -5.166  -8.300  10.727  0.00  0.00    +0.210 HD
ENDBRANCH  21   2
ENDBRANCH  20  21
ENDBRANCH   9  15
ENDBRANCH   7   9
TORSDOF 6
ENDMDL
MODEL 3
REMARK VINA RESULT:      -6.1     26.757     30.727
REMARK  Name = 56774124
REMARK  8 active torsions:
REMARK  status: ('A' for Active; 'I' for Inactive)
REMARK    1  A    between atoms: O_2  and  C_21
REMARK    2  A    between atoms: N_3  and  C_6
REMARK    3  A    between atoms: N_3  and  C_12
REMARK    4  A    between atoms: C_5  and  C_10
REMARK    5  A    between atoms: C_5  and  C_11
REMARK    6  A    between atoms: C_7  and  C_9
REMARK    7  A    between atoms: C_9  and  C_15
REMARK    8  A    between atoms: C_20  and  C_21
REMARK                            x       y       z     vdW  Elec       q    Type
REMARK                         _______ _______ _______ _____ _____    ______ ____
ROOT
ATOM      5  C   UNL     1      11.070   5.693   3.311  0.00  0.00    -0.016 C 
ATOM      6  C   UNL     1      12.421   6.152   2.724  0.00  0.00    +0.060 C 
ATOM      7  C   UNL     1      11.553   6.255   4.664  0.00  0.00    +0.004 C 
ATOM      8  C   UNL     1      12.469   7.198   3.857  0.00  0.00    +0.023 C 
ATOM     10  C   UNL     1       9.896   6.423   2.678  0.00  0.00    +0.013 C 
ATOM     11  C   UNL     1      10.785   4.206   3.335  0.00  0.00    +0.013 C 
ENDROOT
BRANCH   6   3
ATOM      3  N   UNL     1      12.237   6.844   1.445  0.00  0.00    -0.310 NA
ATOM     22  H   UNL     1      11.277   7.136   1.263  0.00  0.00    +0.122 HD
BRANCH   3  12
ATOM     12  C   UNL     1      12.709   5.985   0.360  0.00  0.00    +0.054 C 
ATOM     13  C   UNL     1      11.512   5.377  -0.379  0.00  0.00    +0.019 C 
ATOM     14  C   UNL     1      13.625   4.892   0.923  0.00  0.00    +0.019 C 
ATOM     16  C   UNL     1      11.968   4.412  -1.473  0.00  0.00    +0.002 C 
ATOM     17  C   UNL     1      14.077   3.927  -0.171  0.00  0.00    +0.002 C 
ATOM     18  C   UNL     1      12.889   3.328  -0.919  0.00  0.00    +0.000 C 
ENDBRANCH   3  12
ENDBRANCH   6   3
BRANCH   7   9
ATOM      9  C   UNL     1      10.527   6.958   5.524  0.00  0.00    +0.063 C 
BRANCH   9  15
ATOM      1  O   UNL     1      11.098   5.512   8.780  0.00  0.00    -0.357 OA
ATOM      4  N   UNL     1      11.532   6.145   7.622  0.00  0.00    -0.083 NA
ATOM     15  C   UNL     1      10.433   6.294   6.876  0.00  0.00    +0.084 A 
ATOM     19  C   UNL     1       9.288   5.777   7.506  0.00  0.00    +0.073 A 
ATOM     20  C   UNL     1       9.760   5.298   8.699  0.00  0.00    +0.163 A 
BRANCH  20  21
ATOM     21  C   UNL     1       9.132   4.633   9.847  0.00  0.00    +0.232 C 
BRANCH  21   2
ATOM      2  O   UNL     1      10.070   4.507  10.920  0.00  0.00    -0.387 OA
ATOM     23  H   UNL     1      10.763   5.172  10.768  0.00  0.00    +0.210 HD
ENDBRANCH  21   2
ENDBRANCH  20  21
ENDBRANCH   9  15
ENDBRANCH   7   9
TORSDOF 6
ENDMDL
MODEL 4
REMARK VINA RESULT:      -6.1      1.403      2.290
REMARK  Name = 56774124
REMARK  8 active torsions:
REMARK  status: ('A' for Active; 'I' for Inactive)
REMARK    1  A    between atoms: O_2  and  C_21
REMARK    2  A    between atoms: N_3  and  C_6
REMARK    3  A    between atoms: N_3  and  C_12
REMARK    4  A    between atoms: C_5  and  C_10
REMARK    5  A    between atoms: C_5  and  C_11
REMARK    6  A    between atoms: C_7  and  C_9
REMARK    7  A    between atoms: C_9  and  C_15
REMARK    8  A    between atoms: C_20  and  C_21
REMARK                            x       y       z     vdW  Elec       q    Type
REMARK                         _______ _______ _______ _____ _____    ______ ____
ROOT
ATOM      5  C   UNL     1     -13.009   8.345  20.052  0.00  0.00    -0.016 C 
ATOM      6  C   UNL     1     -11.644   7.800  19.582  0.00  0.00    +0.060 C 
ATOM      7  C   UNL     1     -13.217   6.994  20.767  0.00  0.00    +0.004 C 
ATOM      8  C   UNL     1     -11.679   6.869  20.812  0.00  0.00    +0.023 C 
ATOM     10  C   UNL     1     -12.858   9.553  20.963  0.00  0.00    +0.013 C 
ATOM     11  C   UNL     1     -14.049   8.640  18.992  0.00  0.00    +0.013 C 
ENDROOT
BRANCH   6   3
ATOM      3  N   UNL     1     -10.583   8.794  19.767  0.00  0.00    -0.310 NA
ATOM     22  H   UNL     1     -10.857   9.596  20.334  0.00  0.00    +0.122 HD
BRANCH   3  12
ATOM     12  C   UNL     1     -10.115   9.249  18.459  0.00  0.00    +0.054 C 
ATOM     13  C   UNL     1     -10.425  10.739  18.285  0.00  0.00    +0.019 C 
ATOM     14  C   UNL     1     -10.770   8.414  17.353  0.00  0.00    +0.019 C 
ATOM     16  C   UNL     1     -10.018  11.233  16.897  0.00  0.00    +0.002 C 
ATOM     17  C   UNL     1     -10.364   8.910  15.967  0.00  0.00    +0.002 C 
ATOM     18  C   UNL     1     -10.660  10.397  15.792  0.00  0.00    +0.000 C 
ENDBRANCH   3  12
ENDBRANCH   6   3
BRANCH   7   9
ATOM      9  C   UNL     1     -13.884   7.027  22.123  0.00  0.00    +0.063 C 
BRANCH   9  15
ATOM      1  O   UNL     1     -16.159   4.253  21.739  0.00  0.00    -0.357 OA
ATOM      4  N   UNL     1     -15.440   5.332  21.241  0.00  0.00    -0.083 NA
ATOM     15  C   UNL     1     -14.783   5.826  22.294  0.00  0.00    +0.084 A 
ATOM     19  C   UNL     1     -15.048   5.107  23.473  0.00  0.00    +0.073 A 
ATOM     20  C   UNL     1     -15.916   4.129  23.070  0.00  0.00    +0.163 A 
BRANCH  20  21
ATOM     21  C   UNL     1     -16.602   3.029  23.761  0.00  0.00    +0.232 C 
BRANCH  21   2
ATOM      2  O   UNL     1     -16.841   1.948  22.856  0.00  0.00    -0.387 OA
ATOM     23  H   UNL     1     -17.247   1.232  23.373  0.00  0.00    +0.210 HD
ENDBRANCH  21   2
ENDBRANCH  20  21
ENDBRANCH   9  15
ENDBRANCH   7   9
TORSDOF 6
ENDMDL
MODEL 5
REMARK VINA RESULT:      -5.9     19.484     20.463
REMARK  Name = 56774124
REMARK  8 active torsions:
REMARK  status: ('A' for Active; 'I' for Inactive)
REMARK    1  A    between atoms: O_2  and  C_21
REMARK    2  A    between atoms: N_3  and  C_6
REMARK    3  A    between atoms: N_3  and  C_12
REMARK    4  A    between atoms: C_5  and  C_10
REMARK    5  A    between atoms: C_5  and  C_11
REMARK    6  A    between atoms: C_7  and  C_9
REMARK    7  A    between atoms: C_9  and  C_15
REMARK    8  A    between atoms: C_20  and  C_21
REMARK                            x       y       z     vdW  Elec       q    Type
REMARK                         _______ _______ _______ _____ _____    ______ ____
ROOT
ATOM      5  C   UNL     1      -4.450 -11.374  16.239  0.00  0.00    -0.016 C 
ATOM      6  C   UNL     1      -4.081 -12.292  15.055  0.00  0.00    +0.060 C 
ATOM      7  C   UNL     1      -5.352 -12.518  16.746  0.00  0.00    +0.004 C 
ATOM      8  C   UNL     1      -4.432 -13.484  15.970  0.00  0.00    +0.023 C 
ATOM     10  C   UNL     1      -3.245 -11.053  17.109  0.00  0.00    +0.013 C 
ATOM     11  C   UNL     1      -5.202 -10.098  15.927  0.00  0.00    +0.013 C 
ENDROOT
BRANCH   6   3
ATOM      3  N   UNL     1      -2.635 -12.289  14.812  0.00  0.00    -0.310 NA
ATOM     22  H   UNL     1      -2.112 -11.653  15.412  0.00  0.00    +0.122 HD
BRANCH   3  12
ATOM     12  C   UNL     1      -2.384 -11.967  13.408  0.00  0.00    +0.054 C 
ATOM     13  C   UNL     1      -1.957 -10.501  13.280  0.00  0.00    +0.019 C 
ATOM     14  C   UNL     1      -3.638 -12.253  12.576  0.00  0.00    +0.019 C 
ATOM     16  C   UNL     1      -1.758 -10.107  11.817  0.00  0.00    +0.002 C 
ATOM     17  C   UNL     1      -3.439 -11.856  11.115  0.00  0.00    +0.002 C 
ATOM     18  C   UNL     1      -3.002 -10.400  10.982  0.00  0.00    +0.000 C 
ENDBRANCH   3  12
ENDBRANCH   6   3
BRANCH   7   9
ATOM      9  C   UNL     1      -5.393 -12.753  18.239  0.00  0.00    +0.063 C 
BRANCH   9  15
ATOM      1  O   UNL     1      -7.683 -10.677  20.101  0.00  0.00    -0.357 OA
ATOM      4  N   UNL     1      -6.404 -11.099  19.761  0.00  0.00    -0.083 NA
ATOM     15  C   UNL     1      -6.587 -12.055  18.847  0.00  0.00    +0.084 A 
ATOM     19  C   UNL     1      -7.948 -12.278  18.573  0.00  0.00    +0.073 A 
ATOM     20  C   UNL     1      -8.594 -11.387  19.387  0.00  0.00    +0.163 A 
BRANCH  20  21
ATOM     21  C   UNL     1     -10.007 -11.066  19.625  0.00  0.00    +0.232 C 
BRANCH  21   2
ATOM      2  O   UNL     1     -10.130 -10.147  20.714  0.00  0.00    -0.387 OA
ATOM     23  H   UNL     1      -9.376 -10.311  21.307  0.00  0.00    +0.210 HD
ENDBRANCH  21   2
ENDBRANCH  20  21
ENDBRANCH   9  15
ENDBRANCH   7   9
TORSDOF 6
ENDMDL
MODEL 6
REMARK VINA RESULT:      -5.9     26.285     29.256
REMARK  Name = 56774124
REMARK  8 active torsions:
REMARK  status: ('A' for Active; 'I' for Inactive)
REMARK    1  A    between atoms: O_2  and  C_21
REMARK    2  A    between atoms: N_3  and  C_6
REMARK    3  A    between atoms: N_3  and  C_12
REMARK    4  A    between atoms: C_5  and  C_10
REMARK    5  A    between atoms: C_5  and  C_11
REMARK    6  A    between atoms: C_7  and  C_9
REMARK    7  A    between atoms: C_9  and  C_15
REMARK    8  A    between atoms: C_20  and  C_21
REMARK                            x       y       z     vdW  Elec       q    Type
REMARK                         _______ _______ _______ _____ _____    ______ ____
ROOT
ATOM      5  C   UNL     1      13.943   8.457  18.845  0.00  0.00    -0.016 C 
ATOM      6  C   UNL     1      13.409   9.088  20.148  0.00  0.00    +0.060 C 
ATOM      7  C   UNL     1      15.152   7.966  19.667  0.00  0.00    +0.004 C 
ATOM      8  C   UNL     1      14.237   8.030  20.907  0.00  0.00    +0.023 C 
ATOM     10  C   UNL     1      13.021   7.369  18.319  0.00  0.00    +0.013 C 
ATOM     11  C   UNL     1      14.314   9.393  17.714  0.00  0.00    +0.013 C 
ENDROOT
BRANCH   6   3
ATOM      3  N   UNL     1      11.984   8.800  20.332  0.00  0.00    -0.310 NA
ATOM     22  H   UNL     1      11.470   8.663  19.463  0.00  0.00    +0.122 HD
BRANCH   3  12
ATOM     12  C   UNL     1      11.371   9.879  21.106  0.00  0.00    +0.054 C 
ATOM     13  C   UNL     1      12.129  11.188  20.863  0.00  0.00    +0.019 C 
ATOM     14  C   UNL     1      11.363   9.512  22.594  0.00  0.00    +0.019 C 
ATOM     16  C   UNL     1      11.564  12.324  21.715  0.00  0.00    +0.002 C 
ATOM     17  C   UNL     1      10.800  10.649  23.444  0.00  0.00    +0.002 C 
ATOM     18  C   UNL     1      11.544  11.958  23.197  0.00  0.00    +0.000 C 
ENDBRANCH   3  12
ENDBRANCH   6   3
BRANCH   7   9
ATOM      9  C   UNL     1      15.687   6.588  19.350  0.00  0.00    +0.063 C 
BRANCH   9  15
ATOM      1  O   UNL     1      19.108   5.704  20.080  0.00  0.00    -0.357 OA
ATOM      4  N   UNL     1      17.959   5.635  19.303  0.00  0.00    -0.083 NA
ATOM     15  C   UNL     1      17.073   6.419  19.924  0.00  0.00    +0.084 A 
ATOM     19  C   UNL     1      17.602   7.002  21.088  0.00  0.00    +0.073 A 
ATOM     20  C   UNL     1      18.883   6.522  21.141  0.00  0.00    +0.163 A 
BRANCH  20  21
ATOM     21  C   UNL     1      20.002   6.709  22.073  0.00  0.00    +0.232 C 
BRANCH  21   2
ATOM      2  O   UNL     1      19.587   6.416  23.410  0.00  0.00    -0.387 OA
ATOM     23  H   UNL     1      19.621   5.449  23.511  0.00  0.00    +0.210 HD
ENDBRANCH  21   2
ENDBRANCH  20  21
ENDBRANCH   9  15
ENDBRANCH   7   9
TORSDOF 6
ENDMDL
MODEL 7
REMARK VINA RESULT:      -5.8     18.409     20.416
REMARK  Name = 56774124
REMARK  8 active torsions:
REMARK  status: ('A' for Active; 'I' for Inactive)
REMARK    1  A    between atoms: O_2  and  C_21
REMARK    2  A    between atoms: N_3  and  C_6
REMARK    3  A    between atoms: N_3  and  C_12
REMARK    4  A    between atoms: C_5  and  C_10
REMARK    5  A    between atoms: C_5  and  C_11
REMARK    6  A    between atoms: C_7  and  C_9
REMARK    7  A    between atoms: C_9  and  C_15
REMARK    8  A    between atoms: C_20  and  C_21
REMARK                            x       y       z     vdW  Elec       q    Type
REMARK                         _______ _______ _______ _____ _____    ______ ____
ROOT
ATOM      5  C   UNL     1      -6.420 -11.195  18.078  0.00  0.00    -0.016 C 
ATOM      6  C   UNL     1      -7.592 -10.502  17.352  0.00  0.00    +0.060 C 
ATOM      7  C   UNL     1      -5.540 -10.801  16.874  0.00  0.00    +0.004 C 
ATOM      8  C   UNL     1      -6.534  -9.648  16.624  0.00  0.00    +0.023 C 
ATOM     10  C   UNL     1      -6.079 -10.510  19.392  0.00  0.00    +0.013 C 
ATOM     11  C   UNL     1      -6.517 -12.689  18.299  0.00  0.00    +0.013 C 
ENDROOT
BRANCH   6   3
ATOM      3  N   UNL     1      -8.350  -9.644  18.267  0.00  0.00    -0.310 NA
ATOM     22  H   UNL     1      -7.918  -9.525  19.182  0.00  0.00    +0.122 HD
BRANCH   3  12
ATOM     12  C   UNL     1      -9.701 -10.181  18.421  0.00  0.00    +0.054 C 
ATOM     13  C   UNL     1     -10.732  -9.100  18.076  0.00  0.00    +0.019 C 
ATOM     14  C   UNL     1      -9.897 -10.696  19.851  0.00  0.00    +0.019 C 
ATOM     16  C   UNL     1     -12.158  -9.601  18.299  0.00  0.00    +0.002 C 
ATOM     17  C   UNL     1     -11.323 -11.194  20.073  0.00  0.00    +0.002 C 
ATOM     18  C   UNL     1     -12.354 -10.126  19.720  0.00  0.00    +0.000 C 
ENDBRANCH   3  12
ENDBRANCH   6   3
BRANCH   7   9
ATOM      9  C   UNL     1      -4.124 -10.359  17.169  0.00  0.00    +0.063 C 
BRANCH   9  15
ATOM      1  O   UNL     1      -1.294 -11.364  15.170  0.00  0.00    -0.357 OA
ATOM      4  N   UNL     1      -1.859 -10.772  16.292  0.00  0.00    -0.083 NA
ATOM     15  C   UNL     1      -3.178 -10.898  16.124  0.00  0.00    +0.084 A 
ATOM     19  C   UNL     1      -3.502 -11.556  14.924  0.00  0.00    +0.073 A 
ATOM     20  C   UNL     1      -2.283 -11.828  14.363  0.00  0.00    +0.163 A 
BRANCH  20  21
ATOM     21  C   UNL     1      -1.860 -12.489  13.121  0.00  0.00    +0.232 C 
BRANCH  21   2
ATOM      2  O   UNL     1      -0.835 -13.448  13.396  0.00  0.00    -0.387 OA
ATOM     23  H   UNL     1      -0.020 -13.115  12.983  0.00  0.00    +0.210 HD
ENDBRANCH  21   2
ENDBRANCH  20  21
ENDBRANCH   9  15
ENDBRANCH   7   9
TORSDOF 6
ENDMDL
MODEL 8
REMARK VINA RESULT:      -5.7     19.306     20.266
REMARK  Name = 56774124
REMARK  8 active torsions:
REMARK  status: ('A' for Active; 'I' for Inactive)
REMARK    1  A    between atoms: O_2  and  C_21
REMARK    2  A    between atoms: N_3  and  C_6
REMARK    3  A    between atoms: N_3  and  C_12
REMARK    4  A    between atoms: C_5  and  C_10
REMARK    5  A    between atoms: C_5  and  C_11
REMARK    6  A    between atoms: C_7  and  C_9
REMARK    7  A    between atoms: C_9  and  C_15
REMARK    8  A    between atoms: C_20  and  C_21
REMARK                            x       y       z     vdW  Elec       q    Type
REMARK                         _______ _______ _______ _____ _____    ______ ____
ROOT
ATOM      5  C   UNL     1      -5.406 -11.031  16.424  0.00  0.00    -0.016 C 
ATOM      6  C   UNL     1      -3.910 -11.364  16.252  0.00  0.00    +0.060 C 
ATOM      7  C   UNL     1      -5.254 -11.456  17.899  0.00  0.00    +0.004 C 
ATOM      8  C   UNL     1      -3.758 -11.104  17.765  0.00  0.00    +0.023 C 
ATOM     10  C   UNL     1      -5.693  -9.556  16.192  0.00  0.00    +0.013 C 
ATOM     11  C   UNL     1      -6.403 -11.865  15.649  0.00  0.00    +0.013 C 
ENDROOT
BRANCH   6   3
ATOM      3  N   UNL     1      -3.212 -10.307  15.515  0.00  0.00    -0.310 NA
ATOM     22  H   UNL     1      -3.802  -9.516  15.261  0.00  0.00    +0.122 HD
BRANCH   3  12
ATOM     12  C   UNL     1      -2.603 -10.878  14.314  0.00  0.00    +0.054 C 
ATOM     13  C   UNL     1      -3.426 -10.491  13.081  0.00  0.00    +0.019 C 
ATOM     14  C   UNL     1      -2.502 -12.400  14.456  0.00  0.00    +0.019 C 
ATOM     16  C   UNL     1      -2.863 -11.134  11.814  0.00  0.00    +0.002 C 
ATOM     17  C   UNL     1      -1.941 -13.042  13.189  0.00  0.00    +0.002 C 
ATOM     18  C   UNL     1      -2.750 -12.650  11.955  0.00  0.00    +0.000 C 
ENDBRANCH   3  12
ENDBRANCH   6   3
BRANCH   7   9
ATOM      9  C   UNL     1      -6.002 -10.643  18.932  0.00  0.00    +0.063 C 
BRANCH   9  15
ATOM      1  O   UNL     1      -9.230 -11.688  20.159  0.00  0.00    -0.357 OA
ATOM      4  N   UNL     1      -8.306 -10.714  19.802  0.00  0.00    -0.083 NA
ATOM     15  C   UNL     1      -7.226 -11.391  19.401  0.00  0.00    +0.084 A 
ATOM     19  C   UNL     1      -7.409 -12.783  19.482  0.00  0.00    +0.073 A 
ATOM     20  C   UNL     1      -8.683 -12.916  19.963  0.00  0.00    +0.163 A 
BRANCH  20  21
ATOM     21  C   UNL     1      -9.531 -14.070  20.292  0.00  0.00    +0.232 C 
BRANCH  21   2
ATOM      2  O   UNL     1      -8.789 -15.029  21.051  0.00  0.00    -0.387 OA
ATOM     23  H   UNL     1      -7.847 -14.816  20.931  0.00  0.00    +0.210 HD
ENDBRANCH  21   2
ENDBRANCH  20  21
ENDBRANCH   9  15
ENDBRANCH   7   9
TORSDOF 6
ENDMDL
MODEL 9
REMARK VINA RESULT:      -5.6     14.629     15.623
REMARK  Name = 56774124
REMARK  8 active torsions:
REMARK  status: ('A' for Active; 'I' for Inactive)
REMARK    1  A    between atoms: O_2  and  C_21
REMARK    2  A    between atoms: N_3  and  C_6
REMARK    3  A    between atoms: N_3  and  C_12
REMARK    4  A    between atoms: C_5  and  C_10
REMARK    5  A    between atoms: C_5  and  C_11
REMARK    6  A    between atoms: C_7  and  C_9
REMARK    7  A    between atoms: C_9  and  C_15
REMARK    8  A    between atoms: C_20  and  C_21
REMARK                            x       y       z     vdW  Elec       q    Type
REMARK                         _______ _______ _______ _____ _____    ______ ____
ROOT
ATOM      5  C   UNL     1     -11.939  -7.651  14.869  0.00  0.00    -0.016 C 
ATOM      6  C   UNL     1     -11.959  -6.130  14.612  0.00  0.00    +0.060 C 
ATOM      7  C   UNL     1     -10.855  -7.381  15.933  0.00  0.00    +0.004 C 
ATOM      8  C   UNL     1     -11.439  -5.958  16.055  0.00  0.00    +0.023 C 
ATOM     10  C   UNL     1     -13.270  -8.157  15.403  0.00  0.00    +0.013 C 
ATOM     11  C   UNL     1     -11.476  -8.547  13.740  0.00  0.00    +0.013 C 
ENDROOT
BRANCH   6   3
ATOM      3  N   UNL     1     -13.332  -5.623  14.538  0.00  0.00    -0.310 NA
ATOM     22  H   UNL     1     -14.017  -6.313  14.235  0.00  0.00    +0.122 HD
BRANCH   3  12
ATOM     12  C   UNL     1     -13.369  -4.463  13.648  0.00  0.00    +0.054 C 
ATOM     13  C   UNL     1     -14.760  -4.336  13.018  0.00  0.00    +0.019 C 
ATOM     14  C   UNL     1     -12.285  -4.597  12.574  0.00  0.00    +0.019 C 
ATOM     16  C   UNL     1     -14.815  -3.178  12.022  0.00  0.00    +0.002 C 
ATOM     17  C   UNL     1     -12.343  -3.440  11.578  0.00  0.00    +0.002 C 
ATOM     18  C   UNL     1     -13.730  -3.301  10.956  0.00  0.00    +0.000 C 
ENDBRANCH   3  12
ENDBRANCH   6   3
BRANCH   7   9
ATOM      9  C   UNL     1     -10.917  -8.198  17.204  0.00  0.00    +0.063 C 
BRANCH   9  15
ATOM      1  O   UNL     1      -8.260 -10.410  18.237  0.00  0.00    -0.357 OA
ATOM      4  N   UNL     1      -9.562  -9.932  18.313  0.00  0.00    -0.083 NA
ATOM     15  C   UNL     1      -9.627  -8.956  17.403  0.00  0.00    +0.084 A 
ATOM     19  C   UNL     1      -8.406  -8.774  16.729  0.00  0.00    +0.073 A 
ATOM     20  C   UNL     1      -7.582  -9.712  17.290  0.00  0.00    +0.163 A 
BRANCH  20  21
ATOM     21  C   UNL     1      -6.179 -10.090  17.077  0.00  0.00    +0.232 C 
BRANCH  21   2
ATOM      2  O   UNL     1      -5.591  -9.266  16.067  0.00  0.00    -0.387 OA
ATOM     23  H   UNL     1      -5.852  -9.642  15.208  0.00  0.00    +0.210 HD
ENDBRANCH  21   2
ENDBRANCH  20  21
ENDBRANCH   9  15
ENDBRANCH   7   9
TORSDOF 6
ENDMDL
MODEL 10
REMARK VINA RESULT:      -5.6     17.679     20.037
REMARK  Name = 56774124
REMARK  8 active torsions:
REMARK  status: ('A' for Active; 'I' for Inactive)
REMARK    1  A    between atoms: O_2  and  C_21
REMARK    2  A    between atoms: N_3  and  C_6
REMARK    3  A    between atoms: N_3  and  C_12
REMARK    4  A    between atoms: C_5  and  C_10
REMARK    5  A    between atoms: C_5  and  C_11
REMARK    6  A    between atoms: C_7  and  C_9
REMARK    7  A    between atoms: C_9  and  C_15
REMARK    8  A    between atoms: C_20  and  C_21
REMARK                            x       y       z     vdW  Elec       q    Type
REMARK                         _______ _______ _______ _____ _____    ______ ____
ROOT
ATOM      5  C   UNL     1      -7.013 -11.210  18.474  0.00  0.00    -0.016 C 
ATOM      6  C   UNL     1      -8.550 -11.219  18.617  0.00  0.00    +0.060 C 
ATOM      7  C   UNL     1      -7.222 -10.560  17.091  0.00  0.00    +0.004 C 
ATOM      8  C   UNL     1      -8.571 -10.038  17.625  0.00  0.00    +0.023 C 
ATOM     10  C   UNL     1      -6.349 -10.329  19.519  0.00  0.00    +0.013 C 
ATOM     11  C   UNL     1      -6.307 -12.548  18.419  0.00  0.00    +0.013 C 
ENDROOT
BRANCH   6   3
ATOM      3  N   UNL     1      -8.963 -10.739  19.939  0.00  0.00    -0.310 NA
ATOM     22  H   UNL     1      -8.332 -11.002  20.694  0.00  0.00    +0.122 HD
BRANCH   3  12
ATOM     12  C   UNL     1     -10.312 -11.224  20.227  0.00  0.00    +0.054 C 
ATOM     13  C   UNL     1     -10.648 -12.403  19.308  0.00  0.00    +0.019 C 
ATOM     14  C   UNL     1     -11.321 -10.084  20.057  0.00  0.00    +0.019 C 
ATOM     16  C   UNL     1     -12.080 -12.888  19.528  0.00  0.00    +0.002 C 
ATOM     17  C   UNL     1     -12.753 -10.571  20.275  0.00  0.00    +0.002 C 
ATOM     18  C   UNL     1     -13.089 -11.753  19.370  0.00  0.00    +0.000 C 
ENDBRANCH   3  12
ENDBRANCH   6   3
BRANCH   7   9
ATOM      9  C   UNL     1      -6.246  -9.480  16.682  0.00  0.00    +0.063 C 
BRANCH   9  15
ATOM      1  O   UNL     1      -3.989 -10.867  14.232  0.00  0.00    -0.357 OA
ATOM      4  N   UNL     1      -5.213 -10.331  14.613  0.00  0.00    -0.083 NA
ATOM     15  C   UNL     1      -5.089 -10.079  15.919  0.00  0.00    +0.084 A 
ATOM     19  C   UNL     1      -3.821 -10.434  16.413  0.00  0.00    +0.073 A 
ATOM     20  C   UNL     1      -3.169 -10.923  15.313  0.00  0.00    +0.163 A 
BRANCH  20  21
ATOM     21  C   UNL     1      -1.824 -11.468  15.088  0.00  0.00    +0.232 C 
BRANCH  21   2
ATOM      2  O   UNL     1      -0.955 -11.105  16.165  0.00  0.00    -0.387 OA
ATOM     23  H   UNL     1      -1.300 -11.540  16.964  0.00  0.00    +0.210 HD
ENDBRANCH  21   2
ENDBRANCH  20  21
ENDBRANCH   9  15
ENDBRANCH   7   9
TORSDOF 6
ENDMDL
