REMARK  Name = 75536343
REMARK  9 active torsions:
REMARK  status: ('A' for Active; 'I' for Inactive)
REMARK    1  A    between atoms: O_2  and  C_9
REMARK    2  A    between atoms: O_5  and  C_23
REMARK    3  A    between atoms: O_5  and  C_24
REMARK    4  A    between atoms: N_6  and  C_13
REMARK    5  A    between atoms: N_6  and  C_14
REMARK    6  A    between atoms: C_8  and  C_13
REMARK    7  A    between atoms: C_10  and  C_15
REMARK    8  A    between atoms: C_15  and  C_20
REMARK    9  A    between atoms: C_22  and  C_23
REMARK                            x       y       z     vdW  Elec       q    Type
REMARK                         _______ _______ _______ _____ _____    ______ ____
ROOT
ATOM      1  O   UNL     1       3.165  -0.707   0.975  0.00  0.00    -0.369 OA
ATOM      8  C   UNL     1       3.722   0.588   1.240  0.00  0.00    +0.161 C 
ATOM      9  C   UNL     1       5.231   0.614   0.964  0.00  0.00    +0.145 C 
ATOM     10  C   UNL     1       3.404  -1.214  -0.341  0.00  0.00    +0.125 C 
ATOM     11  C   UNL     1       5.582   0.035  -0.403  0.00  0.00    +0.036 C 
ATOM     12  C   UNL     1       4.904  -1.316  -0.615  0.00  0.00    +0.034 C 
ENDROOT
BRANCH   9   2
ATOM      2  O   UNL     1       5.894  -0.175   1.956  0.00  0.00    -0.389 OA
ATOM     31  H   UNL     1       6.850  -0.108   1.794  0.00  0.00    +0.210 HD
ENDBRANCH   9   2
BRANCH   8  13
ATOM     13  C   UNL     1       2.959   1.678   0.489  0.00  0.00    +0.115 C 
BRANCH  13   6
ATOM      6  N   UNL     1       1.540   1.627   0.801  0.00  0.00    -0.311 NA
ATOM     30  H   UNL     1       1.419   1.735   1.808  0.00  0.00    +0.122 HD
BRANCH   6  14
ATOM      3  O   UNL     1      -1.532   3.519  -1.346  0.00  0.00    -0.380 OA
ATOM     14  C   UNL     1       0.811   2.683   0.103  0.00  0.00    +0.058 C 
ATOM     16  C   UNL     1      -0.519   2.988   0.799  0.00  0.00    +0.047 C 
ATOM     17  C   UNL     1       0.561   2.284  -1.354  0.00  0.00    +0.047 C 
ATOM     18  C   UNL     1      -1.324   3.995  -0.016  0.00  0.00    +0.161 C 
ATOM     19  C   UNL     1      -0.304   3.329  -2.049  0.00  0.00    +0.161 C 
ENDBRANCH   6  14
ENDBRANCH  13   6
ENDBRANCH   8  13
BRANCH  10  15
ATOM     15  C   UNL     1       2.742  -2.583  -0.431  0.00  0.00    +0.090 C 
BRANCH  15  20
ATOM      4  O   UNL     1      -0.629  -2.321  -1.678  0.00  0.00    -0.356 OA
ATOM      7  N   UNL     1       0.745  -2.418  -1.859  0.00  0.00    -0.083 NA
ATOM     20  C   UNL     1       1.253  -2.471  -0.625  0.00  0.00    +0.086 A 
ATOM     21  C   UNL     1       0.257  -2.412   0.366  0.00  0.00    +0.074 A 
ATOM     22  C   UNL     1      -0.907  -2.318  -0.349  0.00  0.00    +0.175 A 
BRANCH  22  23
ATOM     23  C   UNL     1      -2.324  -2.221   0.024  0.00  0.00    +0.306 C 
BRANCH  23   5
ATOM      5  O   UNL     1      -2.796  -0.884  -0.166  0.00  0.00    -0.484 OA
BRANCH   5  24
ATOM     24  C   UNL     1      -4.088  -0.636   0.206  0.00  0.00    +0.121 A 
ATOM     25  C   UNL     1      -4.869  -1.661   0.739  0.00  0.00    +0.045 A 
ATOM     26  C   UNL     1      -4.624   0.642   0.053  0.00  0.00    +0.045 A 
ATOM     27  C   UNL     1      -6.187  -1.408   1.118  0.00  0.00    +0.004 A 
ATOM     28  C   UNL     1      -5.942   0.895   0.433  0.00  0.00    +0.004 A 
ATOM     29  C   UNL     1      -6.724  -0.130   0.965  0.00  0.00    +0.000 A 
ENDBRANCH   5  24
ENDBRANCH  23   5
ENDBRANCH  22  23
ENDBRANCH  15  20
ENDBRANCH  10  15
TORSDOF 9
