REMARK  Name = 11882029
REMARK  9 active torsions:
REMARK  status: ('A' for Active; 'I' for Inactive)
REMARK    1  A    between atoms: N_6  and  C_12
REMARK    2  A    between atoms: N_7  and  C_16
REMARK    3  A    between atoms: N_8  and  C_25
REMARK    4  A    between atoms: N_9  and  C_34
REMARK    5  A    between atoms: C_13  and  C_21
REMARK    6  A    between atoms: C_23  and  C_26
REMARK    7  A    between atoms: C_25  and  C_27
REMARK    8  A    between atoms: C_25  and  C_30
REMARK    9  A    between atoms: C_27  and  C_29
REMARK                            x       y       z     vdW  Elec       q    Type
REMARK                         _______ _______ _______ _____ _____    ______ ____
ROOT
ATOM      2  O   UNL     1       4.088   1.945   0.048  0.00  0.00    -0.268 OA
ATOM      5  N   UNL     1       3.030   0.159  -0.958  0.00  0.00    -0.283 N 
ATOM     12  C   UNL     1       1.533  -1.429  -1.905  0.00  0.00    +0.094 C 
ATOM     13  C   UNL     1       1.824   0.896  -1.307  0.00  0.00    +0.164 C 
ATOM     14  C   UNL     1       1.059  -0.018  -2.262  0.00  0.00    +0.056 C 
ATOM     15  C   UNL     1       2.974  -1.219  -1.452  0.00  0.00    +0.131 C 
ATOM     23  C   UNL     1       4.122   0.777  -0.340  0.00  0.00    +0.264 C 
ENDROOT
BRANCH  12   6
ATOM      3  O   UNL     1      -0.780  -3.096  -2.274  0.00  0.00    -0.253 OA
ATOM      6  N   UNL     1       0.732  -2.034  -0.871  0.00  0.00    -0.295 N 
ATOM      7  N   UNL     1      -0.973  -3.290   0.031  0.00  0.00    -0.297 N 
ATOM     24  C   UNL     1      -0.379  -2.832  -1.142  0.00  0.00    +0.300 C 
ATOM     41  H   UNL     1       0.947  -1.821   0.098  0.00  0.00    +0.151 HD
ATOM     42  H   UNL     1      -0.603  -2.951   0.914  0.00  0.00    +0.151 HD
BRANCH   7  16
ATOM     16  C   UNL     1      -2.144  -4.138   0.047  0.00  0.00    +0.074 C 
ATOM     17  C   UNL     1      -2.117  -5.092   1.245  0.00  0.00    +0.022 C 
ATOM     18  C   UNL     1      -3.429  -3.304   0.029  0.00  0.00    +0.022 C 
ATOM     19  C   UNL     1      -2.369  -4.373   2.571  0.00  0.00    +0.002 C 
ATOM     20  C   UNL     1      -3.679  -2.588   1.357  0.00  0.00    +0.002 C 
ATOM     22  C   UNL     1      -3.659  -3.559   2.533  0.00  0.00    +0.000 C 
ENDBRANCH   7  16
ENDBRANCH  12   6
BRANCH  23  26
ATOM      9  N   UNL     1       5.870  -0.325   1.073  0.00  0.00    -0.346 N 
ATOM     26  C   UNL     1       5.309  -0.045  -0.145  0.00  0.00    +0.104 A 
ATOM     28  C   UNL     1       6.064  -0.672  -1.111  0.00  0.00    +0.032 A 
ATOM     31  C   UNL     1       6.971  -1.122   0.899  0.00  0.00    +0.086 A 
ATOM     32  C   UNL     1       7.116  -1.353  -0.451  0.00  0.00    +0.020 A 
ATOM     34  C   UNL     1       5.387   0.139   2.355  0.00  0.00    +0.149 C 
ENDBRANCH  23  26
BRANCH  13  21
ATOM      1  O   UNL     1       1.079   0.402   0.907  0.00  0.00    -0.274 OA
ATOM      8  N   UNL     1       0.282   2.317  -0.150  0.00  0.00    -0.302 N 
ATOM     21  C   UNL     1       1.039   1.162  -0.057  0.00  0.00    +0.234 C 
ATOM     43  H   UNL     1       0.377   2.904  -0.974  0.00  0.00    +0.150 HD
BRANCH   8  25
ATOM     25  C   UNL     1      -0.581   2.784   0.911  0.00  0.00    +0.163 C 
BRANCH  25  30
ATOM      4  O   UNL     1       1.198   4.344   1.465  0.00  0.00    -0.274 OA
ATOM     11  N   UNL     1      -0.130   3.546   3.161  0.00  0.00    -0.328 N 
ATOM     30  C   UNL     1       0.274   3.628   1.845  0.00  0.00    +0.231 C 
ATOM     45  H   UNL     1       0.347   4.071   3.886  0.00  0.00    +0.145 HD
ATOM     46  H   UNL     1      -0.910   2.967   3.456  0.00  0.00    +0.145 HD
ENDBRANCH  25  30
BRANCH  25  27
ATOM     27  C   UNL     1      -1.764   3.603   0.380  0.00  0.00    +0.069 C 
BRANCH  27  29
ATOM     10  N   UNL     1      -3.460   1.973  -2.445  0.00  0.00    -0.360 N 
ATOM     29  C   UNL     1      -2.633   2.833  -0.573  0.00  0.00    -0.020 A 
ATOM     33  C   UNL     1      -3.765   2.040  -0.236  0.00  0.00    +0.003 A 
ATOM     35  C   UNL     1      -2.471   2.772  -1.938  0.00  0.00    +0.087 A 
ATOM     36  C   UNL     1      -4.266   1.512  -1.428  0.00  0.00    +0.047 A 
ATOM     37  C   UNL     1      -4.415   1.720   0.973  0.00  0.00    +0.010 A 
ATOM     38  C   UNL     1      -5.387   0.677  -1.472  0.00  0.00    +0.026 A 
ATOM     39  C   UNL     1      -5.538   0.885   0.945  0.00  0.00    +0.001 A 
ATOM     40  C   UNL     1      -6.015   0.373  -0.260  0.00  0.00    +0.002 A 
ATOM     44  H   UNL     1      -3.582   1.753  -3.423  0.00  0.00    +0.165 HD
ENDBRANCH  27  29
ENDBRANCH  25  27
ENDBRANCH   8  25
ENDBRANCH  13  21
TORSDOF 8
