REMARK  Name = 75536688
REMARK  10 active torsions:
REMARK  status: ('A' for Active; 'I' for Inactive)
REMARK    1  A    between atoms: S_1  and  N_10
REMARK    2  A    between atoms: S_1  and  C_18
REMARK    3  A    between atoms: S_2  and  C_21
REMARK    4  A    between atoms: S_2  and  C_28
REMARK    5  A    between atoms: O_4  and  C_12
REMARK    6  A    between atoms: N_9  and  C_11
REMARK    7  A    between atoms: N_9  and  C_16
REMARK    8  A    between atoms: N_10  and  C_15
REMARK    9  A    between atoms: C_13  and  C_15
REMARK   10  A    between atoms: C_16  and  C_17
REMARK                            x       y       z     vdW  Elec       q    Type
REMARK                         _______ _______ _______ _____ _____    ______ ____
ROOT
ATOM      3  O   UNL     1       1.625   1.518  -1.353  0.00  0.00    -0.371 OA
ATOM     11  C   UNL     1      -0.363   1.496  -0.053  0.00  0.00    +0.111 C 
ATOM     12  C   UNL     1       0.773   0.916   0.770  0.00  0.00    +0.164 C 
ATOM     13  C   UNL     1       1.983   1.482   0.039  0.00  0.00    +0.164 C 
ATOM     14  C   UNL     1       0.197   1.381  -1.461  0.00  0.00    +0.181 C 
ENDROOT
BRANCH  12   4
ATOM      4  O   UNL     1       0.733   1.329   2.122  0.00  0.00    -0.388 OA
ATOM     31  H   UNL     1       0.739   2.301   2.146  0.00  0.00    +0.210 HD
ENDBRANCH  12   4
BRANCH  11   9
ATOM      9  N   UNL     1      -1.623   0.790   0.114  0.00  0.00    -0.305 NA
ATOM     30  H   UNL     1      -1.782   0.623   1.108  0.00  0.00    +0.123 HD
BRANCH   9  16
ATOM     16  C   UNL     1      -2.736   1.570  -0.416  0.00  0.00    +0.116 C 
BRANCH  16  17
ATOM     17  C   UNL     1      -4.048   0.847  -0.267  0.00  0.00    -0.033 A 
ATOM     19  C   UNL     1      -4.944   1.228   0.732  0.00  0.00    +0.007 A 
ATOM     20  C   UNL     1      -4.367  -0.204  -1.127  0.00  0.00    +0.007 A 
ATOM     21  C   UNL     1      -6.479  -0.492   0.010  0.00  0.00    +0.088 A 
ATOM     22  C   UNL     1      -6.160   0.558   0.870  0.00  0.00    +0.027 A 
ATOM     23  C   UNL     1      -5.583  -0.873  -0.988  0.00  0.00    +0.027 A 
BRANCH  21   2
ATOM      2  S   UNL     1      -8.000  -1.333   0.185  0.00  0.00    -0.006 S 
ATOM      7  O   UNL     1      -7.869  -2.668  -0.383  0.00  0.00    -0.170 OA
ATOM      8  O   UNL     1      -8.444  -1.174   1.563  0.00  0.00    -0.170 OA
ATOM     28  C   UNL     1      -9.125  -0.435  -0.859  0.00  0.00    +0.200 C 
ENDBRANCH  21   2
ENDBRANCH  16  17
ENDBRANCH   9  16
ENDBRANCH  11   9
BRANCH  13  15
ATOM     15  C   UNL     1       3.239   0.650   0.224  0.00  0.00    +0.140 C 
BRANCH  15  10
ATOM     10  N   UNL     1       4.357   1.269  -0.516  0.00  0.00    -0.187 NA
ATOM     32  H   UNL     1       4.210   1.391  -1.526  0.00  0.00    +0.148 HD
BRANCH  10   1
ATOM      1  S   UNL     1       5.950   1.109   0.058  0.00  0.00    +0.058 S 
ATOM      5  O   UNL     1       6.013   1.559   1.435  0.00  0.00    -0.153 OA
ATOM      6  O   UNL     1       6.864   1.654  -0.929  0.00  0.00    -0.153 OA
BRANCH   1  18
ATOM     18  C   UNL     1       6.165  -0.645   0.046  0.00  0.00    +0.105 A 
ATOM     24  C   UNL     1       5.836  -1.395   1.176  0.00  0.00    +0.028 A 
ATOM     25  C   UNL     1       6.663  -1.280  -1.091  0.00  0.00    +0.028 A 
ATOM     26  C   UNL     1       6.006  -2.780   1.167  0.00  0.00    +0.002 A 
ATOM     27  C   UNL     1       6.833  -2.664  -1.100  0.00  0.00    +0.002 A 
ATOM     29  C   UNL     1       6.504  -3.414   0.029  0.00  0.00    +0.000 A 
ENDBRANCH   1  18
ENDBRANCH  10   1
ENDBRANCH  15  10
ENDBRANCH  13  15
TORSDOF 9
