MODEL 1
REMARK VINA RESULT:      -6.4      0.000      0.000
REMARK  Name = 7135170
REMARK  11 active torsions:
REMARK  status: ('A' for Active; 'I' for Inactive)
REMARK    1  A    between atoms: O_2  and  C_15
REMARK    2  A    between atoms: O_3  and  C_20
REMARK    3  A    between atoms: N_8  and  C_26
REMARK    4  A    between atoms: C_10  and  C_18
REMARK    5  A    between atoms: C_12  and  C_20
REMARK    6  A    between atoms: C_12  and  C_21
REMARK    7  A    between atoms: C_13  and  C_23
REMARK    8  A    between atoms: C_23  and  C_24
REMARK    9  A    between atoms: C_26  and  C_28
REMARK   10  A    between atoms: C_26  and  C_29
REMARK   11  A    between atoms: C_27  and  C_30
REMARK                            x       y       z     vdW  Elec       q    Type
REMARK                         _______ _______ _______ _____ _____    ______ ____
ROOT
ATOM      1  S   UNL     1      17.645  -2.562  30.117  0.00  0.00    -0.057 S 
ATOM      5  O   UNL     1      19.683  -3.174  26.013  0.00  0.00    -0.266 OA
ATOM      7  N   UNL     1      17.813  -4.108  28.048  0.00  0.00    -0.229 NA
ATOM      9  N   UNL     1      19.193  -2.131  28.045  0.00  0.00    -0.258 N 
ATOM     10  C   UNL     1      15.519  -6.602  29.887  0.00  0.00    -0.019 C 
ATOM     11  C   UNL     1      14.756  -5.445  30.671  0.00  0.00    +0.011 C 
ATOM     12  C   UNL     1      13.695  -5.889  31.750  0.00  0.00    +0.021 C 
ATOM     13  C   UNL     1      16.186  -5.959  28.584  0.00  0.00    +0.054 C 
ATOM     14  C   UNL     1      14.497  -7.676  29.432  0.00  0.00    +0.010 C 
ATOM     15  C   UNL     1      12.786  -6.997  31.147  0.00  0.00    +0.123 C 
ATOM     16  C   UNL     1      15.746  -4.354  31.177  0.00  0.00    +0.049 C 
ATOM     17  C   UNL     1      13.571  -8.156  30.541  0.00  0.00    +0.032 C 
ATOM     18  C   UNL     1      16.613  -7.288  30.741  0.00  0.00    +0.012 C 
ATOM     19  C   UNL     1      16.905  -4.678  28.921  0.00  0.00    +0.058 A 
ATOM     21  C   UNL     1      12.782  -4.678  32.092  0.00  0.00    +0.016 C 
ATOM     22  C   UNL     1      16.680  -3.965  30.081  0.00  0.00    +0.015 A 
ATOM     25  C   UNL     1      18.272  -2.994  28.577  0.00  0.00    +0.165 A 
ATOM     27  C   UNL     1      19.855  -2.249  26.802  0.00  0.00    +0.285 C 
ATOM     42  H   UNL     1      19.413  -1.326  28.625  0.00  0.00    +0.157 HD
ENDROOT
BRANCH  27  30
ATOM      6  O   UNL     1      21.559  -0.689  27.551  0.00  0.00    -0.458 OA
ATOM     30  C   UNL     1      20.834  -1.184  26.513  0.00  0.00    +0.189 A 
ATOM     33  C   UNL     1      21.181  -0.559  25.339  0.00  0.00    +0.054 A 
ATOM     37  C   UNL     1      22.183   0.382  25.676  0.00  0.00    +0.042 A 
ATOM     38  C   UNL     1      22.377   0.264  27.032  0.00  0.00    +0.196 A 
ENDBRANCH  27  30
BRANCH  15   2
ATOM      2  O   UNL     1      11.898  -7.513  32.138  0.00  0.00    -0.391 OA
ATOM     39  H   UNL     1      11.541  -8.355  31.805  0.00  0.00    +0.210 HD
ENDBRANCH  15   2
BRANCH  12  20
ATOM     20  C   UNL     1      14.301  -6.345  33.094  0.00  0.00    +0.165 C 
BRANCH  20   3
ATOM      3  O   UNL     1      13.437  -5.919  34.124  0.00  0.00    -0.394 OA
ATOM     40  H   UNL     1      13.675  -5.002  34.343  0.00  0.00    +0.209 HD
ENDBRANCH  20   3
ENDBRANCH  12  20
BRANCH  13  23
ATOM     23  C   UNL     1      17.084  -6.916  27.790  0.00  0.00    +0.106 C 
BRANCH  23  24
ATOM      4  O   UNL     1      15.889  -7.724  25.848  0.00  0.00    -0.276 OA
ATOM      8  N   UNL     1      17.439  -6.009  25.609  0.00  0.00    -0.309 N 
ATOM     24  C   UNL     1      16.716  -6.953  26.324  0.00  0.00    +0.214 C 
ATOM     41  H   UNL     1      18.062  -5.383  26.113  0.00  0.00    +0.149 HD
BRANCH   8  26
ATOM     26  C   UNL     1      17.295  -5.820  24.183  0.00  0.00    +0.100 C 
ATOM     28  C   UNL     1      18.383  -6.591  23.439  0.00  0.00    +0.033 C 
BRANCH  26  29
ATOM     29  C   UNL     1      17.271  -4.351  23.819  0.00  0.00    -0.027 A 
ATOM     31  C   UNL     1      16.503  -3.459  24.568  0.00  0.00    +0.005 A 
ATOM     32  C   UNL     1      18.015  -3.889  22.734  0.00  0.00    +0.005 A 
ATOM     34  C   UNL     1      16.481  -2.105  24.232  0.00  0.00    +0.000 A 
ATOM     35  C   UNL     1      17.993  -2.535  22.398  0.00  0.00    +0.000 A 
ATOM     36  C   UNL     1      17.227  -1.643  23.148  0.00  0.00    +0.000 A 
ENDBRANCH  26  29
ENDBRANCH   8  26
ENDBRANCH  23  24
ENDBRANCH  13  23
TORSDOF 8
ENDMDL
MODEL 2
REMARK VINA RESULT:      -6.3     24.754     28.496
REMARK  Name = 7135170
REMARK  11 active torsions:
REMARK  status: ('A' for Active; 'I' for Inactive)
REMARK    1  A    between atoms: O_2  and  C_15
REMARK    2  A    between atoms: O_3  and  C_20
REMARK    3  A    between atoms: N_8  and  C_26
REMARK    4  A    between atoms: C_10  and  C_18
REMARK    5  A    between atoms: C_12  and  C_20
REMARK    6  A    between atoms: C_12  and  C_21
REMARK    7  A    between atoms: C_13  and  C_23
REMARK    8  A    between atoms: C_23  and  C_24
REMARK    9  A    between atoms: C_26  and  C_28
REMARK   10  A    between atoms: C_26  and  C_29
REMARK   11  A    between atoms: C_27  and  C_30
REMARK                            x       y       z     vdW  Elec       q    Type
REMARK                         _______ _______ _______ _____ _____    ______ ____
ROOT
ATOM      1  S   UNL     1      18.705 -10.076  -1.465  0.00  0.00    -0.057 S 
ATOM      5  O   UNL     1      18.571 -14.216   0.586  0.00  0.00    -0.266 OA
ATOM      7  N   UNL     1      19.467 -11.440   0.598  0.00  0.00    -0.229 NA
ATOM      9  N   UNL     1      18.143 -12.603  -1.048  0.00  0.00    -0.258 N 
ATOM     10  C   UNL     1      21.554  -8.385   1.685  0.00  0.00    -0.019 C 
ATOM     11  C   UNL     1      20.534  -7.355   1.028  0.00  0.00    +0.011 C 
ATOM     12  C   UNL     1      20.941  -5.831   1.049  0.00  0.00    +0.021 C 
ATOM     13  C   UNL     1      20.772  -9.755   1.947  0.00  0.00    +0.054 C 
ATOM     14  C   UNL     1      22.038  -7.832   3.050  0.00  0.00    +0.010 C 
ATOM     15  C   UNL     1      21.444  -5.456   2.472  0.00  0.00    +0.123 C 
ATOM     16  C   UNL     1      20.040  -7.852  -0.363  0.00  0.00    +0.049 C 
ATOM     17  C   UNL     1      22.530  -6.392   2.992  0.00  0.00    +0.032 C 
ATOM     18  C   UNL     1      22.790  -8.660   0.793  0.00  0.00    +0.012 C 
ATOM     19  C   UNL     1      19.968 -10.159   0.737  0.00  0.00    +0.058 A 
ATOM     21  C   UNL     1      19.682  -4.965   0.762  0.00  0.00    +0.016 C 
ATOM     22  C   UNL     1      19.636  -9.285  -0.279  0.00  0.00    +0.015 A 
ATOM     25  C   UNL     1      18.791 -11.513  -0.529  0.00  0.00    +0.165 A 
ATOM     27  C   UNL     1      18.057 -13.895  -0.482  0.00  0.00    +0.285 C 
ATOM     42  H   UNL     1      17.684 -12.444  -1.941  0.00  0.00    +0.157 HD
ENDROOT
BRANCH  27  30
ATOM      6  O   UNL     1      17.938 -15.368  -2.408  0.00  0.00    -0.458 OA
ATOM     30  C   UNL     1      17.326 -14.884  -1.295  0.00  0.00    +0.189 A 
ATOM     33  C   UNL     1      16.082 -15.449  -1.143  0.00  0.00    +0.054 A 
ATOM     37  C   UNL     1      15.917 -16.336  -2.234  0.00  0.00    +0.042 A 
ATOM     38  C   UNL     1      17.073 -16.250  -2.973  0.00  0.00    +0.196 A 
ENDBRANCH  27  30
BRANCH  15   2
ATOM      2  O   UNL     1      21.941  -4.119   2.493  0.00  0.00    -0.391 OA
ATOM     39  H   UNL     1      22.647  -4.077   3.162  0.00  0.00    +0.210 HD
ENDBRANCH  15   2
BRANCH  12  20
ATOM     20  C   UNL     1      21.975  -5.429  -0.024  0.00  0.00    +0.165 C 
BRANCH  20   3
ATOM      3  O   UNL     1      21.500  -4.269  -0.670  0.00  0.00    -0.394 OA
ATOM     40  H   UNL     1      21.362  -4.493  -1.605  0.00  0.00    +0.209 HD
ENDBRANCH  20   3
ENDBRANCH  12  20
BRANCH  13  23
ATOM     23  C   UNL     1      21.654 -10.907   2.446  0.00  0.00    +0.106 C 
BRANCH  23  24
ATOM      4  O   UNL     1      21.553 -11.230   4.842  0.00  0.00    -0.276 OA
ATOM      8  N   UNL     1      20.105 -12.415   3.464  0.00  0.00    -0.309 N 
ATOM     24  C   UNL     1      21.124 -11.511   3.727  0.00  0.00    +0.214 C 
ATOM     41  H   UNL     1      19.791 -12.534   2.504  0.00  0.00    +0.149 HD
BRANCH   8  26
ATOM     26  C   UNL     1      19.413 -13.148   4.500  0.00  0.00    +0.100 C 
ATOM     28  C   UNL     1      19.816 -14.620   4.460  0.00  0.00    +0.033 C 
BRANCH  26  29
ATOM     29  C   UNL     1      17.915 -12.952   4.409  0.00  0.00    -0.027 A 
ATOM     31  C   UNL     1      17.103 -13.262   5.501  0.00  0.00    +0.005 A 
ATOM     32  C   UNL     1      17.345 -12.463   3.235  0.00  0.00    +0.005 A 
ATOM     34  C   UNL     1      15.723 -13.082   5.417  0.00  0.00    +0.000 A 
ATOM     35  C   UNL     1      15.964 -12.283   3.151  0.00  0.00    +0.000 A 
ATOM     36  C   UNL     1      15.153 -12.592   4.242  0.00  0.00    +0.000 A 
ENDBRANCH  26  29
ENDBRANCH   8  26
ENDBRANCH  23  24
ENDBRANCH  13  23
TORSDOF 8
ENDMDL
MODEL 3
REMARK VINA RESULT:      -6.3     25.364     27.707
REMARK  Name = 7135170
REMARK  11 active torsions:
REMARK  status: ('A' for Active; 'I' for Inactive)
REMARK    1  A    between atoms: O_2  and  C_15
REMARK    2  A    between atoms: O_3  and  C_20
REMARK    3  A    between atoms: N_8  and  C_26
REMARK    4  A    between atoms: C_10  and  C_18
REMARK    5  A    between atoms: C_12  and  C_20
REMARK    6  A    between atoms: C_12  and  C_21
REMARK    7  A    between atoms: C_13  and  C_23
REMARK    8  A    between atoms: C_23  and  C_24
REMARK    9  A    between atoms: C_26  and  C_28
REMARK   10  A    between atoms: C_26  and  C_29
REMARK   11  A    between atoms: C_27  and  C_30
REMARK                            x       y       z     vdW  Elec       q    Type
REMARK                         _______ _______ _______ _____ _____    ______ ____
ROOT
ATOM      1  S   UNL     1      -7.905 -10.325  12.799  0.00  0.00    -0.057 S 
ATOM      5  O   UNL     1      -4.295 -10.843   9.959  0.00  0.00    -0.266 OA
ATOM      7  N   UNL     1      -5.381 -10.880  12.666  0.00  0.00    -0.229 NA
ATOM      9  N   UNL     1      -6.503 -10.407  10.585  0.00  0.00    -0.258 N 
ATOM     10  C   UNL     1      -5.312 -10.885  16.521  0.00  0.00    -0.019 C 
ATOM     11  C   UNL     1      -6.818 -11.388  16.627  0.00  0.00    +0.011 C 
ATOM     12  C   UNL     1      -7.445 -11.477  18.072  0.00  0.00    +0.021 C 
ATOM     13  C   UNL     1      -4.757 -11.285  15.076  0.00  0.00    +0.054 C 
ATOM     14  C   UNL     1      -4.451 -11.607  17.591  0.00  0.00    +0.010 C 
ATOM     15  C   UNL     1      -6.438 -12.184  19.023  0.00  0.00    +0.123 C 
ATOM     16  C   UNL     1      -7.732 -10.669  15.591  0.00  0.00    +0.049 C 
ATOM     17  C   UNL     1      -5.044 -11.564  18.992  0.00  0.00    +0.032 C 
ATOM     18  C   UNL     1      -5.172  -9.356  16.721  0.00  0.00    +0.012 C 
ATOM     19  C   UNL     1      -5.748 -10.926  13.998  0.00  0.00    +0.058 A 
ATOM     21  C   UNL     1      -8.724 -12.359  18.017  0.00  0.00    +0.016 C 
ATOM     22  C   UNL     1      -7.081 -10.671  14.249  0.00  0.00    +0.015 A 
ATOM     25  C   UNL     1      -6.435 -10.565  11.944  0.00  0.00    +0.165 A 
ATOM     27  C   UNL     1      -5.449 -10.550   9.655  0.00  0.00    +0.285 C 
ATOM     42  H   UNL     1      -7.420 -10.156  10.227  0.00  0.00    +0.157 HD
ENDROOT
BRANCH  27  30
ATOM      6  O   UNL     1      -6.929  -9.535   8.020  0.00  0.00    -0.458 OA
ATOM     30  C   UNL     1      -5.811 -10.272   8.253  0.00  0.00    +0.189 A 
ATOM     33  C   UNL     1      -5.211 -10.628   7.069  0.00  0.00    +0.054 A 
ATOM     37  C   UNL     1      -6.012 -10.075   6.041  0.00  0.00    +0.042 A 
ATOM     38  C   UNL     1      -7.044  -9.420   6.671  0.00  0.00    +0.196 A 
ENDBRANCH  27  30
BRANCH  15   2
ATOM      2  O   UNL     1      -6.918 -12.166  20.366  0.00  0.00    -0.391 OA
ATOM     39  H   UNL     1      -7.178 -11.251  20.575  0.00  0.00    +0.210 HD
ENDBRANCH  15   2
BRANCH  12  20
ATOM     20  C   UNL     1      -7.898 -10.123  18.657  0.00  0.00    +0.165 C 
BRANCH  20   3
ATOM      3  O   UNL     1      -8.823 -10.386  19.688  0.00  0.00    -0.394 OA
ATOM     40  H   UNL     1      -8.762 -11.333  19.900  0.00  0.00    +0.209 HD
ENDBRANCH  20   3
ENDBRANCH  12  20
BRANCH  13  23
ATOM     23  C   UNL     1      -3.358 -10.743  14.757  0.00  0.00    +0.106 C 
BRANCH  23  24
ATOM      4  O   UNL     1      -1.182 -11.798  14.839  0.00  0.00    -0.276 OA
ATOM      8  N   UNL     1      -2.966 -12.922  13.862  0.00  0.00    -0.309 N 
ATOM     24  C   UNL     1      -2.363 -11.854  14.509  0.00  0.00    +0.214 C 
ATOM     41  H   UNL     1      -3.966 -12.886  13.681  0.00  0.00    +0.149 HD
BRANCH   8  26
ATOM     26  C   UNL     1      -2.254 -14.126  13.494  0.00  0.00    +0.100 C 
ATOM     28  C   UNL     1      -2.581 -14.508  12.052  0.00  0.00    +0.033 C 
BRANCH  26  29
ATOM     29  C   UNL     1      -2.526 -15.250  14.469  0.00  0.00    -0.027 A 
ATOM     31  C   UNL     1      -1.592 -16.273  14.634  0.00  0.00    +0.005 A 
ATOM     32  C   UNL     1      -3.712 -15.265  15.203  0.00  0.00    +0.005 A 
ATOM     34  C   UNL     1      -1.843 -17.309  15.533  0.00  0.00    +0.000 A 
ATOM     35  C   UNL     1      -3.963 -16.301  16.102  0.00  0.00    +0.000 A 
ATOM     36  C   UNL     1      -3.028 -17.323  16.268  0.00  0.00    +0.000 A 
ENDBRANCH  26  29
ENDBRANCH   8  26
ENDBRANCH  23  24
ENDBRANCH  13  23
TORSDOF 8
ENDMDL
MODEL 4
REMARK VINA RESULT:      -6.2     25.504     28.284
REMARK  Name = 7135170
REMARK  11 active torsions:
REMARK  status: ('A' for Active; 'I' for Inactive)
REMARK    1  A    between atoms: O_2  and  C_15
REMARK    2  A    between atoms: O_3  and  C_20
REMARK    3  A    between atoms: N_8  and  C_26
REMARK    4  A    between atoms: C_10  and  C_18
REMARK    5  A    between atoms: C_12  and  C_20
REMARK    6  A    between atoms: C_12  and  C_21
REMARK    7  A    between atoms: C_13  and  C_23
REMARK    8  A    between atoms: C_23  and  C_24
REMARK    9  A    between atoms: C_26  and  C_28
REMARK   10  A    between atoms: C_26  and  C_29
REMARK   11  A    between atoms: C_27  and  C_30
REMARK                            x       y       z     vdW  Elec       q    Type
REMARK                         _______ _______ _______ _____ _____    ______ ____
ROOT
ATOM      1  S   UNL     1      15.385   8.087   6.234  0.00  0.00    -0.057 S 
ATOM      5  O   UNL     1      12.897   6.538   2.661  0.00  0.00    -0.266 OA
ATOM      7  N   UNL     1      15.418   7.575   3.699  0.00  0.00    -0.229 NA
ATOM      9  N   UNL     1      13.354   7.146   4.869  0.00  0.00    -0.258 N 
ATOM     10  C   UNL     1      18.946   9.125   3.562  0.00  0.00    -0.019 C 
ATOM     11  C   UNL     1      19.286   8.678   5.051  0.00  0.00    +0.011 C 
ATOM     12  C   UNL     1      20.661   9.167   5.650  0.00  0.00    +0.021 C 
ATOM     13  C   UNL     1      17.769   8.187   3.022  0.00  0.00    +0.054 C 
ATOM     14  C   UNL     1      20.191   8.913   2.663  0.00  0.00    +0.010 C 
ATOM     15  C   UNL     1      21.788   8.924   4.607  0.00  0.00    +0.123 C 
ATOM     16  C   UNL     1      18.074   8.901   6.003  0.00  0.00    +0.049 C 
ATOM     17  C   UNL     1      21.472   9.506   3.233  0.00  0.00    +0.032 C 
ATOM     18  C   UNL     1      18.509  10.608   3.464  0.00  0.00    +0.012 C 
ATOM     19  C   UNL     1      16.666   8.062   4.041  0.00  0.00    +0.058 A 
ATOM     21  C   UNL     1      21.001   8.313   6.904  0.00  0.00    +0.016 C 
ATOM     22  C   UNL     1      16.829   8.371   5.376  0.00  0.00    +0.015 A 
ATOM     25  C   UNL     1      14.660   7.551   4.773  0.00  0.00    +0.165 A 
ATOM     27  C   UNL     1      12.532   6.662   3.827  0.00  0.00    +0.285 C 
ATOM     42  H   UNL     1      12.951   7.214   5.799  0.00  0.00    +0.157 HD
ENDROOT
BRANCH  27  30
ATOM      6  O   UNL     1      10.260   7.369   4.308  0.00  0.00    -0.458 OA
ATOM     30  C   UNL     1      11.148   6.343   4.222  0.00  0.00    +0.189 A 
ATOM     33  C   UNL     1      10.540   5.151   4.536  0.00  0.00    +0.054 A 
ATOM     37  C   UNL     1       9.192   5.463   4.836  0.00  0.00    +0.042 A 
ATOM     38  C   UNL     1       9.073   6.824   4.683  0.00  0.00    +0.196 A 
ENDBRANCH  27  30
BRANCH  15   2
ATOM      2  O   UNL     1      23.023   9.473   5.065  0.00  0.00    -0.391 OA
ATOM     39  H   UNL     1      23.527   8.755   5.487  0.00  0.00    +0.210 HD
ENDBRANCH  15   2
BRANCH  12  20
ATOM     20  C   UNL     1      20.664  10.634   6.132  0.00  0.00    +0.165 C 
BRANCH  20   3
ATOM      3  O   UNL     1      21.545  10.726   7.230  0.00  0.00    -0.394 OA
ATOM     40  H   UNL     1      21.030  10.542   8.033  0.00  0.00    +0.209 HD
ENDBRANCH  20   3
ENDBRANCH  12  20
BRANCH  13  23
ATOM     23  C   UNL     1      17.221   8.583   1.644  0.00  0.00    +0.106 C 
BRANCH  23  24
ATOM      4  O   UNL     1      18.409   7.424  -0.117  0.00  0.00    -0.276 OA
ATOM      8  N   UNL     1      16.367   6.598   0.624  0.00  0.00    -0.309 N 
ATOM     24  C   UNL     1      17.428   7.492   0.618  0.00  0.00    +0.214 C 
ATOM     41  H   UNL     1      15.628   6.719   1.313  0.00  0.00    +0.149 HD
BRANCH   8  26
ATOM     26  C   UNL     1      16.293   5.454  -0.256  0.00  0.00    +0.100 C 
ATOM     28  C   UNL     1      16.302   5.912  -1.713  0.00  0.00    +0.033 C 
BRANCH  26  29
ATOM     29  C   UNL     1      15.103   4.579   0.071  0.00  0.00    -0.027 A 
ATOM     31  C   UNL     1      14.199   4.225  -0.931  0.00  0.00    +0.005 A 
ATOM     32  C   UNL     1      14.908   4.126   1.376  0.00  0.00    +0.005 A 
ATOM     34  C   UNL     1      13.102   3.419  -0.629  0.00  0.00    +0.000 A 
ATOM     35  C   UNL     1      13.811   3.319   1.678  0.00  0.00    +0.000 A 
ATOM     36  C   UNL     1      12.908   2.966   0.675  0.00  0.00    +0.000 A 
ENDBRANCH  26  29
ENDBRANCH   8  26
ENDBRANCH  23  24
ENDBRANCH  13  23
TORSDOF 8
ENDMDL
MODEL 5
REMARK VINA RESULT:      -6.2     27.812     29.995
REMARK  Name = 7135170
REMARK  11 active torsions:
REMARK  status: ('A' for Active; 'I' for Inactive)
REMARK    1  A    between atoms: O_2  and  C_15
REMARK    2  A    between atoms: O_3  and  C_20
REMARK    3  A    between atoms: N_8  and  C_26
REMARK    4  A    between atoms: C_10  and  C_18
REMARK    5  A    between atoms: C_12  and  C_20
REMARK    6  A    between atoms: C_12  and  C_21
REMARK    7  A    between atoms: C_13  and  C_23
REMARK    8  A    between atoms: C_23  and  C_24
REMARK    9  A    between atoms: C_26  and  C_28
REMARK   10  A    between atoms: C_26  and  C_29
REMARK   11  A    between atoms: C_27  and  C_30
REMARK                            x       y       z     vdW  Elec       q    Type
REMARK                         _______ _______ _______ _____ _____    ______ ____
ROOT
ATOM      1  S   UNL     1      -5.603 -10.962  12.571  0.00  0.00    -0.057 S 
ATOM      5  O   UNL     1      -8.735  -8.422  10.312  0.00  0.00    -0.266 OA
ATOM      7  N   UNL     1      -7.760  -9.555  12.817  0.00  0.00    -0.229 NA
ATOM      9  N   UNL     1      -6.840  -9.757  10.598  0.00  0.00    -0.258 N 
ATOM     10  C   UNL     1      -7.899 -10.651  16.511  0.00  0.00    -0.019 C 
ATOM     11  C   UNL     1      -6.314 -10.754  16.622  0.00  0.00    +0.011 C 
ATOM     12  C   UNL     1      -5.725 -11.314  17.975  0.00  0.00    +0.021 C 
ATOM     13  C   UNL     1      -8.246  -9.681  15.289  0.00  0.00    +0.054 C 
ATOM     14  C   UNL     1      -8.467 -10.022  17.810  0.00  0.00    +0.010 C 
ATOM     15  C   UNL     1      -6.433 -10.613  19.169  0.00  0.00    +0.123 C 
ATOM     16  C   UNL     1      -5.697 -11.410  15.352  0.00  0.00    +0.049 C 
ATOM     17  C   UNL     1      -7.955 -10.674  19.086  0.00  0.00    +0.032 C 
ATOM     18  C   UNL     1      -8.578 -12.025  16.287  0.00  0.00    +0.012 C 
ATOM     19  C   UNL     1      -7.427 -10.029  14.072  0.00  0.00    +0.058 A 
ATOM     21  C   UNL     1      -4.215 -10.954  18.058  0.00  0.00    +0.016 C 
ATOM     22  C   UNL     1      -6.278 -10.791  14.125  0.00  0.00    +0.015 A 
ATOM     25  C   UNL     1      -6.874  -9.989  11.948  0.00  0.00    +0.165 A 
ATOM     27  C   UNL     1      -7.756  -8.994   9.839  0.00  0.00    +0.285 C 
ATOM     42  H   UNL     1      -6.065 -10.194  10.106  0.00  0.00    +0.157 HD
ENDROOT
BRANCH  27  30
ATOM      6  O   UNL     1      -8.251  -8.133   7.624  0.00  0.00    -0.458 OA
ATOM     30  C   UNL     1      -7.489  -8.958   8.390  0.00  0.00    +0.189 A 
ATOM     33  C   UNL     1      -6.571  -9.626   7.615  0.00  0.00    +0.054 A 
ATOM     37  C   UNL     1      -6.783  -9.186   6.287  0.00  0.00    +0.042 A 
ATOM     38  C   UNL     1      -7.814  -8.279   6.345  0.00  0.00    +0.196 A 
ENDBRANCH  27  30
BRANCH  15   2
ATOM      2  O   UNL     1      -6.017 -11.187  20.407  0.00  0.00    -0.391 OA
ATOM     39  H   UNL     1      -5.217 -11.713  20.234  0.00  0.00    +0.210 HD
ENDBRANCH  15   2
BRANCH  12  20
ATOM     20  C   UNL     1      -5.796 -12.849  18.117  0.00  0.00    +0.165 C 
BRANCH  20   3
ATOM      3  O   UNL     1      -4.544 -13.297  18.589  0.00  0.00    -0.394 OA
ATOM     40  H   UNL     1      -4.541 -14.267  18.530  0.00  0.00    +0.209 HD
ENDBRANCH  20   3
ENDBRANCH  12  20
BRANCH  13  23
ATOM     23  C   UNL     1      -9.740  -9.587  14.954  0.00  0.00    +0.106 C 
BRANCH  23  24
ATOM      4  O   UNL     1      -9.710  -7.359  15.896  0.00  0.00    -0.276 OA
ATOM      8  N   UNL     1     -11.554  -8.059  14.667  0.00  0.00    -0.309 N 
ATOM     24  C   UNL     1     -10.300  -8.212  15.239  0.00  0.00    +0.214 C 
ATOM     41  H   UNL     1     -11.928  -8.813  14.097  0.00  0.00    +0.149 HD
BRANCH   8  26
ATOM     26  C   UNL     1     -12.330  -6.844  14.779  0.00  0.00    +0.100 C 
ATOM     28  C   UNL     1     -13.739  -7.166  15.272  0.00  0.00    +0.033 C 
BRANCH  26  29
ATOM     29  C   UNL     1     -12.331  -6.066  13.481  0.00  0.00    -0.027 A 
ATOM     31  C   UNL     1     -12.332  -6.743  12.262  0.00  0.00    +0.005 A 
ATOM     32  C   UNL     1     -12.331  -4.672  13.504  0.00  0.00    +0.005 A 
ATOM     34  C   UNL     1     -12.334  -6.026  11.066  0.00  0.00    +0.000 A 
ATOM     35  C   UNL     1     -12.333  -3.955  12.308  0.00  0.00    +0.000 A 
ATOM     36  C   UNL     1     -12.335  -4.631  11.089  0.00  0.00    +0.000 A 
ENDBRANCH  26  29
ENDBRANCH   8  26
ENDBRANCH  23  24
ENDBRANCH  13  23
TORSDOF 8
ENDMDL
MODEL 6
REMARK VINA RESULT:      -6.2     27.446     29.985
REMARK  Name = 7135170
REMARK  11 active torsions:
REMARK  status: ('A' for Active; 'I' for Inactive)
REMARK    1  A    between atoms: O_2  and  C_15
REMARK    2  A    between atoms: O_3  and  C_20
REMARK    3  A    between atoms: N_8  and  C_26
REMARK    4  A    between atoms: C_10  and  C_18
REMARK    5  A    between atoms: C_12  and  C_20
REMARK    6  A    between atoms: C_12  and  C_21
REMARK    7  A    between atoms: C_13  and  C_23
REMARK    8  A    between atoms: C_23  and  C_24
REMARK    9  A    between atoms: C_26  and  C_28
REMARK   10  A    between atoms: C_26  and  C_29
REMARK   11  A    between atoms: C_27  and  C_30
REMARK                            x       y       z     vdW  Elec       q    Type
REMARK                         _______ _______ _______ _____ _____    ______ ____
ROOT
ATOM      1  S   UNL     1      -6.784 -10.372  11.200  0.00  0.00    -0.057 S 
ATOM      5  O   UNL     1     -11.018  -9.094  12.541  0.00  0.00    -0.266 OA
ATOM      7  N   UNL     1      -8.301  -9.892  13.240  0.00  0.00    -0.229 NA
ATOM      9  N   UNL     1      -9.295  -9.632  11.059  0.00  0.00    -0.258 N 
ATOM     10  C   UNL     1      -5.432 -11.127  15.500  0.00  0.00    -0.019 C 
ATOM     11  C   UNL     1      -4.312 -10.633  14.483  0.00  0.00    +0.011 C 
ATOM     12  C   UNL     1      -2.816 -10.991  14.835  0.00  0.00    +0.021 C 
ATOM     13  C   UNL     1      -6.769 -10.303  15.201  0.00  0.00    +0.054 C 
ATOM     14  C   UNL     1      -4.983 -10.817  16.952  0.00  0.00    +0.010 C 
ATOM     15  C   UNL     1      -2.550 -10.663  16.331  0.00  0.00    +0.123 C 
ATOM     16  C   UNL     1      -4.702 -10.950  13.009  0.00  0.00    +0.049 C 
ATOM     17  C   UNL     1      -3.572 -11.288  17.275  0.00  0.00    +0.032 C 
ATOM     18  C   UNL     1      -5.724 -12.643  15.384  0.00  0.00    +0.012 C 
ATOM     19  C   UNL     1      -7.059 -10.263  13.723  0.00  0.00    +0.058 A 
ATOM     21  C   UNL     1      -1.868 -10.095  13.990  0.00  0.00    +0.016 C 
ATOM     22  C   UNL     1      -6.113 -10.539  12.756  0.00  0.00    +0.015 A 
ATOM     25  C   UNL     1      -8.274  -9.921  11.925  0.00  0.00    +0.165 A 
ATOM     27  C   UNL     1     -10.610  -9.235  11.391  0.00  0.00    +0.285 C 
ATOM     42  H   UNL     1      -9.062  -9.723  10.074  0.00  0.00    +0.157 HD
ENDROOT
BRANCH  27  30
ATOM      6  O   UNL     1     -11.031  -9.317   9.002  0.00  0.00    -0.458 OA
ATOM     30  C   UNL     1     -11.511  -9.035  10.242  0.00  0.00    +0.189 A 
ATOM     33  C   UNL     1     -12.812  -8.597  10.168  0.00  0.00    +0.054 A 
ATOM     37  C   UNL     1     -13.154  -8.610   8.794  0.00  0.00    +0.042 A 
ATOM     38  C   UNL     1     -12.037  -9.056   8.127  0.00  0.00    +0.196 A 
ENDBRANCH  27  30
BRANCH  15   2
ATOM      2  O   UNL     1      -1.245 -11.095  16.716  0.00  0.00    -0.391 OA
ATOM     39  H   UNL     1      -0.716 -11.195  15.905  0.00  0.00    +0.210 HD
ENDBRANCH  15   2
BRANCH  12  20
ATOM     20  C   UNL     1      -2.413 -12.445  14.510  0.00  0.00    +0.165 C 
BRANCH  20   3
ATOM      3  O   UNL     1      -1.093 -12.427  14.012  0.00  0.00    -0.394 OA
ATOM     40  H   UNL     1      -0.834 -13.348  13.842  0.00  0.00    +0.209 HD
ENDBRANCH  20   3
ENDBRANCH  12  20
BRANCH  13  23
ATOM     23  C   UNL     1      -7.994 -10.763  16.002  0.00  0.00    +0.106 C 
BRANCH  23  24
ATOM      4  O   UNL     1      -7.877  -8.808  17.423  0.00  0.00    -0.276 OA
ATOM      8  N   UNL     1      -9.948  -9.721  16.897  0.00  0.00    -0.309 N 
ATOM     24  C   UNL     1      -8.564  -9.650  16.853  0.00  0.00    +0.214 C 
ATOM     41  H   UNL     1     -10.422 -10.430  16.343  0.00  0.00    +0.149 HD
BRANCH   8  26
ATOM     26  C   UNL     1     -10.763  -8.784  17.638  0.00  0.00    +0.100 C 
ATOM     28  C   UNL     1     -11.718  -9.537  18.562  0.00  0.00    +0.033 C 
BRANCH  26  29
ATOM     29  C   UNL     1     -11.483  -7.825  16.716  0.00  0.00    -0.027 A 
ATOM     31  C   UNL     1     -10.830  -6.686  16.245  0.00  0.00    +0.005 A 
ATOM     32  C   UNL     1     -12.801  -8.079  16.335  0.00  0.00    +0.005 A 
ATOM     34  C   UNL     1     -11.493  -5.802  15.395  0.00  0.00    +0.000 A 
ATOM     35  C   UNL     1     -13.464  -7.195  15.485  0.00  0.00    +0.000 A 
ATOM     36  C   UNL     1     -12.810  -6.057  15.014  0.00  0.00    +0.000 A 
ENDBRANCH  26  29
ENDBRANCH   8  26
ENDBRANCH  23  24
ENDBRANCH  13  23
TORSDOF 8
ENDMDL
MODEL 7
REMARK VINA RESULT:      -6.1     23.819     27.655
REMARK  Name = 7135170
REMARK  11 active torsions:
REMARK  status: ('A' for Active; 'I' for Inactive)
REMARK    1  A    between atoms: O_2  and  C_15
REMARK    2  A    between atoms: O_3  and  C_20
REMARK    3  A    between atoms: N_8  and  C_26
REMARK    4  A    between atoms: C_10  and  C_18
REMARK    5  A    between atoms: C_12  and  C_20
REMARK    6  A    between atoms: C_12  and  C_21
REMARK    7  A    between atoms: C_13  and  C_23
REMARK    8  A    between atoms: C_23  and  C_24
REMARK    9  A    between atoms: C_26  and  C_28
REMARK   10  A    between atoms: C_26  and  C_29
REMARK   11  A    between atoms: C_27  and  C_30
REMARK                            x       y       z     vdW  Elec       q    Type
REMARK                         _______ _______ _______ _____ _____    ______ ____
ROOT
ATOM      1  S   UNL     1      20.497  -6.036   0.704  0.00  0.00    -0.057 S 
ATOM      5  O   UNL     1      17.768  -7.832  -2.565  0.00  0.00    -0.266 OA
ATOM      7  N   UNL     1      19.426  -8.212  -0.196  0.00  0.00    -0.229 NA
ATOM      9  N   UNL     1      18.938  -6.181  -1.399  0.00  0.00    -0.258 N 
ATOM     10  C   UNL     1      21.475 -10.153   2.431  0.00  0.00    -0.019 C 
ATOM     11  C   UNL     1      21.448  -8.941   3.463  0.00  0.00    +0.011 C 
ATOM     12  C   UNL     1      22.287  -9.110   4.789  0.00  0.00    +0.021 C 
ATOM     13  C   UNL     1      20.253  -9.966   1.418  0.00  0.00    +0.054 C 
ATOM     14  C   UNL     1      21.274 -11.487   3.197  0.00  0.00    +0.010 C 
ATOM     15  C   UNL     1      22.003 -10.512   5.399  0.00  0.00    +0.123 C 
ATOM     16  C   UNL     1      21.677  -7.578   2.746  0.00  0.00    +0.049 C 
ATOM     17  C   UNL     1      22.189 -11.651   4.402  0.00  0.00    +0.032 C 
ATOM     18  C   UNL     1      22.799 -10.234   1.632  0.00  0.00    +0.012 C 
ATOM     19  C   UNL     1      20.182  -8.548   0.912  0.00  0.00    +0.058 A 
ATOM     21  C   UNL     1      21.815  -8.052   5.825  0.00  0.00    +0.016 C 
ATOM     22  C   UNL     1      20.814  -7.489   1.533  0.00  0.00    +0.015 A 
ATOM     25  C   UNL     1      19.524  -6.917  -0.403  0.00  0.00    +0.165 A 
ATOM     27  C   UNL     1      18.094  -6.656  -2.428  0.00  0.00    +0.285 C 
ATOM     42  H   UNL     1      19.150  -5.187  -1.380  0.00  0.00    +0.157 HD
ENDROOT
BRANCH  27  30
ATOM      6  O   UNL     1      18.078  -5.737  -4.675  0.00  0.00    -0.458 OA
ATOM     30  C   UNL     1      17.647  -5.633  -3.391  0.00  0.00    +0.189 A 
ATOM     33  C   UNL     1      16.835  -4.534  -3.241  0.00  0.00    +0.054 A 
ATOM     37  C   UNL     1      16.762  -3.922  -4.516  0.00  0.00    +0.042 A 
ATOM     38  C   UNL     1      17.535  -4.692  -5.353  0.00  0.00    +0.196 A 
ENDBRANCH  27  30
BRANCH  15   2
ATOM      2  O   UNL     1      22.842 -10.748   6.528  0.00  0.00    -0.391 OA
ATOM     39  H   UNL     1      23.395 -11.524   6.328  0.00  0.00    +0.210 HD
ENDBRANCH  15   2
BRANCH  12  20
ATOM     20  C   UNL     1      23.804  -8.880   4.620  0.00  0.00    +0.165 C 
BRANCH  20   3
ATOM      3  O   UNL     1      24.302  -8.374   5.839  0.00  0.00    -0.394 OA
ATOM     40  H   UNL     1      24.482  -7.428   5.709  0.00  0.00    +0.209 HD
ENDBRANCH  20   3
ENDBRANCH  12  20
BRANCH  13  23
ATOM     23  C   UNL     1      20.221 -10.977   0.264  0.00  0.00    +0.106 C 
BRANCH  23  24
ATOM      4  O   UNL     1      19.491 -13.284   0.269  0.00  0.00    -0.276 OA
ATOM      8  N   UNL     1      18.079 -11.632   1.094  0.00  0.00    -0.309 N 
ATOM     24  C   UNL     1      19.254 -12.108   0.529  0.00  0.00    +0.214 C 
ATOM     41  H   UNL     1      18.007 -10.643   1.316  0.00  0.00    +0.149 HD
BRANCH   8  26
ATOM     26  C   UNL     1      16.972 -12.490   1.451  0.00  0.00    +0.100 C 
ATOM     28  C   UNL     1      15.691 -11.999   0.781  0.00  0.00    +0.033 C 
BRANCH  26  29
ATOM     29  C   UNL     1      16.831 -12.615   2.953  0.00  0.00    -0.027 A 
ATOM     31  C   UNL     1      17.862 -13.175   3.707  0.00  0.00    +0.005 A 
ATOM     32  C   UNL     1      15.669 -12.170   3.584  0.00  0.00    +0.005 A 
ATOM     34  C   UNL     1      17.732 -13.290   5.091  0.00  0.00    +0.000 A 
ATOM     35  C   UNL     1      15.539 -12.285   4.968  0.00  0.00    +0.000 A 
ATOM     36  C   UNL     1      16.571 -12.845   5.721  0.00  0.00    +0.000 A 
ENDBRANCH  26  29
ENDBRANCH   8  26
ENDBRANCH  23  24
ENDBRANCH  13  23
TORSDOF 8
ENDMDL
MODEL 8
REMARK VINA RESULT:      -6.0     25.754     27.986
REMARK  Name = 7135170
REMARK  11 active torsions:
REMARK  status: ('A' for Active; 'I' for Inactive)
REMARK    1  A    between atoms: O_2  and  C_15
REMARK    2  A    between atoms: O_3  and  C_20
REMARK    3  A    between atoms: N_8  and  C_26
REMARK    4  A    between atoms: C_10  and  C_18
REMARK    5  A    between atoms: C_12  and  C_20
REMARK    6  A    between atoms: C_12  and  C_21
REMARK    7  A    between atoms: C_13  and  C_23
REMARK    8  A    between atoms: C_23  and  C_24
REMARK    9  A    between atoms: C_26  and  C_28
REMARK   10  A    between atoms: C_26  and  C_29
REMARK   11  A    between atoms: C_27  and  C_30
REMARK                            x       y       z     vdW  Elec       q    Type
REMARK                         _______ _______ _______ _____ _____    ______ ____
ROOT
ATOM      1  S   UNL     1      -8.762 -11.109  12.996  0.00  0.00    -0.057 S 
ATOM      5  O   UNL     1      -4.823  -9.972  10.862  0.00  0.00    -0.266 OA
ATOM      7  N   UNL     1      -6.231 -10.681  13.316  0.00  0.00    -0.229 NA
ATOM      9  N   UNL     1      -7.100 -10.444  11.080  0.00  0.00    -0.258 N 
ATOM     10  C   UNL     1      -6.780 -11.053  17.115  0.00  0.00    -0.019 C 
ATOM     11  C   UNL     1      -7.978 -12.082  16.920  0.00  0.00    +0.011 C 
ATOM     12  C   UNL     1      -8.746 -12.542  18.220  0.00  0.00    +0.021 C 
ATOM     13  C   UNL     1      -5.892 -11.072  15.785  0.00  0.00    +0.054 C 
ATOM     14  C   UNL     1      -5.892 -11.513  18.300  0.00  0.00    +0.010 C 
ATOM     15  C   UNL     1      -7.712 -12.922  19.317  0.00  0.00    +0.123 C 
ATOM     16  C   UNL     1      -8.919 -11.647  15.758  0.00  0.00    +0.049 C 
ATOM     17  C   UNL     1      -6.673 -11.834  19.567  0.00  0.00    +0.032 C 
ATOM     18  C   UNL     1      -7.265  -9.608  17.389  0.00  0.00    +0.012 C 
ATOM     19  C   UNL     1      -6.759 -10.994  14.555  0.00  0.00    +0.058 A 
ATOM     21  C   UNL     1      -9.568 -13.822  17.897  0.00  0.00    +0.016 C 
ATOM     22  C   UNL     1      -8.111 -11.273  14.561  0.00  0.00    +0.015 A 
ATOM     25  C   UNL     1      -7.195 -10.704  12.422  0.00  0.00    +0.165 A 
ATOM     27  C   UNL     1      -5.937 -10.093  10.358  0.00  0.00    +0.285 C 
ATOM     42  H   UNL     1      -7.974 -10.512  10.567  0.00  0.00    +0.157 HD
ENDROOT
BRANCH  27  30
ATOM      6  O   UNL     1      -5.318 -10.433   8.036  0.00  0.00    -0.458 OA
ATOM     30  C   UNL     1      -6.149  -9.827   8.924  0.00  0.00    +0.189 A 
ATOM     33  C   UNL     1      -7.071  -9.047   8.268  0.00  0.00    +0.054 A 
ATOM     37  C   UNL     1      -6.789  -9.181   6.887  0.00  0.00    +0.042 A 
ATOM     38  C   UNL     1      -5.714 -10.034   6.799  0.00  0.00    +0.196 A 
ENDBRANCH  27  30
BRANCH  15   2
ATOM      2  O   UNL     1      -8.371 -13.219  20.547  0.00  0.00    -0.391 OA
ATOM     39  H   UNL     1      -8.164 -12.502  21.173  0.00  0.00    +0.210 HD
ENDBRANCH  15   2
BRANCH  12  20
ATOM     20  C   UNL     1      -9.767 -11.516  18.757  0.00  0.00    +0.165 C 
BRANCH  20   3
ATOM      3  O   UNL     1     -10.820 -12.232  19.363  0.00  0.00    -0.394 OA
ATOM     40  H   UNL     1     -10.737 -13.160  19.088  0.00  0.00    +0.209 HD
ENDBRANCH  20   3
ENDBRANCH  12  20
BRANCH  13  23
ATOM     23  C   UNL     1      -4.772 -10.024  15.751  0.00  0.00    +0.106 C 
BRANCH  23  24
ATOM      4  O   UNL     1      -2.681 -11.169  16.166  0.00  0.00    -0.276 OA
ATOM      8  N   UNL     1      -3.207 -10.486  14.007  0.00  0.00    -0.309 N 
ATOM     24  C   UNL     1      -3.442 -10.629  15.367  0.00  0.00    +0.214 C 
ATOM     41  H   UNL     1      -3.929 -10.069  13.426  0.00  0.00    +0.149 HD
BRANCH   8  26
ATOM     26  C   UNL     1      -2.009 -10.970  13.358  0.00  0.00    +0.100 C 
ATOM     28  C   UNL     1      -1.647 -10.064  12.183  0.00  0.00    +0.033 C 
BRANCH  26  29
ATOM     29  C   UNL     1      -2.146 -12.421  12.952  0.00  0.00    -0.027 A 
ATOM     31  C   UNL     1      -3.007 -12.777  11.914  0.00  0.00    +0.005 A 
ATOM     32  C   UNL     1      -1.412 -13.404  13.617  0.00  0.00    +0.005 A 
ATOM     34  C   UNL     1      -3.134 -14.115  11.540  0.00  0.00    +0.000 A 
ATOM     35  C   UNL     1      -1.539 -14.741  13.243  0.00  0.00    +0.000 A 
ATOM     36  C   UNL     1      -2.399 -15.097  12.205  0.00  0.00    +0.000 A 
ENDBRANCH  26  29
ENDBRANCH   8  26
ENDBRANCH  23  24
ENDBRANCH  13  23
TORSDOF 8
ENDMDL
MODEL 9
REMARK VINA RESULT:      -5.9     11.611     13.891
REMARK  Name = 7135170
REMARK  11 active torsions:
REMARK  status: ('A' for Active; 'I' for Inactive)
REMARK    1  A    between atoms: O_2  and  C_15
REMARK    2  A    between atoms: O_3  and  C_20
REMARK    3  A    between atoms: N_8  and  C_26
REMARK    4  A    between atoms: C_10  and  C_18
REMARK    5  A    between atoms: C_12  and  C_20
REMARK    6  A    between atoms: C_12  and  C_21
REMARK    7  A    between atoms: C_13  and  C_23
REMARK    8  A    between atoms: C_23  and  C_24
REMARK    9  A    between atoms: C_26  and  C_28
REMARK   10  A    between atoms: C_26  and  C_29
REMARK   11  A    between atoms: C_27  and  C_30
REMARK                            x       y       z     vdW  Elec       q    Type
REMARK                         _______ _______ _______ _____ _____    ______ ____
ROOT
ATOM      1  S   UNL     1       5.814  -7.104  37.769  0.00  0.00    -0.057 S 
ATOM      5  O   UNL     1       9.661  -5.762  35.584  0.00  0.00    -0.266 OA
ATOM      7  N   UNL     1       7.478  -7.676  35.871  0.00  0.00    -0.229 NA
ATOM      9  N   UNL     1       7.925  -5.678  37.145  0.00  0.00    -0.258 N 
ATOM     10  C   UNL     1       5.574 -10.993  35.378  0.00  0.00    -0.019 C 
ATOM     11  C   UNL     1       4.188 -10.357  35.836  0.00  0.00    +0.011 C 
ATOM     12  C   UNL     1       2.957 -11.335  35.960  0.00  0.00    +0.021 C 
ATOM     13  C   UNL     1       6.530  -9.803  34.902  0.00  0.00    +0.054 C 
ATOM     14  C   UNL     1       5.334 -11.938  34.173  0.00  0.00    +0.010 C 
ATOM     15  C   UNL     1       2.892 -12.238  34.696  0.00  0.00    +0.123 C 
ATOM     16  C   UNL     1       4.371  -9.420  37.066  0.00  0.00    +0.049 C 
ATOM     17  C   UNL     1       4.210 -12.941  34.389  0.00  0.00    +0.032 C 
ATOM     18  C   UNL     1       6.271 -11.793  36.506  0.00  0.00    +0.012 C 
ATOM     19  C   UNL     1       6.513  -8.666  35.892  0.00  0.00    +0.058 A 
ATOM     21  C   UNL     1       1.647 -10.500  35.999  0.00  0.00    +0.016 C 
ATOM     22  C   UNL     1       5.526  -8.504  36.843  0.00  0.00    +0.015 A 
ATOM     25  C   UNL     1       7.214  -6.804  36.821  0.00  0.00    +0.165 A 
ATOM     27  C   UNL     1       9.103  -5.204  36.526  0.00  0.00    +0.285 C 
ATOM     42  H   UNL     1       7.548  -5.143  37.922  0.00  0.00    +0.157 HD
ENDROOT
BRANCH  27  30
ATOM      6  O   UNL     1       8.826  -3.130  37.756  0.00  0.00    -0.458 OA
ATOM     30  C   UNL     1       9.674  -3.983  37.123  0.00  0.00    +0.189 A 
ATOM     33  C   UNL     1      10.963  -3.508  37.172  0.00  0.00    +0.054 A 
ATOM     37  C   UNL     1      10.905  -2.284  37.880  0.00  0.00    +0.042 A 
ATOM     38  C   UNL     1       9.584  -2.099  38.214  0.00  0.00    +0.196 A 
ENDBRANCH  27  30
BRANCH  15   2
ATOM      2  O   UNL     1       1.867 -13.222  34.833  0.00  0.00    -0.391 OA
ATOM     39  H   UNL     1       2.291 -14.052  35.115  0.00  0.00    +0.210 HD
ENDBRANCH  15   2
BRANCH  12  20
ATOM     20  C   UNL     1       2.945 -12.189  37.247  0.00  0.00    +0.165 C 
BRANCH  20   3
ATOM      3  O   UNL     1       1.602 -12.498  37.547  0.00  0.00    -0.394 OA
ATOM     40  H   UNL     1       1.597 -12.988  38.386  0.00  0.00    +0.209 HD
ENDBRANCH  20   3
ENDBRANCH  12  20
BRANCH  13  23
ATOM     23  C   UNL     1       7.963 -10.233  34.563  0.00  0.00    +0.106 C 
BRANCH  23  24
ATOM      4  O   UNL     1       9.255  -9.132  32.839  0.00  0.00    -0.276 OA
ATOM      8  N   UNL     1       7.502 -10.535  32.239  0.00  0.00    -0.309 N 
ATOM     24  C   UNL     1       8.336  -9.889  33.139  0.00  0.00    +0.214 C 
ATOM     41  H   UNL     1       6.803 -11.182  32.595  0.00  0.00    +0.149 HD
BRANCH   8  26
ATOM     26  C   UNL     1       7.624 -10.389  30.805  0.00  0.00    +0.100 C 
ATOM     28  C   UNL     1       6.824  -9.178  30.332  0.00  0.00    +0.033 C 
BRANCH  26  29
ATOM     29  C   UNL     1       7.234 -11.661  30.085  0.00  0.00    -0.027 A 
ATOM     31  C   UNL     1       6.103 -12.372  30.485  0.00  0.00    +0.005 A 
ATOM     32  C   UNL     1       8.006 -12.124  29.019  0.00  0.00    +0.005 A 
ATOM     34  C   UNL     1       5.744 -13.545  29.821  0.00  0.00    +0.000 A 
ATOM     35  C   UNL     1       7.647 -13.297  28.355  0.00  0.00    +0.000 A 
ATOM     36  C   UNL     1       6.516 -14.007  28.755  0.00  0.00    +0.000 A 
ENDBRANCH  26  29
ENDBRANCH   8  26
ENDBRANCH  23  24
ENDBRANCH  13  23
TORSDOF 8
ENDMDL
MODEL 10
REMARK VINA RESULT:      -5.7     12.933     15.657
REMARK  Name = 7135170
REMARK  11 active torsions:
REMARK  status: ('A' for Active; 'I' for Inactive)
REMARK    1  A    between atoms: O_2  and  C_15
REMARK    2  A    between atoms: O_3  and  C_20
REMARK    3  A    between atoms: N_8  and  C_26
REMARK    4  A    between atoms: C_10  and  C_18
REMARK    5  A    between atoms: C_12  and  C_20
REMARK    6  A    between atoms: C_12  and  C_21
REMARK    7  A    between atoms: C_13  and  C_23
REMARK    8  A    between atoms: C_23  and  C_24
REMARK    9  A    between atoms: C_26  and  C_28
REMARK   10  A    between atoms: C_26  and  C_29
REMARK   11  A    between atoms: C_27  and  C_30
REMARK                            x       y       z     vdW  Elec       q    Type
REMARK                         _______ _______ _______ _____ _____    ______ ____
ROOT
ATOM      1  S   UNL     1      18.025  11.363  22.387  0.00  0.00    -0.057 S 
ATOM      5  O   UNL     1      21.598   8.543  23.193  0.00  0.00    -0.266 OA
ATOM      7  N   UNL     1      18.988   8.998  21.972  0.00  0.00    -0.229 NA
ATOM      9  N   UNL     1      20.332  10.504  23.291  0.00  0.00    -0.258 N 
ATOM     10  C   UNL     1      15.643   8.072  20.292  0.00  0.00    -0.019 C 
ATOM     11  C   UNL     1      15.400   9.559  19.777  0.00  0.00    +0.011 C 
ATOM     12  C   UNL     1      14.025   9.854  19.062  0.00  0.00    +0.021 C 
ATOM     13  C   UNL     1      17.208   7.895  20.565  0.00  0.00    +0.054 C 
ATOM     14  C   UNL     1      15.225   7.069  19.186  0.00  0.00    +0.010 C 
ATOM     15  C   UNL     1      13.738   8.733  18.023  0.00  0.00    +0.123 C 
ATOM     16  C   UNL     1      15.777  10.606  20.866  0.00  0.00    +0.049 C 
ATOM     17  C   UNL     1      13.840   7.328  18.609  0.00  0.00    +0.032 C 
ATOM     18  C   UNL     1      14.854   7.745  21.583  0.00  0.00    +0.012 C 
ATOM     19  C   UNL     1      17.756   9.061  21.347  0.00  0.00    +0.058 A 
ATOM     21  C   UNL     1      14.137  11.192  18.279  0.00  0.00    +0.016 C 
ATOM     22  C   UNL     1      17.106  10.274  21.454  0.00  0.00    +0.015 A 
ATOM     25  C   UNL     1      19.229  10.151  22.558  0.00  0.00    +0.165 A 
ATOM     27  C   UNL     1      21.459   9.701  23.578  0.00  0.00    +0.285 C 
ATOM     42  H   UNL     1      20.315  11.449  23.663  0.00  0.00    +0.157 HD
ENDROOT
BRANCH  27  30
ATOM      6  O   UNL     1      22.046  11.075  25.492  0.00  0.00    -0.458 OA
ATOM     30  C   UNL     1      22.477  10.339  24.434  0.00  0.00    +0.189 A 
ATOM     33  C   UNL     1      23.850  10.336  24.373  0.00  0.00    +0.054 A 
ATOM     37  C   UNL     1      24.293  11.122  25.464  0.00  0.00    +0.042 A 
ATOM     38  C   UNL     1      23.158  11.548  26.113  0.00  0.00    +0.196 A 
ENDBRANCH  27  30
BRANCH  15   2
ATOM      2  O   UNL     1      12.442   8.898  17.450  0.00  0.00    -0.391 OA
ATOM     39  H   UNL     1      11.821   9.090  18.175  0.00  0.00    +0.210 HD
ENDBRANCH  15   2
BRANCH  12  20
ATOM     20  C   UNL     1      12.829  10.033  20.022  0.00  0.00    +0.165 C 
BRANCH  20   3
ATOM      3  O   UNL     1      12.531  11.409  20.088  0.00  0.00    -0.394 OA
ATOM     40  H   UNL     1      13.243  11.838  20.592  0.00  0.00    +0.209 HD
ENDBRANCH  20   3
ENDBRANCH  12  20
BRANCH  13  23
ATOM     23  C   UNL     1      17.595   6.556  21.207  0.00  0.00    +0.106 C 
BRANCH  23  24
ATOM      4  O   UNL     1      18.418   5.219  19.366  0.00  0.00    -0.276 OA
ATOM      8  N   UNL     1      19.896   5.943  21.008  0.00  0.00    -0.309 N 
ATOM     24  C   UNL     1      18.651   5.828  20.406  0.00  0.00    +0.214 C 
ATOM     41  H   UNL     1      19.986   6.517  21.843  0.00  0.00    +0.149 HD
BRANCH   8  26
ATOM     26  C   UNL     1      21.094   5.344  20.464  0.00  0.00    +0.100 C 
ATOM     28  C   UNL     1      21.418   4.051  21.208  0.00  0.00    +0.033 C 
BRANCH  26  29
ATOM     29  C   UNL     1      22.250   6.320  20.464  0.00  0.00    -0.027 A 
ATOM     31  C   UNL     1      23.524   5.893  20.839  0.00  0.00    +0.005 A 
ATOM     32  C   UNL     1      22.043   7.647  20.089  0.00  0.00    +0.005 A 
ATOM     34  C   UNL     1      24.590   6.793  20.839  0.00  0.00    +0.000 A 
ATOM     35  C   UNL     1      23.108   8.547  20.089  0.00  0.00    +0.000 A 
ATOM     36  C   UNL     1      24.382   8.120  20.463  0.00  0.00    +0.000 A 
ENDBRANCH  26  29
ENDBRANCH   8  26
ENDBRANCH  23  24
ENDBRANCH  13  23
TORSDOF 8
ENDMDL
