REMARK  Name = 75536999
REMARK  6 active torsions:
REMARK  status: ('A' for Active; 'I' for Inactive)
REMARK    1  A    between atoms: S_1  and  N_7
REMARK    2  A    between atoms: S_1  and  C_17
REMARK    3  A    between atoms: O_5  and  C_22
REMARK    4  A    between atoms: O_5  and  C_23
REMARK    5  A    between atoms: N_8  and  C_15
REMARK    6  A    between atoms: C_15  and  C_16
REMARK                            x       y       z     vdW  Elec       q    Type
REMARK                         _______ _______ _______ _____ _____    ______ ____
ROOT
ATOM      2  O   UNL     1       0.115  -2.798  -1.298  0.00  0.00    -0.252 OA
ATOM      6  N   UNL     1      -1.557  -1.552  -0.215  0.00  0.00    -0.278 N 
ATOM      7  N   UNL     1      -3.654   0.275   0.072  0.00  0.00    -0.178 NA
ATOM      8  N   UNL     1       0.462  -1.700   0.760  0.00  0.00    -0.279 N 
ATOM      9  C   UNL     1      -1.718  -0.879   1.060  0.00  0.00    +0.111 C 
ATOM     10  C   UNL     1      -2.396   0.473   0.866  0.00  0.00    +0.133 C 
ATOM     11  C   UNL     1      -0.297  -0.804   1.614  0.00  0.00    +0.133 C 
ATOM     12  C   UNL     1      -2.691  -1.676  -1.109  0.00  0.00    +0.127 C 
ATOM     13  C   UNL     1      -3.374  -0.323  -1.277  0.00  0.00    +0.128 C 
ATOM     14  C   UNL     1      -0.279  -2.107  -0.367  0.00  0.00    +0.305 C 
ENDROOT
BRANCH   7   1
ATOM      1  S   UNL     1      -4.733   1.607   0.070  0.00  0.00    +0.029 S 
ATOM      3  O   UNL     1      -4.768   2.176   1.399  0.00  0.00    -0.158 OA
ATOM      4  O   UNL     1      -5.940   1.224  -0.627  0.00  0.00    -0.158 OA
ATOM     17  C   UNL     1      -3.818   2.708  -0.977  0.00  0.00    +0.215 C 
ENDBRANCH   7   1
BRANCH   8  15
ATOM     15  C   UNL     1       1.854  -2.001   1.010  0.00  0.00    +0.144 C 
BRANCH  15  16
ATOM     16  C   UNL     1       2.764  -0.928   0.485  0.00  0.00    -0.030 A 
ATOM     18  C   UNL     1       3.011  -0.831  -0.884  0.00  0.00    +0.009 A 
ATOM     19  C   UNL     1       3.363  -0.029   1.367  0.00  0.00    +0.009 A 
ATOM     20  C   UNL     1       3.856   0.166  -1.371  0.00  0.00    +0.046 A 
ATOM     21  C   UNL     1       4.208   0.968   0.880  0.00  0.00    +0.046 A 
ATOM     22  C   UNL     1       4.455   1.066  -0.489  0.00  0.00    +0.120 A 
BRANCH  22   5
ATOM      5  O   UNL     1       5.279   2.039  -0.965  0.00  0.00    -0.495 OA
ATOM     23  C   UNL     1       5.857   2.925  -0.007  0.00  0.00    +0.277 C 
ENDBRANCH  22   5
ENDBRANCH  15  16
ENDBRANCH   8  15
TORSDOF 4
