MODEL 1
REMARK VINA RESULT:      -7.1      0.000      0.000
REMARK  Name = 25338626
REMARK  9 active torsions:
REMARK  status: ('A' for Active; 'I' for Inactive)
REMARK    1  A    between atoms: O_4  and  C_19
REMARK    2  A    between atoms: O_4  and  C_23
REMARK    3  A    between atoms: O_5  and  C_27
REMARK    4  A    between atoms: N_7  and  C_16
REMARK    5  A    between atoms: N_8  and  C_11
REMARK    6  A    between atoms: C_12  and  C_15
REMARK    7  A    between atoms: C_17  and  C_19
REMARK    8  A    between atoms: C_18  and  C_20
REMARK    9  A    between atoms: C_23  and  C_27
REMARK                            x       y       z     vdW  Elec       q    Type
REMARK                         _______ _______ _______ _____ _____    ______ ____
ROOT
ATOM      7  N   UNL     1      11.417   6.916  21.681  0.00  0.00    -0.293 NA
ATOM     11  C   UNL     1      10.594   9.091  21.841  0.00  0.00    +0.089 C 
ATOM     12  C   UNL     1      11.663   7.485  20.343  0.00  0.00    +0.147 C 
ATOM     13  C   UNL     1      11.265   8.968  20.474  0.00  0.00    +0.052 C 
ATOM     14  C   UNL     1      10.274   7.655  22.228  0.00  0.00    +0.107 C 
ATOM     16  C   UNL     1      11.175   5.478  21.658  0.00  0.00    +0.105 C 
ENDROOT
BRANCH  12  15
ATOM      2  O   UNL     1      13.319   7.550  18.546  0.00  0.00    -0.336 OA
ATOM      9  N   UNL     1      14.150   6.943  20.536  0.00  0.00    -0.190 NA
ATOM     10  N   UNL     1      14.686   7.320  18.344  0.00  0.00    -0.056 NA
ATOM     15  C   UNL     1      13.087   7.306  19.863  0.00  0.00    +0.245 A 
ATOM     18  C   UNL     1      15.106   6.966  19.562  0.00  0.00    +0.202 A 
BRANCH  18  20
ATOM      1  F   UNL     1      20.408   5.670  20.638  0.00  0.00    -0.205 F 
ATOM     20  C   UNL     1      16.473   6.632  19.839  0.00  0.00    +0.023 A 
ATOM     21  C   UNL     1      17.120   7.198  20.938  0.00  0.00    +0.014 A 
ATOM     22  C   UNL     1      17.155   5.740  19.011  0.00  0.00    +0.014 A 
ATOM     24  C   UNL     1      18.449   6.874  21.207  0.00  0.00    +0.039 A 
ATOM     25  C   UNL     1      18.484   5.415  19.281  0.00  0.00    +0.039 A 
ATOM     26  C   UNL     1      19.131   5.982  20.379  0.00  0.00    +0.123 A 
ENDBRANCH  18  20
ENDBRANCH  12  15
BRANCH  11   8
ATOM      3  O   UNL     1      10.991  11.924  22.264  0.00  0.00    -0.273 OA
ATOM      8  N   UNL     1      11.466   9.713  22.808  0.00  0.00    -0.309 N 
ATOM     17  C   UNL     1      11.590  11.089  22.936  0.00  0.00    +0.239 C 
ATOM     28  H   UNL     1      12.053   9.111  23.379  0.00  0.00    +0.149 HD
BRANCH  17  19
ATOM     19  C   UNL     1      12.570  11.463  24.027  0.00  0.00    +0.256 C 
BRANCH  19   4
ATOM      4  O   UNL     1      13.783  11.922  23.470  0.00  0.00    -0.359 OA
BRANCH   4  23
ATOM     23  C   UNL     1      14.832  10.970  23.624  0.00  0.00    +0.280 C 
BRANCH  23  27
ATOM      6  O   UNL     1      15.300  10.412  21.306  0.00  0.00    -0.248 OA
ATOM     27  C   UNL     1      14.897  10.083  22.412  0.00  0.00    +0.331 C 
BRANCH  27   5
ATOM      5  O   UNL     1      14.440   8.841  22.714  0.00  0.00    -0.479 OA
ATOM     29  H   UNL     1      14.014   8.813  23.596  0.00  0.00    +0.295 HD
ENDBRANCH  27   5
ENDBRANCH  23  27
ENDBRANCH   4  23
ENDBRANCH  19   4
ENDBRANCH  17  19
ENDBRANCH  11   8
TORSDOF 8
ENDMDL
MODEL 2
REMARK VINA RESULT:      -6.6      1.487      2.485
REMARK  Name = 25338626
REMARK  9 active torsions:
REMARK  status: ('A' for Active; 'I' for Inactive)
REMARK    1  A    between atoms: O_4  and  C_19
REMARK    2  A    between atoms: O_4  and  C_23
REMARK    3  A    between atoms: O_5  and  C_27
REMARK    4  A    between atoms: N_7  and  C_16
REMARK    5  A    between atoms: N_8  and  C_11
REMARK    6  A    between atoms: C_12  and  C_15
REMARK    7  A    between atoms: C_17  and  C_19
REMARK    8  A    between atoms: C_18  and  C_20
REMARK    9  A    between atoms: C_23  and  C_27
REMARK                            x       y       z     vdW  Elec       q    Type
REMARK                         _______ _______ _______ _____ _____    ______ ____
ROOT
ATOM      7  N   UNL     1      11.429   6.975  21.705  0.00  0.00    -0.293 NA
ATOM     11  C   UNL     1      10.653   9.168  21.867  0.00  0.00    +0.089 C 
ATOM     12  C   UNL     1      11.689   7.541  20.367  0.00  0.00    +0.147 C 
ATOM     13  C   UNL     1      11.323   9.032  20.500  0.00  0.00    +0.052 C 
ATOM     14  C   UNL     1      10.302   7.738  22.251  0.00  0.00    +0.107 C 
ATOM     16  C   UNL     1      11.156   5.543  21.679  0.00  0.00    +0.105 C 
ENDROOT
BRANCH  12  15
ATOM      2  O   UNL     1      13.346   7.563  18.571  0.00  0.00    -0.336 OA
ATOM      9  N   UNL     1      14.165   6.952  20.564  0.00  0.00    -0.190 NA
ATOM     10  N   UNL     1      14.708   7.305  18.369  0.00  0.00    -0.056 NA
ATOM     15  C   UNL     1      13.110   7.331  19.889  0.00  0.00    +0.245 A 
ATOM     18  C   UNL     1      15.121   6.951  19.590  0.00  0.00    +0.202 A 
BRANCH  18  20
ATOM      1  F   UNL     1      20.398   5.559  20.674  0.00  0.00    -0.205 F 
ATOM     20  C   UNL     1      16.482   6.591  19.869  0.00  0.00    +0.023 A 
ATOM     21  C   UNL     1      17.114   7.090  21.008  0.00  0.00    +0.014 A 
ATOM     22  C   UNL     1      17.171   5.743  19.002  0.00  0.00    +0.014 A 
ATOM     24  C   UNL     1      18.437   6.742  21.279  0.00  0.00    +0.039 A 
ATOM     25  C   UNL     1      18.494   5.394  19.275  0.00  0.00    +0.039 A 
ATOM     26  C   UNL     1      19.127   5.894  20.413  0.00  0.00    +0.123 A 
ENDBRANCH  18  20
ENDBRANCH  12  15
BRANCH  11   8
ATOM      3  O   UNL     1      11.160  11.988  22.252  0.00  0.00    -0.273 OA
ATOM      8  N   UNL     1      11.538   9.769  22.836  0.00  0.00    -0.309 N 
ATOM     17  C   UNL     1      11.716  11.141  22.945  0.00  0.00    +0.239 C 
ATOM     28  H   UNL     1      12.093   9.153  23.423  0.00  0.00    +0.149 HD
BRANCH  17  19
ATOM     19  C   UNL     1      12.697  11.492  24.042  0.00  0.00    +0.256 C 
BRANCH  19   4
ATOM      4  O   UNL     1      12.070  11.440  25.306  0.00  0.00    -0.359 OA
BRANCH   4  23
ATOM     23  C   UNL     1      10.848  12.173  25.323  0.00  0.00    +0.280 C 
BRANCH  23  27
ATOM      6  O   UNL     1      12.033  14.050  26.311  0.00  0.00    -0.248 OA
ATOM     27  C   UNL     1      11.127  13.622  25.611  0.00  0.00    +0.331 C 
BRANCH  27   5
ATOM      5  O   UNL     1      10.222  14.409  24.977  0.00  0.00    -0.479 OA
ATOM     29  H   UNL     1       9.839  15.083  25.576  0.00  0.00    +0.295 HD
ENDBRANCH  27   5
ENDBRANCH  23  27
ENDBRANCH   4  23
ENDBRANCH  19   4
ENDBRANCH  17  19
ENDBRANCH  11   8
TORSDOF 8
ENDMDL
MODEL 3
REMARK VINA RESULT:      -6.3      3.064      4.833
REMARK  Name = 25338626
REMARK  9 active torsions:
REMARK  status: ('A' for Active; 'I' for Inactive)
REMARK    1  A    between atoms: O_4  and  C_19
REMARK    2  A    between atoms: O_4  and  C_23
REMARK    3  A    between atoms: O_5  and  C_27
REMARK    4  A    between atoms: N_7  and  C_16
REMARK    5  A    between atoms: N_8  and  C_11
REMARK    6  A    between atoms: C_12  and  C_15
REMARK    7  A    between atoms: C_17  and  C_19
REMARK    8  A    between atoms: C_18  and  C_20
REMARK    9  A    between atoms: C_23  and  C_27
REMARK                            x       y       z     vdW  Elec       q    Type
REMARK                         _______ _______ _______ _____ _____    ______ ____
ROOT
ATOM      7  N   UNL     1      13.693   8.632  20.667  0.00  0.00    -0.293 NA
ATOM     11  C   UNL     1      11.996   8.037  19.183  0.00  0.00    +0.089 C 
ATOM     12  C   UNL     1      13.846   7.172  20.524  0.00  0.00    +0.147 C 
ATOM     13  C   UNL     1      12.831   6.782  19.432  0.00  0.00    +0.052 C 
ATOM     14  C   UNL     1      12.281   8.917  20.391  0.00  0.00    +0.107 C 
ATOM     16  C   UNL     1      14.102   9.127  21.976  0.00  0.00    +0.105 C 
ENDROOT
BRANCH  12  15
ATOM      2  O   UNL     1      15.448   6.197  18.957  0.00  0.00    -0.336 OA
ATOM      9  N   UNL     1      16.343   6.818  20.914  0.00  0.00    -0.190 NA
ATOM     10  N   UNL     1      16.810   5.883  18.878  0.00  0.00    -0.056 NA
ATOM     15  C   UNL     1      15.257   6.743  20.187  0.00  0.00    +0.245 A 
ATOM     18  C   UNL     1      17.270   6.279  20.069  0.00  0.00    +0.202 A 
BRANCH  18  20
ATOM      1  F   UNL     1      22.617   5.784  21.525  0.00  0.00    -0.205 F 
ATOM     20  C   UNL     1      18.649   6.151  20.444  0.00  0.00    +0.023 A 
ATOM     21  C   UNL     1      19.260   7.149  21.204  0.00  0.00    +0.014 A 
ATOM     22  C   UNL     1      19.378   5.029  20.051  0.00  0.00    +0.014 A 
ATOM     24  C   UNL     1      20.599   7.025  21.568  0.00  0.00    +0.039 A 
ATOM     25  C   UNL     1      20.718   4.905  20.416  0.00  0.00    +0.039 A 
ATOM     26  C   UNL     1      21.329   5.903  21.175  0.00  0.00    +0.123 A 
ENDBRANCH  18  20
ENDBRANCH  12  15
BRANCH  11   8
ATOM      3  O   UNL     1      10.473   8.154  16.728  0.00  0.00    -0.273 OA
ATOM      8  N   UNL     1      12.374   8.693  17.955  0.00  0.00    -0.309 N 
ATOM     17  C   UNL     1      11.572   8.694  16.823  0.00  0.00    +0.239 C 
ATOM     28  H   UNL     1      13.293   9.124  17.907  0.00  0.00    +0.149 HD
BRANCH  17  19
ATOM     19  C   UNL     1      12.213   9.456  15.683  0.00  0.00    +0.256 C 
BRANCH  19   4
ATOM      4  O   UNL     1      13.620   9.382  15.765  0.00  0.00    -0.359 OA
BRANCH   4  23
ATOM     23  C   UNL     1      14.226  10.669  15.674  0.00  0.00    +0.280 C 
BRANCH  23  27
ATOM      6  O   UNL     1      16.253  11.483  14.610  0.00  0.00    -0.248 OA
ATOM     27  C   UNL     1      15.405  10.612  14.744  0.00  0.00    +0.331 C 
BRANCH  27   5
ATOM      5  O   UNL     1      15.405   9.442  14.058  0.00  0.00    -0.479 OA
ATOM     29  H   UNL     1      15.305   9.582  13.093  0.00  0.00    +0.295 HD
ENDBRANCH  27   5
ENDBRANCH  23  27
ENDBRANCH   4  23
ENDBRANCH  19   4
ENDBRANCH  17  19
ENDBRANCH  11   8
TORSDOF 8
ENDMDL
MODEL 4
REMARK VINA RESULT:      -6.1      1.637      2.346
REMARK  Name = 25338626
REMARK  9 active torsions:
REMARK  status: ('A' for Active; 'I' for Inactive)
REMARK    1  A    between atoms: O_4  and  C_19
REMARK    2  A    between atoms: O_4  and  C_23
REMARK    3  A    between atoms: O_5  and  C_27
REMARK    4  A    between atoms: N_7  and  C_16
REMARK    5  A    between atoms: N_8  and  C_11
REMARK    6  A    between atoms: C_12  and  C_15
REMARK    7  A    between atoms: C_17  and  C_19
REMARK    8  A    between atoms: C_18  and  C_20
REMARK    9  A    between atoms: C_23  and  C_27
REMARK                            x       y       z     vdW  Elec       q    Type
REMARK                         _______ _______ _______ _____ _____    ______ ____
ROOT
ATOM      7  N   UNL     1      12.160   7.649  21.248  0.00  0.00    -0.293 NA
ATOM     11  C   UNL     1      11.774   9.914  20.853  0.00  0.00    +0.089 C 
ATOM     12  C   UNL     1      12.760   7.882  19.921  0.00  0.00    +0.147 C 
ATOM     13  C   UNL     1      12.650   9.404  19.709  0.00  0.00    +0.052 C 
ATOM     14  C   UNL     1      11.107   8.659  21.395  0.00  0.00    +0.107 C 
ATOM     16  C   UNL     1      11.642   6.295  21.414  0.00  0.00    +0.105 C 
ENDROOT
BRANCH  12  15
ATOM      2  O   UNL     1      14.453   6.557  18.759  0.00  0.00    -0.336 OA
ATOM      9  N   UNL     1      15.213   7.621  20.577  0.00  0.00    -0.190 NA
ATOM     10  N   UNL     1      15.811   6.229  18.863  0.00  0.00    -0.056 NA
ATOM     15  C   UNL     1      14.183   7.380  19.806  0.00  0.00    +0.245 A 
ATOM     18  C   UNL     1      16.189   6.894  19.959  0.00  0.00    +0.202 A 
BRANCH  18  20
ATOM      1  F   UNL     1      21.398   6.740  21.905  0.00  0.00    -0.205 F 
ATOM     20  C   UNL     1      17.532   6.854  20.461  0.00  0.00    +0.023 A 
ATOM     21  C   UNL     1      17.961   7.811  21.380  0.00  0.00    +0.014 A 
ATOM     22  C   UNL     1      18.408   5.858  20.029  0.00  0.00    +0.014 A 
ATOM     24  C   UNL     1      19.267   7.773  21.868  0.00  0.00    +0.039 A 
ATOM     25  C   UNL     1      19.714   5.820  20.518  0.00  0.00    +0.039 A 
ATOM     26  C   UNL     1      20.144   6.777  21.437  0.00  0.00    +0.123 A 
ENDBRANCH  18  20
ENDBRANCH  12  15
BRANCH  11   8
ATOM      3  O   UNL     1      12.522  12.705  20.942  0.00  0.00    -0.273 OA
ATOM      8  N   UNL     1      12.557  10.573  21.870  0.00  0.00    -0.309 N 
ATOM     17  C   UNL     1      12.866  11.925  21.825  0.00  0.00    +0.239 C 
ATOM     28  H   UNL     1      12.942  10.006  22.619  0.00  0.00    +0.149 HD
BRANCH  17  19
ATOM     19  C   UNL     1      13.697  12.349  23.017  0.00  0.00    +0.256 C 
BRANCH  19   4
ATOM      4  O   UNL     1      13.429  11.522  24.130  0.00  0.00    -0.359 OA
BRANCH   4  23
ATOM     23  C   UNL     1      12.747  12.227  25.164  0.00  0.00    +0.280 C 
BRANCH  23  27
ATOM      6  O   UNL     1      10.331  12.475  25.223  0.00  0.00    -0.248 OA
ATOM     27  C   UNL     1      11.321  11.759  25.244  0.00  0.00    +0.331 C 
BRANCH  27   5
ATOM      5  O   UNL     1      11.277  10.407  25.346  0.00  0.00    -0.479 OA
ATOM     29  H   UNL     1      10.435  10.096  25.740  0.00  0.00    +0.295 HD
ENDBRANCH  27   5
ENDBRANCH  23  27
ENDBRANCH   4  23
ENDBRANCH  19   4
ENDBRANCH  17  19
ENDBRANCH  11   8
TORSDOF 8
ENDMDL
MODEL 5
REMARK VINA RESULT:      -5.9      3.757      5.439
REMARK  Name = 25338626
REMARK  9 active torsions:
REMARK  status: ('A' for Active; 'I' for Inactive)
REMARK    1  A    between atoms: O_4  and  C_19
REMARK    2  A    between atoms: O_4  and  C_23
REMARK    3  A    between atoms: O_5  and  C_27
REMARK    4  A    between atoms: N_7  and  C_16
REMARK    5  A    between atoms: N_8  and  C_11
REMARK    6  A    between atoms: C_12  and  C_15
REMARK    7  A    between atoms: C_17  and  C_19
REMARK    8  A    between atoms: C_18  and  C_20
REMARK    9  A    between atoms: C_23  and  C_27
REMARK                            x       y       z     vdW  Elec       q    Type
REMARK                         _______ _______ _______ _____ _____    ______ ____
ROOT
ATOM      7  N   UNL     1      12.752   8.546  20.255  0.00  0.00    -0.293 NA
ATOM     11  C   UNL     1      12.264   8.295  17.989  0.00  0.00    +0.089 C 
ATOM     12  C   UNL     1      13.554   7.377  19.849  0.00  0.00    +0.147 C 
ATOM     13  C   UNL     1      13.364   7.287  18.323  0.00  0.00    +0.052 C 
ATOM     14  C   UNL     1      11.613   8.592  19.332  0.00  0.00    +0.107 C 
ATOM     16  C   UNL     1      12.322   8.492  21.647  0.00  0.00    +0.105 C 
ENDROOT
BRANCH  12  15
ATOM      2  O   UNL     1      15.450   8.702  20.638  0.00  0.00    -0.336 OA
ATOM      9  N   UNL     1      15.930   6.545  20.275  0.00  0.00    -0.190 NA
ATOM     10  N   UNL     1      16.806   8.547  20.952  0.00  0.00    -0.056 NA
ATOM     15  C   UNL     1      15.011   7.477  20.249  0.00  0.00    +0.245 A 
ATOM     18  C   UNL     1      17.014   7.248  20.713  0.00  0.00    +0.202 A 
BRANCH  18  20
ATOM      1  F   UNL     1      21.968   4.827  21.452  0.00  0.00    -0.205 F 
ATOM     20  C   UNL     1      18.292   6.624  20.904  0.00  0.00    +0.023 A 
ATOM     21  C   UNL     1      18.711   5.616  20.036  0.00  0.00    +0.014 A 
ATOM     22  C   UNL     1      19.114   7.026  21.957  0.00  0.00    +0.014 A 
ATOM     24  C   UNL     1      19.952   5.009  20.221  0.00  0.00    +0.039 A 
ATOM     25  C   UNL     1      20.357   6.419  22.141  0.00  0.00    +0.039 A 
ATOM     26  C   UNL     1      20.775   5.410  21.274  0.00  0.00    +0.123 A 
ENDBRANCH  18  20
ENDBRANCH  12  15
BRANCH  11   8
ATOM      3  O   UNL     1      12.829   8.747  15.189  0.00  0.00    -0.273 OA
ATOM      8  N   UNL     1      12.804   9.493  17.391  0.00  0.00    -0.309 N 
ATOM     17  C   UNL     1      13.042   9.615  16.030  0.00  0.00    +0.239 C 
ATOM     28  H   UNL     1      13.071  10.256  18.007  0.00  0.00    +0.149 HD
BRANCH  17  19
ATOM     19  C   UNL     1      13.607  10.975  15.680  0.00  0.00    +0.256 C 
BRANCH  19   4
ATOM      4  O   UNL     1      13.529  11.204  14.290  0.00  0.00    -0.359 OA
BRANCH   4  23
ATOM     23  C   UNL     1      14.375  12.274  13.879  0.00  0.00    +0.280 C 
BRANCH  23  27
ATOM      6  O   UNL     1      16.791  12.052  14.021  0.00  0.00    -0.248 OA
ATOM     27  C   UNL     1      15.728  11.738  13.504  0.00  0.00    +0.331 C 
BRANCH  27   5
ATOM      5  O   UNL     1      15.614  10.840  12.494  0.00  0.00    -0.479 OA
ATOM     29  H   UNL     1      14.721  10.435  12.463  0.00  0.00    +0.295 HD
ENDBRANCH  27   5
ENDBRANCH  23  27
ENDBRANCH   4  23
ENDBRANCH  19   4
ENDBRANCH  17  19
ENDBRANCH  11   8
TORSDOF 8
ENDMDL
MODEL 6
REMARK VINA RESULT:      -5.7      4.485      5.691
REMARK  Name = 25338626
REMARK  9 active torsions:
REMARK  status: ('A' for Active; 'I' for Inactive)
REMARK    1  A    between atoms: O_4  and  C_19
REMARK    2  A    between atoms: O_4  and  C_23
REMARK    3  A    between atoms: O_5  and  C_27
REMARK    4  A    between atoms: N_7  and  C_16
REMARK    5  A    between atoms: N_8  and  C_11
REMARK    6  A    between atoms: C_12  and  C_15
REMARK    7  A    between atoms: C_17  and  C_19
REMARK    8  A    between atoms: C_18  and  C_20
REMARK    9  A    between atoms: C_23  and  C_27
REMARK                            x       y       z     vdW  Elec       q    Type
REMARK                         _______ _______ _______ _____ _____    ______ ____
ROOT
ATOM      7  N   UNL     1      14.957   7.306  19.717  0.00  0.00    -0.293 NA
ATOM     11  C   UNL     1      12.975   7.195  20.939  0.00  0.00    +0.089 C 
ATOM     12  C   UNL     1      13.920   7.099  18.689  0.00  0.00    +0.147 C 
ATOM     13  C   UNL     1      12.589   7.175  19.461  0.00  0.00    +0.052 C 
ATOM     14  C   UNL     1      14.421   6.722  20.951  0.00  0.00    +0.107 C 
ATOM     16  C   UNL     1      16.246   6.727  19.357  0.00  0.00    +0.105 C 
ENDROOT
BRANCH  12  15
ATOM      2  O   UNL     1      13.612   7.647  16.327  0.00  0.00    -0.336 OA
ATOM      9  N   UNL     1      14.371   9.349  17.569  0.00  0.00    -0.190 NA
ATOM     10  N   UNL     1      13.762   8.730  15.452  0.00  0.00    -0.056 NA
ATOM     15  C   UNL     1      13.991   8.096  17.552  0.00  0.00    +0.245 A 
ATOM     18  C   UNL     1      14.213   9.696  16.259  0.00  0.00    +0.202 A 
BRANCH  18  20
ATOM      1  F   UNL     1      15.378  14.819  14.430  0.00  0.00    -0.205 F 
ATOM     20  C   UNL     1      14.513  11.017  15.787  0.00  0.00    +0.023 A 
ATOM     21  C   UNL     1      15.456  11.798  16.456  0.00  0.00    +0.014 A 
ATOM     22  C   UNL     1      13.863  11.520  14.660  0.00  0.00    +0.014 A 
ATOM     24  C   UNL     1      15.748  13.082  15.997  0.00  0.00    +0.039 A 
ATOM     25  C   UNL     1      14.156  12.804  14.201  0.00  0.00    +0.039 A 
ATOM     26  C   UNL     1      15.098  13.586  14.870  0.00  0.00    +0.123 A 
ENDBRANCH  18  20
ENDBRANCH  12  15
BRANCH  11   8
ATOM      3  O   UNL     1      10.742   8.246  22.447  0.00  0.00    -0.273 OA
ATOM      8  N   UNL     1      12.851   8.517  21.504  0.00  0.00    -0.309 N 
ATOM     17  C   UNL     1      11.734   8.931  22.216  0.00  0.00    +0.239 C 
ATOM     28  H   UNL     1      13.594   9.186  21.322  0.00  0.00    +0.149 HD
BRANCH  17  19
ATOM     19  C   UNL     1      11.873  10.361  22.692  0.00  0.00    +0.256 C 
BRANCH  19   4
ATOM      4  O   UNL     1      10.771  10.727  23.496  0.00  0.00    -0.359 OA
BRANCH   4  23
ATOM     23  C   UNL     1      10.835  12.094  23.895  0.00  0.00    +0.280 C 
BRANCH  23  27
ATOM      6  O   UNL     1      12.427  11.902  25.720  0.00  0.00    -0.248 OA
ATOM     27  C   UNL     1      11.308  12.187  25.318  0.00  0.00    +0.331 C 
BRANCH  27   5
ATOM      5  O   UNL     1      10.309  12.641  26.116  0.00  0.00    -0.479 OA
ATOM     29  H   UNL     1      10.406  12.327  27.039  0.00  0.00    +0.295 HD
ENDBRANCH  27   5
ENDBRANCH  23  27
ENDBRANCH   4  23
ENDBRANCH  19   4
ENDBRANCH  17  19
ENDBRANCH  11   8
TORSDOF 8
ENDMDL
MODEL 7
REMARK VINA RESULT:      -5.7     26.677     28.600
REMARK  Name = 25338626
REMARK  9 active torsions:
REMARK  status: ('A' for Active; 'I' for Inactive)
REMARK    1  A    between atoms: O_4  and  C_19
REMARK    2  A    between atoms: O_4  and  C_23
REMARK    3  A    between atoms: O_5  and  C_27
REMARK    4  A    between atoms: N_7  and  C_16
REMARK    5  A    between atoms: N_8  and  C_11
REMARK    6  A    between atoms: C_12  and  C_15
REMARK    7  A    between atoms: C_17  and  C_19
REMARK    8  A    between atoms: C_18  and  C_20
REMARK    9  A    between atoms: C_23  and  C_27
REMARK                            x       y       z     vdW  Elec       q    Type
REMARK                         _______ _______ _______ _____ _____    ______ ____
ROOT
ATOM      7  N   UNL     1      -3.524 -12.367  11.519  0.00  0.00    -0.293 NA
ATOM     11  C   UNL     1      -3.868 -10.587  10.053  0.00  0.00    +0.089 C 
ATOM     12  C   UNL     1      -2.669 -11.294  12.060  0.00  0.00    +0.147 C 
ATOM     13  C   UNL     1      -2.997 -10.063  11.194  0.00  0.00    +0.052 C 
ATOM     14  C   UNL     1      -3.652 -12.093  10.084  0.00  0.00    +0.107 C 
ATOM     16  C   UNL     1      -2.999 -13.703  11.773  0.00  0.00    +0.105 C 
ENDROOT
BRANCH  12  15
ATOM      2  O   UNL     1      -1.783 -10.687  14.256  0.00  0.00    -0.336 OA
ATOM      9  N   UNL     1      -3.982 -11.112  14.242  0.00  0.00    -0.190 NA
ATOM     10  N   UNL     1      -2.223 -10.509  15.574  0.00  0.00    -0.056 NA
ATOM     15  C   UNL     1      -2.881 -11.040  13.537  0.00  0.00    +0.245 A 
ATOM     18  C   UNL     1      -3.529 -10.778  15.485  0.00  0.00    +0.202 A 
BRANCH  18  20
ATOM      1  F   UNL     1      -6.933 -10.551  19.879  0.00  0.00    -0.205 F 
ATOM     20  C   UNL     1      -4.407 -10.719  16.617  0.00  0.00    +0.023 A 
ATOM     21  C   UNL     1      -4.057 -11.363  17.804  0.00  0.00    +0.014 A 
ATOM     22  C   UNL     1      -5.610 -10.018  16.532  0.00  0.00    +0.014 A 
ATOM     24  C   UNL     1      -4.910 -11.306  18.905  0.00  0.00    +0.039 A 
ATOM     25  C   UNL     1      -6.463  -9.961  17.634  0.00  0.00    +0.039 A 
ATOM     26  C   UNL     1      -6.114 -10.605  18.821  0.00  0.00    +0.123 A 
ENDBRANCH  18  20
ENDBRANCH  12  15
BRANCH  11   8
ATOM      3  O   UNL     1      -5.156  -8.069   9.450  0.00  0.00    -0.273 OA
ATOM      8  N   UNL     1      -5.258 -10.252  10.247  0.00  0.00    -0.309 N 
ATOM     17  C   UNL     1      -5.786  -9.010   9.925  0.00  0.00    +0.239 C 
ATOM     28  H   UNL     1      -5.859 -10.942  10.689  0.00  0.00    +0.149 HD
BRANCH  17  19
ATOM     19  C   UNL     1      -7.267  -8.935  10.231  0.00  0.00    +0.256 C 
BRANCH  19   4
ATOM      4  O   UNL     1      -8.017  -8.844   9.039  0.00  0.00    -0.359 OA
BRANCH   4  23
ATOM     23  C   UNL     1      -8.745  -7.621   8.961  0.00  0.00    +0.280 C 
BRANCH  23  27
ATOM      6  O   UNL     1      -8.773  -6.707   6.709  0.00  0.00    -0.248 OA
ATOM     27  C   UNL     1      -8.241  -6.802   7.806  0.00  0.00    +0.331 C 
BRANCH  27   5
ATOM      5  O   UNL     1      -7.091  -6.168   8.147  0.00  0.00    -0.479 OA
ATOM     29  H   UNL     1      -7.165  -5.714   9.013  0.00  0.00    +0.295 HD
ENDBRANCH  27   5
ENDBRANCH  23  27
ENDBRANCH   4  23
ENDBRANCH  19   4
ENDBRANCH  17  19
ENDBRANCH  11   8
TORSDOF 8
ENDMDL
MODEL 8
REMARK VINA RESULT:      -5.7      1.980      3.948
REMARK  Name = 25338626
REMARK  9 active torsions:
REMARK  status: ('A' for Active; 'I' for Inactive)
REMARK    1  A    between atoms: O_4  and  C_19
REMARK    2  A    between atoms: O_4  and  C_23
REMARK    3  A    between atoms: O_5  and  C_27
REMARK    4  A    between atoms: N_7  and  C_16
REMARK    5  A    between atoms: N_8  and  C_11
REMARK    6  A    between atoms: C_12  and  C_15
REMARK    7  A    between atoms: C_17  and  C_19
REMARK    8  A    between atoms: C_18  and  C_20
REMARK    9  A    between atoms: C_23  and  C_27
REMARK                            x       y       z     vdW  Elec       q    Type
REMARK                         _______ _______ _______ _____ _____    ______ ____
ROOT
ATOM      7  N   UNL     1      12.253   9.732  21.863  0.00  0.00    -0.293 NA
ATOM     11  C   UNL     1      10.809   8.215  20.838  0.00  0.00    +0.089 C 
ATOM     12  C   UNL     1      12.897   8.424  22.089  0.00  0.00    +0.147 C 
ATOM     13  C   UNL     1      12.037   7.426  21.290  0.00  0.00    +0.052 C 
ATOM     14  C   UNL     1      10.820   9.455  21.721  0.00  0.00    +0.107 C 
ATOM     16  C   UNL     1      12.518  10.694  22.926  0.00  0.00    +0.105 C 
ENDROOT
BRANCH  12  15
ATOM      2  O   UNL     1      14.914   9.580  21.336  0.00  0.00    -0.336 OA
ATOM      9  N   UNL     1      15.174   7.373  21.614  0.00  0.00    -0.190 NA
ATOM     10  N   UNL     1      16.246   9.301  21.005  0.00  0.00    -0.056 NA
ATOM     15  C   UNL     1      14.354   8.392  21.684  0.00  0.00    +0.245 A 
ATOM     18  C   UNL     1      16.322   7.980  21.194  0.00  0.00    +0.202 A 
BRANCH  18  20
ATOM      1  F   UNL     1      21.005   5.102  20.335  0.00  0.00    -0.205 F 
ATOM     20  C   UNL     1      17.530   7.238  20.973  0.00  0.00    +0.023 A 
ATOM     21  C   UNL     1      17.572   6.255  19.983  0.00  0.00    +0.014 A 
ATOM     22  C   UNL     1      18.661   7.499  21.746  0.00  0.00    +0.014 A 
ATOM     24  C   UNL     1      18.746   5.534  19.768  0.00  0.00    +0.039 A 
ATOM     25  C   UNL     1      19.835   6.778  21.530  0.00  0.00    +0.039 A 
ATOM     26  C   UNL     1      19.877   5.795  20.542  0.00  0.00    +0.123 A 
ENDBRANCH  18  20
ENDBRANCH  12  15
BRANCH  11   8
ATOM      3  O   UNL     1      12.276   6.828  18.769  0.00  0.00    -0.273 OA
ATOM      8  N   UNL     1      10.885   8.566  19.440  0.00  0.00    -0.309 N 
ATOM     17  C   UNL     1      11.620   7.835  18.519  0.00  0.00    +0.239 C 
ATOM     28  H   UNL     1      10.424   9.419  19.136  0.00  0.00    +0.149 HD
BRANCH  17  19
ATOM     19  C   UNL     1      11.523   8.427  17.129  0.00  0.00    +0.256 C 
BRANCH  19   4
ATOM      4  O   UNL     1      12.271   9.620  17.043  0.00  0.00    -0.359 OA
BRANCH   4  23
ATOM     23  C   UNL     1      13.615   9.376  16.636  0.00  0.00    +0.280 C 
BRANCH  23  27
ATOM      6  O   UNL     1      14.969  10.747  18.117  0.00  0.00    -0.248 OA
ATOM     27  C   UNL     1      14.550   9.648  17.781  0.00  0.00    +0.331 C 
BRANCH  27   5
ATOM      5  O   UNL     1      14.877   8.489  18.406  0.00  0.00    -0.479 OA
ATOM     29  H   UNL     1      14.827   8.572  19.381  0.00  0.00    +0.295 HD
ENDBRANCH  27   5
ENDBRANCH  23  27
ENDBRANCH   4  23
ENDBRANCH  19   4
ENDBRANCH  17  19
ENDBRANCH  11   8
TORSDOF 8
ENDMDL
MODEL 9
REMARK VINA RESULT:      -5.6     26.423     28.300
REMARK  Name = 25338626
REMARK  9 active torsions:
REMARK  status: ('A' for Active; 'I' for Inactive)
REMARK    1  A    between atoms: O_4  and  C_19
REMARK    2  A    between atoms: O_4  and  C_23
REMARK    3  A    between atoms: O_5  and  C_27
REMARK    4  A    between atoms: N_7  and  C_16
REMARK    5  A    between atoms: N_8  and  C_11
REMARK    6  A    between atoms: C_12  and  C_15
REMARK    7  A    between atoms: C_17  and  C_19
REMARK    8  A    between atoms: C_18  and  C_20
REMARK    9  A    between atoms: C_23  and  C_27
REMARK                            x       y       z     vdW  Elec       q    Type
REMARK                         _______ _______ _______ _____ _____    ______ ____
ROOT
ATOM      7  N   UNL     1      -3.307 -12.187  11.842  0.00  0.00    -0.293 NA
ATOM     11  C   UNL     1      -3.313 -10.281  10.500  0.00  0.00    +0.089 C 
ATOM     12  C   UNL     1      -2.317 -11.302  12.484  0.00  0.00    +0.147 C 
ATOM     13  C   UNL     1      -2.417  -9.978  11.701  0.00  0.00    +0.052 C 
ATOM     14  C   UNL     1      -3.335 -11.800  10.428  0.00  0.00    +0.107 C 
ATOM     16  C   UNL     1      -3.006 -13.604  12.013  0.00  0.00    +0.105 C 
ENDROOT
BRANCH  12  15
ATOM      2  O   UNL     1      -1.465 -10.751  14.708  0.00  0.00    -0.336 OA
ATOM      9  N   UNL     1      -3.646 -11.261  14.664  0.00  0.00    -0.190 NA
ATOM     10  N   UNL     1      -1.916 -10.645  16.029  0.00  0.00    -0.056 NA
ATOM     15  C   UNL     1      -2.545 -11.117  13.969  0.00  0.00    +0.245 A 
ATOM     18  C   UNL     1      -3.211 -10.961  15.922  0.00  0.00    +0.202 A 
BRANCH  18  20
ATOM      1  F   UNL     1      -6.639 -11.048  20.302  0.00  0.00    -0.205 F 
ATOM     20  C   UNL     1      -4.095 -10.983  17.051  0.00  0.00    +0.023 A 
ATOM     21  C   UNL     1      -3.749 -11.707  18.193  0.00  0.00    +0.014 A 
ATOM     22  C   UNL     1      -5.300 -10.281  17.008  0.00  0.00    +0.014 A 
ATOM     24  C   UNL     1      -4.609 -11.729  19.290  0.00  0.00    +0.039 A 
ATOM     25  C   UNL     1      -6.159 -10.303  18.107  0.00  0.00    +0.039 A 
ATOM     26  C   UNL     1      -5.814 -11.027  19.248  0.00  0.00    +0.123 A 
ENDBRANCH  18  20
ENDBRANCH  12  15
BRANCH  11   8
ATOM      3  O   UNL     1      -5.152  -9.451   8.429  0.00  0.00    -0.273 OA
ATOM      8  N   UNL     1      -4.641  -9.745  10.679  0.00  0.00    -0.309 N 
ATOM     17  C   UNL     1      -5.453  -9.373   9.617  0.00  0.00    +0.239 C 
ATOM     28  H   UNL     1      -4.968  -9.584  11.627  0.00  0.00    +0.149 HD
BRANCH  17  19
ATOM     19  C   UNL     1      -6.789  -8.845  10.093  0.00  0.00    +0.256 C 
BRANCH  19   4
ATOM      4  O   UNL     1      -6.833  -8.799  11.503  0.00  0.00    -0.359 OA
BRANCH   4  23
ATOM     23  C   UNL     1      -7.765  -9.736  12.036  0.00  0.00    +0.280 C 
BRANCH  23  27
ATOM      6  O   UNL     1      -7.640 -10.377  14.377  0.00  0.00    -0.248 OA
ATOM     27  C   UNL     1      -7.177 -10.407  13.245  0.00  0.00    +0.331 C 
BRANCH  27   5
ATOM      5  O   UNL     1      -6.039 -11.065  12.909  0.00  0.00    -0.479 OA
ATOM     29  H   UNL     1      -5.441 -11.178  13.677  0.00  0.00    +0.295 HD
ENDBRANCH  27   5
ENDBRANCH  23  27
ENDBRANCH   4  23
ENDBRANCH  19   4
ENDBRANCH  17  19
ENDBRANCH  11   8
TORSDOF 8
ENDMDL
MODEL 10
REMARK VINA RESULT:      -5.4     28.088     31.321
REMARK  Name = 25338626
REMARK  9 active torsions:
REMARK  status: ('A' for Active; 'I' for Inactive)
REMARK    1  A    between atoms: O_4  and  C_19
REMARK    2  A    between atoms: O_4  and  C_23
REMARK    3  A    between atoms: O_5  and  C_27
REMARK    4  A    between atoms: N_7  and  C_16
REMARK    5  A    between atoms: N_8  and  C_11
REMARK    6  A    between atoms: C_12  and  C_15
REMARK    7  A    between atoms: C_17  and  C_19
REMARK    8  A    between atoms: C_18  and  C_20
REMARK    9  A    between atoms: C_23  and  C_27
REMARK                            x       y       z     vdW  Elec       q    Type
REMARK                         _______ _______ _______ _____ _____    ______ ____
ROOT
ATOM      7  N   UNL     1     -18.024   2.532  26.803  0.00  0.00    -0.293 NA
ATOM     11  C   UNL     1     -16.929   1.805  24.877  0.00  0.00    +0.089 C 
ATOM     12  C   UNL     1     -17.418   1.249  27.205  0.00  0.00    +0.147 C 
ATOM     13  C   UNL     1     -16.564   0.827  25.993  0.00  0.00    +0.052 C 
ATOM     14  C   UNL     1     -18.225   2.444  25.353  0.00  0.00    +0.107 C 
ATOM     16  C   UNL     1     -19.266   2.826  27.507  0.00  0.00    +0.105 C 
ENDROOT
BRANCH  12  15
ATOM      2  O   UNL     1     -15.972   0.204  28.876  0.00  0.00    -0.336 OA
ATOM      9  N   UNL     1     -16.433   2.358  29.283  0.00  0.00    -0.190 NA
ATOM     10  N   UNL     1     -15.304   0.527  30.063  0.00  0.00    -0.056 NA
ATOM     15  C   UNL     1     -16.611   1.337  28.482  0.00  0.00    +0.245 A 
ATOM     18  C   UNL     1     -15.624   1.813  30.238  0.00  0.00    +0.202 A 
BRANCH  18  20
ATOM      1  F   UNL     1     -13.791   4.793  34.564  0.00  0.00    -0.205 F 
ATOM     20  C   UNL     1     -15.152   2.581  31.353  0.00  0.00    +0.023 A 
ATOM     21  C   UNL     1     -14.808   3.922  31.181  0.00  0.00    +0.014 A 
ATOM     22  C   UNL     1     -15.036   1.987  32.610  0.00  0.00    +0.014 A 
ATOM     24  C   UNL     1     -14.349   4.669  32.265  0.00  0.00    +0.039 A 
ATOM     25  C   UNL     1     -14.577   2.735  33.695  0.00  0.00    +0.039 A 
ATOM     26  C   UNL     1     -14.233   4.075  33.522  0.00  0.00    +0.123 A 
ENDBRANCH  18  20
ENDBRANCH  12  15
BRANCH  11   8
ATOM      3  O   UNL     1     -16.571   3.515  22.573  0.00  0.00    -0.273 OA
ATOM      8  N   UNL     1     -15.898   2.796  24.679  0.00  0.00    -0.309 N 
ATOM     17  C   UNL     1     -15.808   3.572  23.533  0.00  0.00    +0.239 C 
ATOM     28  H   UNL     1     -15.178   2.884  25.391  0.00  0.00    +0.149 HD
BRANCH  17  19
ATOM     19  C   UNL     1     -14.634   4.526  23.594  0.00  0.00    +0.256 C 
BRANCH  19   4
ATOM      4  O   UNL     1     -14.134   4.782  22.299  0.00  0.00    -0.359 OA
BRANCH   4  23
ATOM     23  C   UNL     1     -14.289   6.150  21.931  0.00  0.00    +0.280 C 
BRANCH  23  27
ATOM      6  O   UNL     1     -12.885   7.733  20.736  0.00  0.00    -0.248 OA
ATOM     27  C   UNL     1     -13.028   6.650  21.285  0.00  0.00    +0.331 C 
BRANCH  27   5
ATOM      5  O   UNL     1     -12.046   5.719  21.391  0.00  0.00    -0.479 OA
ATOM     29  H   UNL     1     -11.154   6.125  21.387  0.00  0.00    +0.295 HD
ENDBRANCH  27   5
ENDBRANCH  23  27
ENDBRANCH   4  23
ENDBRANCH  19   4
ENDBRANCH  17  19
ENDBRANCH  11   8
TORSDOF 8
ENDMDL
