MODEL 1
REMARK VINA RESULT:      -6.5      0.000      0.000
REMARK  Name = 56775645
REMARK  8 active torsions:
REMARK  status: ('A' for Active; 'I' for Inactive)
REMARK    1  A    between atoms: O_3  and  C_20
REMARK    2  A    between atoms: O_3  and  C_21
REMARK    3  A    between atoms: N_4  and  C_6
REMARK    4  A    between atoms: N_4  and  C_8
REMARK    5  A    between atoms: C_6  and  C_13
REMARK    6  A    between atoms: C_7  and  C_8
REMARK    7  A    between atoms: C_13  and  C_17
REMARK    8  A    between atoms: C_19  and  C_20
REMARK                            x       y       z     vdW  Elec       q    Type
REMARK                         _______ _______ _______ _____ _____    ______ ____
ROOT
ATOM     13  C   UNL     1      -1.750   3.843  24.846  0.00  0.00    +0.085 C 
ENDROOT
BRANCH  13  17
ATOM      2  O   UNL     1       0.939   1.431  24.781  0.00  0.00    -0.356 OA
ATOM      5  N   UNL     1       0.282   2.525  25.328  0.00  0.00    -0.083 NA
ATOM     17  C   UNL     1      -0.785   2.714  24.546  0.00  0.00    +0.086 A 
ATOM     18  C   UNL     1      -0.852   1.778  23.500  0.00  0.00    +0.074 A 
ATOM     19  C   UNL     1       0.254   0.994  23.694  0.00  0.00    +0.175 A 
BRANCH  19  20
ATOM     20  C   UNL     1       0.814  -0.166  22.990  0.00  0.00    +0.306 C 
BRANCH  20   3
ATOM      3  O   UNL     1       1.972   0.217  22.244  0.00  0.00    -0.484 OA
BRANCH   3  21
ATOM     21  C   UNL     1       3.182  -0.023  22.832  0.00  0.00    +0.121 A 
ATOM     22  C   UNL     1       4.150   0.980  22.870  0.00  0.00    +0.045 A 
ATOM     23  C   UNL     1       3.449  -1.272  23.393  0.00  0.00    +0.045 A 
ATOM     24  C   UNL     1       5.386   0.734  23.470  0.00  0.00    +0.004 A 
ATOM     25  C   UNL     1       4.685  -1.517  23.993  0.00  0.00    +0.004 A 
ATOM     26  C   UNL     1       5.653  -0.514  24.032  0.00  0.00    +0.000 A 
ENDBRANCH   3  21
ENDBRANCH  20   3
ENDBRANCH  19  20
ENDBRANCH  13  17
BRANCH  13   6
ATOM      1  O   UNL     1      -4.969   4.311  25.302  0.00  0.00    -0.376 OA
ATOM      6  C   UNL     1      -3.087   3.306  25.255  0.00  0.00    +0.072 C 
ATOM     11  C   UNL     1      -3.917   4.085  26.268  0.00  0.00    +0.184 C 
ATOM     12  C   UNL     1      -4.278   3.503  24.324  0.00  0.00    +0.184 C 
BRANCH   6   4
ATOM      4  N   UNL     1      -3.037   1.899  25.667  0.00  0.00    -0.306 NA
ATOM     27  H   UNL     1      -2.136   1.441  25.532  0.00  0.00    +0.123 HD
BRANCH   4   8
ATOM      8  C   UNL     1      -4.079   1.153  24.976  0.00  0.00    +0.085 C 
BRANCH   8   7
ATOM      7  C   UNL     1      -3.536  -0.171  24.441  0.00  0.00    +0.003 C 
ATOM      9  C   UNL     1      -2.530  -0.782  25.426  0.00  0.00    +0.005 C 
ATOM     10  C   UNL     1      -4.683  -1.149  24.154  0.00  0.00    +0.005 C 
ATOM     14  C   UNL     1      -2.013  -2.133  24.938  0.00  0.00    +0.000 C 
ATOM     15  C   UNL     1      -4.163  -2.501  23.669  0.00  0.00    +0.000 C 
ATOM     16  C   UNL     1      -3.156  -3.101  24.645  0.00  0.00    +0.000 C 
ENDBRANCH   8   7
ENDBRANCH   4   8
ENDBRANCH   6   4
ENDBRANCH  13   6
TORSDOF 8
ENDMDL
MODEL 2
REMARK VINA RESULT:      -6.3     14.018     16.283
REMARK  Name = 56775645
REMARK  8 active torsions:
REMARK  status: ('A' for Active; 'I' for Inactive)
REMARK    1  A    between atoms: O_3  and  C_20
REMARK    2  A    between atoms: O_3  and  C_21
REMARK    3  A    between atoms: N_4  and  C_6
REMARK    4  A    between atoms: N_4  and  C_8
REMARK    5  A    between atoms: C_6  and  C_13
REMARK    6  A    between atoms: C_7  and  C_8
REMARK    7  A    between atoms: C_13  and  C_17
REMARK    8  A    between atoms: C_19  and  C_20
REMARK                            x       y       z     vdW  Elec       q    Type
REMARK                         _______ _______ _______ _____ _____    ______ ____
ROOT
ATOM     13  C   UNL     1      -4.347 -11.539  18.381  0.00  0.00    +0.085 C 
ENDROOT
BRANCH  13  17
ATOM      2  O   UNL     1      -3.473 -12.223  14.942  0.00  0.00    -0.356 OA
ATOM      5  N   UNL     1      -4.183 -12.487  16.107  0.00  0.00    -0.083 NA
ATOM     17  C   UNL     1      -3.774 -11.560  16.979  0.00  0.00    +0.086 A 
ATOM     18  C   UNL     1      -2.817 -10.693  16.426  0.00  0.00    +0.074 A 
ATOM     19  C   UNL     1      -2.664 -11.152  15.144  0.00  0.00    +0.175 A 
BRANCH  19  20
ATOM     20  C   UNL     1      -1.836 -10.733  14.006  0.00  0.00    +0.306 C 
BRANCH  20   3
ATOM      3  O   UNL     1      -1.994 -11.643  12.915  0.00  0.00    -0.484 OA
BRANCH   3  21
ATOM     21  C   UNL     1      -2.639 -11.164  11.811  0.00  0.00    +0.121 A 
ATOM     22  C   UNL     1      -3.522 -11.985  11.107  0.00  0.00    +0.045 A 
ATOM     23  C   UNL     1      -2.415  -9.855  11.384  0.00  0.00    +0.045 A 
ATOM     24  C   UNL     1      -4.180 -11.495   9.979  0.00  0.00    +0.004 A 
ATOM     25  C   UNL     1      -3.074  -9.366  10.256  0.00  0.00    +0.004 A 
ATOM     26  C   UNL     1      -3.956 -10.186   9.553  0.00  0.00    +0.000 A 
ENDBRANCH   3  21
ENDBRANCH  20   3
ENDBRANCH  19  20
ENDBRANCH  13  17
BRANCH  13   6
ATOM      1  O   UNL     1      -7.309 -11.424  19.797  0.00  0.00    -0.376 OA
ATOM      6  C   UNL     1      -5.765 -11.056  18.371  0.00  0.00    +0.072 C 
ATOM     11  C   UNL     1      -6.890 -12.063  18.569  0.00  0.00    +0.184 C 
ATOM     12  C   UNL     1      -6.324 -10.382  19.619  0.00  0.00    +0.184 C 
BRANCH   6   4
ATOM      4  N   UNL     1      -6.077 -10.223  17.203  0.00  0.00    -0.306 NA
ATOM     27  H   UNL     1      -6.140  -9.223  17.391  0.00  0.00    +0.123 HD
BRANCH   4   8
ATOM      8  C   UNL     1      -7.312 -10.690  16.590  0.00  0.00    +0.085 C 
BRANCH   8   7
ATOM      7  C   UNL     1      -7.181 -10.734  15.069  0.00  0.00    +0.003 C 
ATOM      9  C   UNL     1      -8.493 -10.303  14.399  0.00  0.00    +0.005 C 
ATOM     10  C   UNL     1      -6.014  -9.855  14.600  0.00  0.00    +0.005 C 
ATOM     14  C   UNL     1      -8.371 -10.288  12.878  0.00  0.00    +0.000 C 
ATOM     15  C   UNL     1      -5.896  -9.839  13.078  0.00  0.00    +0.000 C 
ATOM     16  C   UNL     1      -7.204  -9.420  12.415  0.00  0.00    +0.000 C 
ENDBRANCH   8   7
ENDBRANCH   4   8
ENDBRANCH   6   4
ENDBRANCH  13   6
TORSDOF 8
ENDMDL
MODEL 3
REMARK VINA RESULT:      -6.2     14.510     17.416
REMARK  Name = 56775645
REMARK  8 active torsions:
REMARK  status: ('A' for Active; 'I' for Inactive)
REMARK    1  A    between atoms: O_3  and  C_20
REMARK    2  A    between atoms: O_3  and  C_21
REMARK    3  A    between atoms: N_4  and  C_6
REMARK    4  A    between atoms: N_4  and  C_8
REMARK    5  A    between atoms: C_6  and  C_13
REMARK    6  A    between atoms: C_7  and  C_8
REMARK    7  A    between atoms: C_13  and  C_17
REMARK    8  A    between atoms: C_19  and  C_20
REMARK                            x       y       z     vdW  Elec       q    Type
REMARK                         _______ _______ _______ _____ _____    ______ ____
ROOT
ATOM     13  C   UNL     1      13.414  11.979  24.107  0.00  0.00    +0.085 C 
ENDROOT
BRANCH  13  17
ATOM      2  O   UNL     1      15.080  11.640  20.920  0.00  0.00    -0.356 OA
ATOM      5  N   UNL     1      14.286  12.332  21.825  0.00  0.00    -0.083 NA
ATOM     17  C   UNL     1      14.213  11.540  22.898  0.00  0.00    +0.086 A 
ATOM     18  C   UNL     1      14.934  10.346  22.729  0.00  0.00    +0.074 A 
ATOM     19  C   UNL     1      15.460  10.459  21.470  0.00  0.00    +0.175 A 
BRANCH  19  20
ATOM     20  C   UNL     1      16.311   9.595  20.642  0.00  0.00    +0.306 C 
BRANCH  20   3
ATOM      3  O   UNL     1      16.263   8.247  21.117  0.00  0.00    -0.484 OA
BRANCH   3  21
ATOM     21  C   UNL     1      17.384   7.492  20.922  0.00  0.00    +0.121 A 
ATOM     22  C   UNL     1      17.357   6.420  20.030  0.00  0.00    +0.045 A 
ATOM     23  C   UNL     1      18.556   7.790  21.617  0.00  0.00    +0.045 A 
ATOM     24  C   UNL     1      18.502   5.648  19.831  0.00  0.00    +0.004 A 
ATOM     25  C   UNL     1      19.701   7.018  21.418  0.00  0.00    +0.004 A 
ATOM     26  C   UNL     1      19.675   5.947  20.526  0.00  0.00    +0.000 A 
ENDBRANCH   3  21
ENDBRANCH  20   3
ENDBRANCH  19  20
ENDBRANCH  13  17
BRANCH  13   6
ATOM      1  O   UNL     1      10.322  12.532  25.070  0.00  0.00    -0.376 OA
ATOM      6  C   UNL     1      11.943  11.921  23.825  0.00  0.00    +0.072 C 
ATOM     11  C   UNL     1      11.019  11.283  24.855  0.00  0.00    +0.184 C 
ATOM     12  C   UNL     1      11.101  13.174  24.036  0.00  0.00    +0.184 C 
BRANCH   6   4
ATOM      4  N   UNL     1      11.636  11.361  22.504  0.00  0.00    -0.306 NA
ATOM     27  H   UNL     1      11.143  11.991  21.873  0.00  0.00    +0.123 HD
BRANCH   4   8
ATOM      8  C   UNL     1      10.880  10.128  22.663  0.00  0.00    +0.085 C 
BRANCH   8   7
ATOM      7  C   UNL     1      11.656   8.937  22.101  0.00  0.00    +0.003 C 
ATOM      9  C   UNL     1      10.799   7.664  22.142  0.00  0.00    +0.005 C 
ATOM     10  C   UNL     1      12.134   9.229  20.673  0.00  0.00    +0.005 C 
ATOM     14  C   UNL     1      11.533   6.471  21.536  0.00  0.00    +0.000 C 
ATOM     15  C   UNL     1      12.865   8.033  20.069  0.00  0.00    +0.000 C 
ATOM     16  C   UNL     1      12.015   6.767  20.119  0.00  0.00    +0.000 C 
ENDBRANCH   8   7
ENDBRANCH   4   8
ENDBRANCH   6   4
ENDBRANCH  13   6
TORSDOF 8
ENDMDL
MODEL 4
REMARK VINA RESULT:      -6.2     15.028     17.092
REMARK  Name = 56775645
REMARK  8 active torsions:
REMARK  status: ('A' for Active; 'I' for Inactive)
REMARK    1  A    between atoms: O_3  and  C_20
REMARK    2  A    between atoms: O_3  and  C_21
REMARK    3  A    between atoms: N_4  and  C_6
REMARK    4  A    between atoms: N_4  and  C_8
REMARK    5  A    between atoms: C_6  and  C_13
REMARK    6  A    between atoms: C_7  and  C_8
REMARK    7  A    between atoms: C_13  and  C_17
REMARK    8  A    between atoms: C_19  and  C_20
REMARK                            x       y       z     vdW  Elec       q    Type
REMARK                         _______ _______ _______ _____ _____    ______ ____
ROOT
ATOM     13  C   UNL     1     -14.576   1.264  32.472  0.00  0.00    +0.085 C 
ENDROOT
BRANCH  13  17
ATOM      2  O   UNL     1     -13.359   4.660  32.278  0.00  0.00    -0.356 OA
ATOM      5  N   UNL     1     -13.311   3.315  31.934  0.00  0.00    -0.083 NA
ATOM     17  C   UNL     1     -14.318   2.750  32.607  0.00  0.00    +0.086 A 
ATOM     18  C   UNL     1     -15.029   3.681  33.384  0.00  0.00    +0.074 A 
ATOM     19  C   UNL     1     -14.386   4.865  33.142  0.00  0.00    +0.175 A 
BRANCH  19  20
ATOM     20  C   UNL     1     -14.581   6.243  33.611  0.00  0.00    +0.306 C 
BRANCH  20   3
ATOM      3  O   UNL     1     -13.343   6.957  33.582  0.00  0.00    -0.484 OA
BRANCH   3  21
ATOM     21  C   UNL     1     -13.226   7.935  32.635  0.00  0.00    +0.121 A 
ATOM     22  C   UNL     1     -14.369   8.505  32.075  0.00  0.00    +0.045 A 
ATOM     23  C   UNL     1     -11.963   8.363  32.227  0.00  0.00    +0.045 A 
ATOM     24  C   UNL     1     -14.250   9.503  31.107  0.00  0.00    +0.004 A 
ATOM     25  C   UNL     1     -11.843   9.362  31.259  0.00  0.00    +0.004 A 
ATOM     26  C   UNL     1     -12.986   9.931  30.699  0.00  0.00    +0.000 A 
ENDBRANCH   3  21
ENDBRANCH  20   3
ENDBRANCH  19  20
ENDBRANCH  13  17
BRANCH  13   6
ATOM      1  O   UNL     1     -14.375  -0.798  29.922  0.00  0.00    -0.376 OA
ATOM      6  C   UNL     1     -14.946   0.912  31.064  0.00  0.00    +0.072 C 
ATOM     11  C   UNL     1     -13.843   0.538  30.081  0.00  0.00    +0.184 C 
ATOM     12  C   UNL     1     -15.500  -0.478  30.771  0.00  0.00    +0.184 C 
BRANCH   6   4
ATOM      4  N   UNL     1     -15.819   1.911  30.436  0.00  0.00    -0.306 NA
ATOM     27  H   UNL     1     -16.803   1.651  30.383  0.00  0.00    +0.123 HD
BRANCH   4   8
ATOM      8  C   UNL     1     -15.318   2.225  29.106  0.00  0.00    +0.085 C 
BRANCH   8   7
ATOM      7  C   UNL     1     -15.700   3.649  28.703  0.00  0.00    +0.003 C 
ATOM      9  C   UNL     1     -16.720   3.633  27.557  0.00  0.00    +0.005 C 
ATOM     10  C   UNL     1     -16.245   4.424  29.909  0.00  0.00    +0.005 C 
ATOM     14  C   UNL     1     -17.158   5.044  27.172  0.00  0.00    +0.000 C 
ATOM     15  C   UNL     1     -16.685   5.834  29.521  0.00  0.00    +0.000 C 
ATOM     16  C   UNL     1     -17.692   5.815  28.375  0.00  0.00    +0.000 C 
ENDBRANCH   8   7
ENDBRANCH   4   8
ENDBRANCH   6   4
ENDBRANCH  13   6
TORSDOF 8
ENDMDL
MODEL 5
REMARK VINA RESULT:      -6.2     15.445     18.435
REMARK  Name = 56775645
REMARK  8 active torsions:
REMARK  status: ('A' for Active; 'I' for Inactive)
REMARK    1  A    between atoms: O_3  and  C_20
REMARK    2  A    between atoms: O_3  and  C_21
REMARK    3  A    between atoms: N_4  and  C_6
REMARK    4  A    between atoms: N_4  and  C_8
REMARK    5  A    between atoms: C_6  and  C_13
REMARK    6  A    between atoms: C_7  and  C_8
REMARK    7  A    between atoms: C_13  and  C_17
REMARK    8  A    between atoms: C_19  and  C_20
REMARK                            x       y       z     vdW  Elec       q    Type
REMARK                         _______ _______ _______ _____ _____    ______ ____
ROOT
ATOM     13  C   UNL     1      14.333  11.330  17.613  0.00  0.00    +0.085 C 
ENDROOT
BRANCH  13  17
ATOM      2  O   UNL     1      14.144  10.553  21.136  0.00  0.00    -0.356 OA
ATOM      5  N   UNL     1      13.695  11.205  19.995  0.00  0.00    -0.083 NA
ATOM     17  C   UNL     1      14.523  10.811  19.023  0.00  0.00    +0.086 A 
ATOM     18  C   UNL     1      15.504   9.918  19.488  0.00  0.00    +0.074 A 
ATOM     19  C   UNL     1      15.221   9.789  20.821  0.00  0.00    +0.175 A 
BRANCH  19  20
ATOM     20  C   UNL     1      15.826   9.025  21.920  0.00  0.00    +0.306 C 
BRANCH  20   3
ATOM      3  O   UNL     1      17.235   9.261  21.972  0.00  0.00    -0.484 OA
BRANCH   3  21
ATOM     21  C   UNL     1      18.038   8.261  21.500  0.00  0.00    +0.121 A 
ATOM     22  C   UNL     1      17.471   7.126  20.921  0.00  0.00    +0.045 A 
ATOM     23  C   UNL     1      19.424   8.374  21.598  0.00  0.00    +0.045 A 
ATOM     24  C   UNL     1      18.290   6.104  20.439  0.00  0.00    +0.004 A 
ATOM     25  C   UNL     1      20.244   7.353  21.116  0.00  0.00    +0.004 A 
ATOM     26  C   UNL     1      19.677   6.218  20.537  0.00  0.00    +0.000 A 
ENDBRANCH   3  21
ENDBRANCH  20   3
ENDBRANCH  19  20
ENDBRANCH  13  17
BRANCH  13   6
ATOM      1  O   UNL     1      14.181   9.532  14.867  0.00  0.00    -0.376 OA
ATOM      6  C   UNL     1      13.615  10.324  16.767  0.00  0.00    +0.072 C 
ATOM     11  C   UNL     1      13.360  10.641  15.298  0.00  0.00    +0.184 C 
ATOM     12  C   UNL     1      14.386   9.120  16.238  0.00  0.00    +0.184 C 
BRANCH   6   4
ATOM      4  N   UNL     1      12.364   9.855  17.373  0.00  0.00    -0.306 NA
ATOM     27  H   UNL     1      12.212  10.153  18.336  0.00  0.00    +0.123 HD
BRANCH   4   8
ATOM      8  C   UNL     1      12.298   8.403  17.290  0.00  0.00    +0.085 C 
BRANCH   8   7
ATOM      7  C   UNL     1      11.946   7.795  18.647  0.00  0.00    +0.003 C 
ATOM      9  C   UNL     1      13.203   7.251  19.340  0.00  0.00    +0.005 C 
ATOM     10  C   UNL     1      11.237   8.827  19.533  0.00  0.00    +0.005 C 
ATOM     14  C   UNL     1      12.884   6.686  20.722  0.00  0.00    +0.000 C 
ATOM     15  C   UNL     1      10.922   8.261  20.916  0.00  0.00    +0.000 C 
ATOM     16  C   UNL     1      12.171   7.712  21.598  0.00  0.00    +0.000 C 
ENDBRANCH   8   7
ENDBRANCH   4   8
ENDBRANCH   6   4
ENDBRANCH  13   6
TORSDOF 8
ENDMDL
MODEL 6
REMARK VINA RESULT:      -6.2     14.379     15.878
REMARK  Name = 56775645
REMARK  8 active torsions:
REMARK  status: ('A' for Active; 'I' for Inactive)
REMARK    1  A    between atoms: O_3  and  C_20
REMARK    2  A    between atoms: O_3  and  C_21
REMARK    3  A    between atoms: N_4  and  C_6
REMARK    4  A    between atoms: N_4  and  C_8
REMARK    5  A    between atoms: C_6  and  C_13
REMARK    6  A    between atoms: C_7  and  C_8
REMARK    7  A    between atoms: C_13  and  C_17
REMARK    8  A    between atoms: C_19  and  C_20
REMARK                            x       y       z     vdW  Elec       q    Type
REMARK                         _______ _______ _______ _____ _____    ______ ____
ROOT
ATOM     13  C   UNL     1      -9.815  -9.556  17.841  0.00  0.00    +0.085 C 
ENDROOT
BRANCH  13  17
ATOM      2  O   UNL     1      -6.525  -9.386  16.358  0.00  0.00    -0.356 OA
ATOM      5  N   UNL     1      -7.445  -9.068  17.349  0.00  0.00    -0.083 NA
ATOM     17  C   UNL     1      -8.575  -9.682  16.982  0.00  0.00    +0.086 A 
ATOM     18  C   UNL     1      -8.428 -10.394  15.779  0.00  0.00    +0.074 A 
ATOM     19  C   UNL     1      -7.122 -10.176  15.429  0.00  0.00    +0.175 A 
BRANCH  19  20
ATOM     20  C   UNL     1      -6.285 -10.608  14.302  0.00  0.00    +0.306 C 
BRANCH  20   3
ATOM      3  O   UNL     1      -6.496  -9.757  13.173  0.00  0.00    -0.484 OA
BRANCH   3  21
ATOM     21  C   UNL     1      -5.459  -9.650  12.289  0.00  0.00    +0.121 A 
ATOM     22  C   UNL     1      -5.556  -8.781  11.202  0.00  0.00    +0.045 A 
ATOM     23  C   UNL     1      -4.306 -10.411  12.471  0.00  0.00    +0.045 A 
ATOM     24  C   UNL     1      -4.498  -8.672  10.299  0.00  0.00    +0.004 A 
ATOM     25  C   UNL     1      -3.247 -10.303  11.568  0.00  0.00    +0.004 A 
ATOM     26  C   UNL     1      -3.344  -9.434  10.482  0.00  0.00    +0.000 A 
ENDBRANCH   3  21
ENDBRANCH  20   3
ENDBRANCH  19  20
ENDBRANCH  13  17
BRANCH  13   6
ATOM      1  O   UNL     1     -11.399 -11.707  19.754  0.00  0.00    -0.376 OA
ATOM      6  C   UNL     1      -9.790 -10.550  18.962  0.00  0.00    +0.072 C 
ATOM     11  C   UNL     1     -10.815 -10.426  20.082  0.00  0.00    +0.184 C 
ATOM     12  C   UNL     1     -10.396 -11.931  18.737  0.00  0.00    +0.184 C 
BRANCH   6   4
ATOM      4  N   UNL     1      -8.458 -10.709  19.556  0.00  0.00    -0.306 NA
ATOM     27  H   UNL     1      -7.702 -10.252  19.048  0.00  0.00    +0.123 HD
BRANCH   4   8
ATOM      8  C   UNL     1      -8.163 -12.126  19.714  0.00  0.00    +0.085 C 
BRANCH   8   7
ATOM      7  C   UNL     1      -6.747 -12.443  19.234  0.00  0.00    +0.003 C 
ATOM      9  C   UNL     1      -6.765 -12.938  17.781  0.00  0.00    +0.005 C 
ATOM     10  C   UNL     1      -5.838 -11.216  19.382  0.00  0.00    +0.005 C 
ATOM     14  C   UNL     1      -5.356 -13.211  17.262  0.00  0.00    +0.000 C 
ATOM     15  C   UNL     1      -4.430 -11.492  18.859  0.00  0.00    +0.000 C 
ATOM     16  C   UNL     1      -4.452 -11.992  17.418  0.00  0.00    +0.000 C 
ENDBRANCH   8   7
ENDBRANCH   4   8
ENDBRANCH   6   4
ENDBRANCH  13   6
TORSDOF 8
ENDMDL
MODEL 7
REMARK VINA RESULT:      -6.1     21.911     25.783
REMARK  Name = 56775645
REMARK  8 active torsions:
REMARK  status: ('A' for Active; 'I' for Inactive)
REMARK    1  A    between atoms: O_3  and  C_20
REMARK    2  A    between atoms: O_3  and  C_21
REMARK    3  A    between atoms: N_4  and  C_6
REMARK    4  A    between atoms: N_4  and  C_8
REMARK    5  A    between atoms: C_6  and  C_13
REMARK    6  A    between atoms: C_7  and  C_8
REMARK    7  A    between atoms: C_13  and  C_17
REMARK    8  A    between atoms: C_19  and  C_20
REMARK                            x       y       z     vdW  Elec       q    Type
REMARK                         _______ _______ _______ _____ _____    ______ ____
ROOT
ATOM     13  C   UNL     1      13.291   5.373   0.554  0.00  0.00    +0.085 C 
ENDROOT
BRANCH  13  17
ATOM      2  O   UNL     1      11.266   3.847   3.128  0.00  0.00    -0.356 OA
ATOM      5  N   UNL     1      12.194   3.787   2.095  0.00  0.00    -0.083 NA
ATOM     17  C   UNL     1      12.339   5.051   1.687  0.00  0.00    +0.086 A 
ATOM     18  C   UNL     1      11.536   5.943   2.418  0.00  0.00    +0.074 A 
ATOM     19  C   UNL     1      10.883   5.136   3.311  0.00  0.00    +0.175 A 
BRANCH  19  20
ATOM     20  C   UNL     1       9.898   5.381   4.372  0.00  0.00    +0.306 C 
BRANCH  20   3
ATOM      3  O   UNL     1      10.081   4.454   5.444  0.00  0.00    -0.484 OA
BRANCH   3  21
ATOM     21  C   UNL     1       9.761   4.899   6.696  0.00  0.00    +0.121 A 
ATOM     22  C   UNL     1       9.396   6.231   6.890  0.00  0.00    +0.045 A 
ATOM     23  C   UNL     1       9.802   4.022   7.780  0.00  0.00    +0.045 A 
ATOM     24  C   UNL     1       9.069   6.685   8.169  0.00  0.00    +0.004 A 
ATOM     25  C   UNL     1       9.475   4.477   9.058  0.00  0.00    +0.004 A 
ATOM     26  C   UNL     1       9.109   5.808   9.253  0.00  0.00    +0.000 A 
ENDBRANCH   3  21
ENDBRANCH  20   3
ENDBRANCH  19  20
ENDBRANCH  13  17
BRANCH  13   6
ATOM      1  O   UNL     1      16.386   4.581  -0.215  0.00  0.00    -0.376 OA
ATOM      6  C   UNL     1      14.713   5.162   0.977  0.00  0.00    +0.072 C 
ATOM     11  C   UNL     1      15.415   3.868   0.586  0.00  0.00    +0.184 C 
ATOM     12  C   UNL     1      15.826   5.850   0.193  0.00  0.00    +0.184 C 
BRANCH   6   4
ATOM      4  N   UNL     1      14.926   5.401   2.409  0.00  0.00    -0.306 NA
ATOM     27  H   UNL     1      14.134   5.169   3.007  0.00  0.00    +0.123 HD
BRANCH   4   8
ATOM      8  C   UNL     1      15.312   6.789   2.617  0.00  0.00    +0.085 C 
BRANCH   8   7
ATOM      7  C   UNL     1      15.397   7.113   4.108  0.00  0.00    +0.003 C 
ATOM      9  C   UNL     1      16.447   8.201   4.367  0.00  0.00    +0.005 C 
ATOM     10  C   UNL     1      14.025   7.538   4.648  0.00  0.00    +0.005 C 
ATOM     14  C   UNL     1      16.513   8.580   5.844  0.00  0.00    +0.000 C 
ATOM     15  C   UNL     1      14.094   7.919   6.124  0.00  0.00    +0.000 C 
ATOM     16  C   UNL     1      15.146   8.994   6.381  0.00  0.00    +0.000 C 
ENDBRANCH   8   7
ENDBRANCH   4   8
ENDBRANCH   6   4
ENDBRANCH  13   6
TORSDOF 8
ENDMDL
MODEL 8
REMARK VINA RESULT:      -6.1     14.932     16.825
REMARK  Name = 56775645
REMARK  8 active torsions:
REMARK  status: ('A' for Active; 'I' for Inactive)
REMARK    1  A    between atoms: O_3  and  C_20
REMARK    2  A    between atoms: O_3  and  C_21
REMARK    3  A    between atoms: N_4  and  C_6
REMARK    4  A    between atoms: N_4  and  C_8
REMARK    5  A    between atoms: C_6  and  C_13
REMARK    6  A    between atoms: C_7  and  C_8
REMARK    7  A    between atoms: C_13  and  C_17
REMARK    8  A    between atoms: C_19  and  C_20
REMARK                            x       y       z     vdW  Elec       q    Type
REMARK                         _______ _______ _______ _____ _____    ______ ____
ROOT
ATOM     13  C   UNL     1     -13.764   1.713  31.880  0.00  0.00    +0.085 C 
ENDROOT
BRANCH  13  17
ATOM      2  O   UNL     1     -15.841   4.376  33.163  0.00  0.00    -0.356 OA
ATOM      5  N   UNL     1     -15.593   3.040  32.875  0.00  0.00    -0.083 NA
ATOM     17  C   UNL     1     -14.374   3.025  32.326  0.00  0.00    +0.086 A 
ATOM     18  C   UNL     1     -13.811   4.310  32.243  0.00  0.00    +0.074 A 
ATOM     19  C   UNL     1     -14.773   5.122  32.783  0.00  0.00    +0.175 A 
BRANCH  19  20
ATOM     20  C   UNL     1     -14.868   6.569  33.016  0.00  0.00    +0.306 C 
BRANCH  20   3
ATOM      3  O   UNL     1     -13.965   6.965  34.052  0.00  0.00    -0.484 OA
BRANCH   3  21
ATOM     21  C   UNL     1     -12.975   7.837  33.696  0.00  0.00    +0.121 A 
ATOM     22  C   UNL     1     -12.568   7.925  32.365  0.00  0.00    +0.045 A 
ATOM     23  C   UNL     1     -12.370   8.638  34.664  0.00  0.00    +0.045 A 
ATOM     24  C   UNL     1     -11.557   8.815  32.001  0.00  0.00    +0.004 A 
ATOM     25  C   UNL     1     -11.359   9.529  34.300  0.00  0.00    +0.004 A 
ATOM     26  C   UNL     1     -10.952   9.617  32.970  0.00  0.00    +0.000 A 
ENDBRANCH   3  21
ENDBRANCH  20   3
ENDBRANCH  19  20
ENDBRANCH  13  17
BRANCH  13   6
ATOM      1  O   UNL     1     -14.612  -0.829  29.979  0.00  0.00    -0.376 OA
ATOM      6  C   UNL     1     -14.462   1.187  30.663  0.00  0.00    +0.072 C 
ATOM     11  C   UNL     1     -13.702   0.264  29.717  0.00  0.00    +0.184 C 
ATOM     12  C   UNL     1     -15.431   0.020  30.814  0.00  0.00    +0.184 C 
BRANCH   6   4
ATOM      4  N   UNL     1     -15.110   2.241  29.875  0.00  0.00    -0.306 NA
ATOM     27  H   UNL     1     -15.088   3.169  30.295  0.00  0.00    +0.123 HD
BRANCH   4   8
ATOM      8  C   UNL     1     -16.486   1.859  29.591  0.00  0.00    +0.085 C 
BRANCH   8   7
ATOM      7  C   UNL     1     -16.869   2.228  28.159  0.00  0.00    +0.003 C 
ATOM      9  C   UNL     1     -16.037   3.420  27.666  0.00  0.00    +0.005 C 
ATOM     10  C   UNL     1     -16.703   1.022  27.226  0.00  0.00    +0.005 C 
ATOM     14  C   UNL     1     -16.365   3.774  26.218  0.00  0.00    +0.000 C 
ATOM     15  C   UNL     1     -17.028   1.380  25.778  0.00  0.00    +0.000 C 
ATOM     16  C   UNL     1     -16.207   2.570  25.294  0.00  0.00    +0.000 C 
ENDBRANCH   8   7
ENDBRANCH   4   8
ENDBRANCH   6   4
ENDBRANCH  13   6
TORSDOF 8
ENDMDL
MODEL 9
REMARK VINA RESULT:      -6.1     14.322     16.812
REMARK  Name = 56775645
REMARK  8 active torsions:
REMARK  status: ('A' for Active; 'I' for Inactive)
REMARK    1  A    between atoms: O_3  and  C_20
REMARK    2  A    between atoms: O_3  and  C_21
REMARK    3  A    between atoms: N_4  and  C_6
REMARK    4  A    between atoms: N_4  and  C_8
REMARK    5  A    between atoms: C_6  and  C_13
REMARK    6  A    between atoms: C_7  and  C_8
REMARK    7  A    between atoms: C_13  and  C_17
REMARK    8  A    between atoms: C_19  and  C_20
REMARK                            x       y       z     vdW  Elec       q    Type
REMARK                         _______ _______ _______ _____ _____    ______ ____
ROOT
ATOM     13  C   UNL     1      -5.271 -10.213  16.972  0.00  0.00    +0.085 C 
ENDROOT
BRANCH  13  17
ATOM      2  O   UNL     1      -2.098 -11.252  15.591  0.00  0.00    -0.356 OA
ATOM      5  N   UNL     1      -2.928 -10.925  16.656  0.00  0.00    -0.083 NA
ATOM     17  C   UNL     1      -4.104 -10.623  16.098  0.00  0.00    +0.086 A 
ATOM     18  C   UNL     1      -4.076 -10.741  14.698  0.00  0.00    +0.074 A 
ATOM     19  C   UNL     1      -2.793 -11.139  14.430  0.00  0.00    +0.175 A 
BRANCH  19  20
ATOM     20  C   UNL     1      -2.062 -11.451  13.196  0.00  0.00    +0.306 C 
BRANCH  20   3
ATOM      3  O   UNL     1      -2.043 -10.314  12.329  0.00  0.00    -0.484 OA
BRANCH   3  21
ATOM     21  C   UNL     1      -2.823 -10.389  11.209  0.00  0.00    +0.121 A 
ATOM     22  C   UNL     1      -3.110  -9.234  10.481  0.00  0.00    +0.045 A 
ATOM     23  C   UNL     1      -3.333 -11.619  10.796  0.00  0.00    +0.045 A 
ATOM     24  C   UNL     1      -3.907  -9.311   9.338  0.00  0.00    +0.004 A 
ATOM     25  C   UNL     1      -4.130 -11.695   9.653  0.00  0.00    +0.004 A 
ATOM     26  C   UNL     1      -4.417 -10.542   8.924  0.00  0.00    +0.000 A 
ENDBRANCH   3  21
ENDBRANCH  20   3
ENDBRANCH  19  20
ENDBRANCH  13  17
BRANCH  13   6
ATOM      1  O   UNL     1      -6.683 -11.142  19.789  0.00  0.00    -0.376 OA
ATOM      6  C   UNL     1      -5.610 -11.295  17.951  0.00  0.00    +0.072 C 
ATOM     11  C   UNL     1      -5.284 -11.086  19.425  0.00  0.00    +0.184 C 
ATOM     12  C   UNL     1      -7.052 -11.438  18.424  0.00  0.00    +0.184 C 
BRANCH   6   4
ATOM      4  N   UNL     1      -5.114 -12.614  17.540  0.00  0.00    -0.306 NA
ATOM     27  H   UNL     1      -4.454 -12.604  16.763  0.00  0.00    +0.123 HD
BRANCH   4   8
ATOM      8  C   UNL     1      -6.241 -13.478  17.221  0.00  0.00    +0.085 C 
BRANCH   8   7
ATOM      7  C   UNL     1      -6.091 -14.074  15.823  0.00  0.00    +0.003 C 
ATOM      9  C   UNL     1      -6.777 -13.184  14.777  0.00  0.00    +0.005 C 
ATOM     10  C   UNL     1      -4.610 -14.279  15.478  0.00  0.00    +0.005 C 
ATOM     14  C   UNL     1      -6.595 -13.732  13.364  0.00  0.00    +0.000 C 
ATOM     15  C   UNL     1      -4.430 -14.824  14.063  0.00  0.00    +0.000 C 
ATOM     16  C   UNL     1      -5.121 -13.942  13.028  0.00  0.00    +0.000 C 
ENDBRANCH   8   7
ENDBRANCH   4   8
ENDBRANCH   6   4
ENDBRANCH  13   6
TORSDOF 8
ENDMDL
MODEL 10
REMARK VINA RESULT:      -6.0     14.448     15.987
REMARK  Name = 56775645
REMARK  8 active torsions:
REMARK  status: ('A' for Active; 'I' for Inactive)
REMARK    1  A    between atoms: O_3  and  C_20
REMARK    2  A    between atoms: O_3  and  C_21
REMARK    3  A    between atoms: N_4  and  C_6
REMARK    4  A    between atoms: N_4  and  C_8
REMARK    5  A    between atoms: C_6  and  C_13
REMARK    6  A    between atoms: C_7  and  C_8
REMARK    7  A    between atoms: C_13  and  C_17
REMARK    8  A    between atoms: C_19  and  C_20
REMARK                            x       y       z     vdW  Elec       q    Type
REMARK                         _______ _______ _______ _____ _____    ______ ____
ROOT
ATOM     13  C   UNL     1      -5.639 -12.446  17.399  0.00  0.00    +0.085 C 
ENDROOT
BRANCH  13  17
ATOM      2  O   UNL     1      -2.788 -10.619  16.142  0.00  0.00    -0.356 OA
ATOM      5  N   UNL     1      -3.576 -11.108  17.175  0.00  0.00    -0.083 NA
ATOM     17  C   UNL     1      -4.569 -11.768  16.570  0.00  0.00    +0.086 A 
ATOM     18  C   UNL     1      -4.460 -11.728  15.170  0.00  0.00    +0.074 A 
ATOM     19  C   UNL     1      -3.323 -10.995  14.952  0.00  0.00    +0.175 A 
BRANCH  19  20
ATOM     20  C   UNL     1      -2.610 -10.558  13.746  0.00  0.00    +0.306 C 
BRANCH  20   3
ATOM      3  O   UNL     1      -3.220 -11.116  12.579  0.00  0.00    -0.484 OA
BRANCH   3  21
ATOM     21  C   UNL     1      -3.806 -10.234  11.717  0.00  0.00    +0.121 A 
ATOM     22  C   UNL     1      -3.111  -9.791  10.591  0.00  0.00    +0.045 A 
ATOM     23  C   UNL     1      -5.099  -9.773  11.962  0.00  0.00    +0.045 A 
ATOM     24  C   UNL     1      -3.710  -8.889   9.711  0.00  0.00    +0.004 A 
ATOM     25  C   UNL     1      -5.698  -8.872  11.082  0.00  0.00    +0.004 A 
ATOM     26  C   UNL     1      -5.004  -8.429   9.957  0.00  0.00    +0.000 A 
ENDBRANCH   3  21
ENDBRANCH  20   3
ENDBRANCH  19  20
ENDBRANCH  13  17
BRANCH  13   6
ATOM      1  O   UNL     1      -6.909 -11.828  20.366  0.00  0.00    -0.376 OA
ATOM      6  C   UNL     1      -6.259 -11.481  18.363  0.00  0.00    +0.072 C 
ATOM     11  C   UNL     1      -7.551 -11.871  19.070  0.00  0.00    +0.184 C 
ATOM     12  C   UNL     1      -5.678 -11.364  19.767  0.00  0.00    +0.184 C 
BRANCH   6   4
ATOM      4  N   UNL     1      -6.416 -10.134  17.802  0.00  0.00    -0.306 NA
ATOM     27  H   UNL     1      -5.886  -9.404  18.277  0.00  0.00    +0.123 HD
BRANCH   4   8
ATOM      8  C   UNL     1      -7.828  -9.781  17.775  0.00  0.00    +0.085 C 
BRANCH   8   7
ATOM      7  C   UNL     1      -8.230  -9.250  16.400  0.00  0.00    +0.003 C 
ATOM      9  C   UNL     1      -8.080 -10.343  15.332  0.00  0.00    +0.005 C 
ATOM     10  C   UNL     1      -9.664  -8.706  16.428  0.00  0.00    +0.005 C 
ATOM     14  C   UNL     1      -8.526  -9.852  13.957  0.00  0.00    +0.000 C 
ATOM     15  C   UNL     1     -10.109  -8.219  15.051  0.00  0.00    +0.000 C 
ATOM     16  C   UNL     1      -9.950  -9.303  13.990  0.00  0.00    +0.000 C 
ENDBRANCH   8   7
ENDBRANCH   4   8
ENDBRANCH   6   4
ENDBRANCH  13   6
TORSDOF 8
ENDMDL
