MODEL 1
REMARK VINA RESULT:      -8.0      0.000      0.000
REMARK  Name = 11884020
REMARK  7 active torsions:
REMARK  status: ('A' for Active; 'I' for Inactive)
REMARK    1  A    between atoms: O_3  and  C_13
REMARK    2  A    between atoms: O_3  and  C_17
REMARK    3  A    between atoms: O_7  and  C_27
REMARK    4  A    between atoms: O_7  and  C_28
REMARK    5  A    between atoms: N_8  and  C_12
REMARK    6  A    between atoms: N_9  and  C_20
REMARK    7  A    between atoms: C_16  and  C_18
REMARK                            x       y       z     vdW  Elec       q    Type
REMARK                         _______ _______ _______ _____ _____    ______ ____
ROOT
ATOM      3  O   UNL     1     -16.332   5.389  22.695  0.00  0.00    -0.442 OA
ENDROOT
BRANCH   3  13
ATOM      1  O   UNL     1     -16.797   4.774  25.361  0.00  0.00    -0.368 OA
ATOM      2  O   UNL     1     -17.739   2.294  23.822  0.00  0.00    -0.368 OA
ATOM     10  C   UNL     1     -16.701   2.469  24.809  0.00  0.00    +0.173 C 
ATOM     11  C   UNL     1     -16.077   3.827  24.554  0.00  0.00    +0.192 C 
ATOM     12  C   UNL     1     -17.311   2.604  26.185  0.00  0.00    +0.130 C 
ATOM     13  C   UNL     1     -16.337   4.035  23.082  0.00  0.00    +0.235 C 
ATOM     14  C   UNL     1     -17.707   4.070  26.220  0.00  0.00    +0.185 C 
ATOM     15  C   UNL     1     -17.697   3.397  22.905  0.00  0.00    +0.207 C 
BRANCH  12   8
ATOM      4  O   UNL     1     -17.460   0.434  27.982  0.00  0.00    -0.267 OA
ATOM      8  N   UNL     1     -16.351   2.295  27.217  0.00  0.00    -0.301 N 
ATOM     16  C   UNL     1     -16.497   1.199  28.067  0.00  0.00    +0.280 C 
ATOM     34  H   UNL     1     -15.515   2.868  27.290  0.00  0.00    +0.150 HD
BRANCH  16  18
ATOM      6  O   UNL     1     -15.052  -0.280  29.331  0.00  0.00    -0.458 OA
ATOM     18  C   UNL     1     -15.419   0.997  29.044  0.00  0.00    +0.189 A 
ATOM     19  C   UNL     1     -14.663   1.891  29.767  0.00  0.00    +0.054 A 
ATOM     21  C   UNL     1     -13.776   1.114  30.549  0.00  0.00    +0.042 A 
ATOM     22  C   UNL     1     -14.052  -0.199  30.248  0.00  0.00    +0.196 A 
ENDBRANCH  16  18
ENDBRANCH  12   8
ENDBRANCH   3  13
BRANCH   3  17
ATOM      5  O   UNL     1     -15.549   5.314  20.549  0.00  0.00    -0.226 OA
ATOM      9  N   UNL     1     -14.520   6.634  22.185  0.00  0.00    -0.251 N 
ATOM     17  C   UNL     1     -15.458   5.748  21.690  0.00  0.00    +0.405 C 
ATOM     35  H   UNL     1     -14.609   6.879  23.168  0.00  0.00    +0.158 HD
BRANCH   9  20
ATOM     20  C   UNL     1     -13.450   7.245  21.494  0.00  0.00    +0.037 A 
ATOM     23  C   UNL     1     -13.522   8.595  21.152  0.00  0.00    +0.027 A 
ATOM     24  C   UNL     1     -12.322   6.499  21.155  0.00  0.00    +0.027 A 
ATOM     25  C   UNL     1     -12.464   9.200  20.470  0.00  0.00    +0.048 A 
ATOM     26  C   UNL     1     -11.265   7.102  20.474  0.00  0.00    +0.048 A 
ATOM     27  C   UNL     1     -11.337   8.453  20.131  0.00  0.00    +0.129 A 
BRANCH  27   7
ATOM      7  O   UNL     1     -10.304   9.042  19.468  0.00  0.00    -0.456 OA
BRANCH   7  28
ATOM     28  C   UNL     1     -10.446   9.244  18.105  0.00  0.00    +0.128 A 
ATOM     29  C   UNL     1     -10.470  10.540  17.590  0.00  0.00    +0.046 A 
ATOM     30  C   UNL     1     -10.565   8.150  17.247  0.00  0.00    +0.046 A 
ATOM     31  C   UNL     1     -10.613  10.743  16.218  0.00  0.00    +0.004 A 
ATOM     32  C   UNL     1     -10.708   8.354  15.875  0.00  0.00    +0.004 A 
ATOM     33  C   UNL     1     -10.731   9.650  15.360  0.00  0.00    +0.000 A 
ENDBRANCH   7  28
ENDBRANCH  27   7
ENDBRANCH   9  20
ENDBRANCH   3  17
TORSDOF 7
ENDMDL
MODEL 2
REMARK VINA RESULT:      -7.3     28.139     31.941
REMARK  Name = 11884020
REMARK  7 active torsions:
REMARK  status: ('A' for Active; 'I' for Inactive)
REMARK    1  A    between atoms: O_3  and  C_13
REMARK    2  A    between atoms: O_3  and  C_17
REMARK    3  A    between atoms: O_7  and  C_27
REMARK    4  A    between atoms: O_7  and  C_28
REMARK    5  A    between atoms: N_8  and  C_12
REMARK    6  A    between atoms: N_9  and  C_20
REMARK    7  A    between atoms: C_16  and  C_18
REMARK                            x       y       z     vdW  Elec       q    Type
REMARK                         _______ _______ _______ _____ _____    ______ ____
ROOT
ATOM      3  O   UNL     1      15.690   7.391  19.101  0.00  0.00    -0.442 OA
ENDROOT
BRANCH   3  13
ATOM      1  O   UNL     1      14.171   9.678  19.500  0.00  0.00    -0.368 OA
ATOM      2  O   UNL     1      12.197   7.365  19.894  0.00  0.00    -0.368 OA
ATOM     10  C   UNL     1      12.648   8.400  20.792  0.00  0.00    +0.173 C 
ATOM     11  C   UNL     1      14.114   8.637  20.489  0.00  0.00    +0.192 C 
ATOM     12  C   UNL     1      11.989   9.714  20.443  0.00  0.00    +0.130 C 
ATOM     13  C   UNL     1      14.550   7.307  19.925  0.00  0.00    +0.235 C 
ATOM     14  C   UNL     1      12.853  10.214  19.299  0.00  0.00    +0.185 C 
ATOM     15  C   UNL     1      13.324   6.867  19.157  0.00  0.00    +0.207 C 
BRANCH  12   8
ATOM      4  O   UNL     1      10.318   9.594  22.713  0.00  0.00    -0.267 OA
ATOM      8  N   UNL     1      12.016  10.627  21.560  0.00  0.00    -0.301 N 
ATOM     16  C   UNL     1      11.154  10.499  22.648  0.00  0.00    +0.280 C 
ATOM     34  H   UNL     1      12.723  11.357  21.574  0.00  0.00    +0.150 HD
BRANCH  16  18
ATOM      6  O   UNL     1      12.456  11.417  24.474  0.00  0.00    -0.458 OA
ATOM     18  C   UNL     1      11.326  11.486  23.722  0.00  0.00    +0.189 A 
ATOM     19  C   UNL     1      10.528  12.525  24.144  0.00  0.00    +0.054 A 
ATOM     21  C   UNL     1      11.212  13.133  25.223  0.00  0.00    +0.042 A 
ATOM     22  C   UNL     1      12.379  12.424  25.385  0.00  0.00    +0.196 A 
ENDBRANCH  16  18
ENDBRANCH  12   8
ENDBRANCH   3  13
BRANCH   3  17
ATOM      5  O   UNL     1      16.786   5.407  18.802  0.00  0.00    -0.226 OA
ATOM      9  N   UNL     1      17.575   7.035  20.288  0.00  0.00    -0.251 N 
ATOM     17  C   UNL     1      16.710   6.497  19.354  0.00  0.00    +0.405 C 
ATOM     35  H   UNL     1      17.344   7.963  20.633  0.00  0.00    +0.158 HD
BRANCH   9  20
ATOM     20  C   UNL     1      18.746   6.453  20.826  0.00  0.00    +0.037 A 
ATOM     23  C   UNL     1      19.397   5.432  20.134  0.00  0.00    +0.027 A 
ATOM     24  C   UNL     1      19.251   6.902  22.046  0.00  0.00    +0.027 A 
ATOM     25  C   UNL     1      20.555   4.859  20.663  0.00  0.00    +0.048 A 
ATOM     26  C   UNL     1      20.407   6.329  22.575  0.00  0.00    +0.048 A 
ATOM     27  C   UNL     1      21.059   5.307  21.883  0.00  0.00    +0.129 A 
BRANCH  27   7
ATOM      7  O   UNL     1      22.188   4.749  22.400  0.00  0.00    -0.456 OA
BRANCH   7  28
ATOM     28  C   UNL     1      23.067   4.142  21.519  0.00  0.00    +0.128 A 
ATOM     29  C   UNL     1      23.859   4.921  20.675  0.00  0.00    +0.046 A 
ATOM     30  C   UNL     1      23.160   2.751  21.474  0.00  0.00    +0.046 A 
ATOM     31  C   UNL     1      24.744   4.309  19.787  0.00  0.00    +0.004 A 
ATOM     32  C   UNL     1      24.045   2.139  20.587  0.00  0.00    +0.004 A 
ATOM     33  C   UNL     1      24.838   2.918  19.744  0.00  0.00    +0.000 A 
ENDBRANCH   7  28
ENDBRANCH  27   7
ENDBRANCH   9  20
ENDBRANCH   3  17
TORSDOF 7
ENDMDL
MODEL 3
REMARK VINA RESULT:      -7.2     30.840     34.753
REMARK  Name = 11884020
REMARK  7 active torsions:
REMARK  status: ('A' for Active; 'I' for Inactive)
REMARK    1  A    between atoms: O_3  and  C_13
REMARK    2  A    between atoms: O_3  and  C_17
REMARK    3  A    between atoms: O_7  and  C_27
REMARK    4  A    between atoms: O_7  and  C_28
REMARK    5  A    between atoms: N_8  and  C_12
REMARK    6  A    between atoms: N_9  and  C_20
REMARK    7  A    between atoms: C_16  and  C_18
REMARK                            x       y       z     vdW  Elec       q    Type
REMARK                         _______ _______ _______ _____ _____    ______ ____
ROOT
ATOM      3  O   UNL     1      20.765   8.169  22.809  0.00  0.00    -0.442 OA
ENDROOT
BRANCH   3  13
ATOM      1  O   UNL     1      21.014   5.535  21.971  0.00  0.00    -0.368 OA
ATOM      2  O   UNL     1      22.718   7.139  19.989  0.00  0.00    -0.368 OA
ATOM     10  C   UNL     1      23.067   6.099  20.926  0.00  0.00    +0.173 C 
ATOM     11  C   UNL     1      22.210   6.311  22.158  0.00  0.00    +0.192 C 
ATOM     12  C   UNL     1      22.619   4.755  20.401  0.00  0.00    +0.130 C 
ATOM     13  C   UNL     1      21.927   7.793  22.107  0.00  0.00    +0.235 C 
ATOM     14  C   UNL     1      21.152   4.729  20.790  0.00  0.00    +0.185 C 
ATOM     15  C   UNL     1      21.802   8.044  20.621  0.00  0.00    +0.207 C 
BRANCH  12   8
ATOM      4  O   UNL     1      24.867   3.437  19.320  0.00  0.00    -0.267 OA
ATOM      8  N   UNL     1      23.348   3.678  21.026  0.00  0.00    -0.301 N 
ATOM     16  C   UNL     1      24.453   3.078  20.424  0.00  0.00    +0.280 C 
ATOM     34  H   UNL     1      23.074   3.384  21.960  0.00  0.00    +0.150 HD
BRANCH  16  18
ATOM      6  O   UNL     1      26.386   2.230  21.615  0.00  0.00    -0.458 OA
ATOM     18  C   UNL     1      25.109   2.017  21.201  0.00  0.00    +0.189 A 
ATOM     19  C   UNL     1      24.666   0.783  21.617  0.00  0.00    +0.054 A 
ATOM     21  C   UNL     1      25.738   0.200  22.332  0.00  0.00    +0.042 A 
ATOM     22  C   UNL     1      26.761   1.119  22.303  0.00  0.00    +0.196 A 
ENDBRANCH  16  18
ENDBRANCH  12   8
ENDBRANCH   3  13
BRANCH   3  17
ATOM      5  O   UNL     1      19.487   9.656  21.634  0.00  0.00    -0.226 OA
ATOM      9  N   UNL     1      18.858   7.414  21.870  0.00  0.00    -0.251 N 
ATOM     17  C   UNL     1      19.666   8.520  22.053  0.00  0.00    +0.405 C 
ATOM     35  H   UNL     1      19.177   6.548  22.297  0.00  0.00    +0.158 HD
BRANCH   9  20
ATOM     20  C   UNL     1      17.638   7.335  21.159  0.00  0.00    +0.037 A 
ATOM     23  C   UNL     1      17.490   6.405  20.131  0.00  0.00    +0.027 A 
ATOM     24  C   UNL     1      16.584   8.186  21.488  0.00  0.00    +0.027 A 
ATOM     25  C   UNL     1      16.286   6.326  19.430  0.00  0.00    +0.048 A 
ATOM     26  C   UNL     1      15.380   8.107  20.787  0.00  0.00    +0.048 A 
ATOM     27  C   UNL     1      15.231   7.177  19.758  0.00  0.00    +0.129 A 
BRANCH  27   7
ATOM      7  O   UNL     1      14.056   7.099  19.076  0.00  0.00    -0.456 OA
BRANCH   7  28
ATOM     28  C   UNL     1      12.887   7.339  19.777  0.00  0.00    +0.128 A 
ATOM     29  C   UNL     1      12.084   8.430  19.444  0.00  0.00    +0.046 A 
ATOM     30  C   UNL     1      12.513   6.491  20.820  0.00  0.00    +0.046 A 
ATOM     31  C   UNL     1      10.906   8.672  20.151  0.00  0.00    +0.004 A 
ATOM     32  C   UNL     1      11.335   6.733  21.527  0.00  0.00    +0.004 A 
ATOM     33  C   UNL     1      10.531   7.823  21.192  0.00  0.00    +0.000 A 
ENDBRANCH   7  28
ENDBRANCH  27   7
ENDBRANCH   9  20
ENDBRANCH   3  17
TORSDOF 7
ENDMDL
MODEL 4
REMARK VINA RESULT:      -7.2      3.647      5.704
REMARK  Name = 11884020
REMARK  7 active torsions:
REMARK  status: ('A' for Active; 'I' for Inactive)
REMARK    1  A    between atoms: O_3  and  C_13
REMARK    2  A    between atoms: O_3  and  C_17
REMARK    3  A    between atoms: O_7  and  C_27
REMARK    4  A    between atoms: O_7  and  C_28
REMARK    5  A    between atoms: N_8  and  C_12
REMARK    6  A    between atoms: N_9  and  C_20
REMARK    7  A    between atoms: C_16  and  C_18
REMARK                            x       y       z     vdW  Elec       q    Type
REMARK                         _______ _______ _______ _____ _____    ______ ____
ROOT
ATOM      3  O   UNL     1     -16.661   2.815  27.052  0.00  0.00    -0.442 OA
ENDROOT
BRANCH   3  13
ATOM      1  O   UNL     1     -16.865   4.002  29.552  0.00  0.00    -0.368 OA
ATOM      2  O   UNL     1     -15.085   1.547  30.008  0.00  0.00    -0.368 OA
ATOM     10  C   UNL     1     -14.830   2.957  30.176  0.00  0.00    +0.173 C 
ATOM     11  C   UNL     1     -15.558   3.672  29.055  0.00  0.00    +0.192 C 
ATOM     12  C   UNL     1     -15.508   3.462  31.428  0.00  0.00    +0.130 C 
ATOM     13  C   UNL     1     -15.619   2.615  27.979  0.00  0.00    +0.235 C 
ATOM     14  C   UNL     1     -16.932   3.692  30.953  0.00  0.00    +0.185 C 
ATOM     15  C   UNL     1     -15.810   1.349  28.786  0.00  0.00    +0.207 C 
BRANCH  12   8
ATOM      4  O   UNL     1     -14.544   3.943  34.035  0.00  0.00    -0.267 OA
ATOM      8  N   UNL     1     -14.906   4.688  31.892  0.00  0.00    -0.301 N 
ATOM     16  C   UNL     1     -14.452   4.846  33.202  0.00  0.00    +0.280 C 
ATOM     34  H   UNL     1     -14.763   5.442  31.226  0.00  0.00    +0.150 HD
BRANCH  16  18
ATOM      6  O   UNL     1     -13.668   6.468  34.822  0.00  0.00    -0.458 OA
ATOM     18  C   UNL     1     -13.832   6.141  33.514  0.00  0.00    +0.189 A 
ATOM     19  C   UNL     1     -13.357   7.145  32.702  0.00  0.00    +0.054 A 
ATOM     21  C   UNL     1     -12.870   8.153  33.567  0.00  0.00    +0.042 A 
ATOM     22  C   UNL     1     -13.082   7.695  34.845  0.00  0.00    +0.196 A 
ENDBRANCH  16  18
ENDBRANCH  12   8
ENDBRANCH   3  13
BRANCH   3  17
ATOM      5  O   UNL     1     -16.261   1.954  24.972  0.00  0.00    -0.226 OA
ATOM      9  N   UNL     1     -16.020   4.239  25.423  0.00  0.00    -0.251 N 
ATOM     17  C   UNL     1     -16.303   2.920  25.724  0.00  0.00    +0.405 C 
ATOM     35  H   UNL     1     -16.113   4.904  26.187  0.00  0.00    +0.158 HD
BRANCH   9  20
ATOM     20  C   UNL     1     -15.616   4.781  24.182  0.00  0.00    +0.037 A 
ATOM     23  C   UNL     1     -14.296   4.636  23.756  0.00  0.00    +0.027 A 
ATOM     24  C   UNL     1     -16.537   5.458  23.384  0.00  0.00    +0.027 A 
ATOM     25  C   UNL     1     -13.896   5.170  22.529  0.00  0.00    +0.048 A 
ATOM     26  C   UNL     1     -16.138   5.991  22.158  0.00  0.00    +0.048 A 
ATOM     27  C   UNL     1     -14.817   5.847  21.731  0.00  0.00    +0.129 A 
BRANCH  27   7
ATOM      7  O   UNL     1     -14.429   6.367  20.534  0.00  0.00    -0.456 OA
BRANCH   7  28
ATOM     28  C   UNL     1     -13.447   7.342  20.544  0.00  0.00    +0.128 A 
ATOM     29  C   UNL     1     -13.706   8.588  21.117  0.00  0.00    +0.046 A 
ATOM     30  C   UNL     1     -12.199   7.082  19.979  0.00  0.00    +0.046 A 
ATOM     31  C   UNL     1     -12.717   9.571  21.126  0.00  0.00    +0.004 A 
ATOM     32  C   UNL     1     -11.209   8.065  19.988  0.00  0.00    +0.004 A 
ATOM     33  C   UNL     1     -11.469   9.310  20.562  0.00  0.00    +0.000 A 
ENDBRANCH   7  28
ENDBRANCH  27   7
ENDBRANCH   9  20
ENDBRANCH   3  17
TORSDOF 7
ENDMDL
MODEL 5
REMARK VINA RESULT:      -6.9     18.750     20.560
REMARK  Name = 11884020
REMARK  7 active torsions:
REMARK  status: ('A' for Active; 'I' for Inactive)
REMARK    1  A    between atoms: O_3  and  C_13
REMARK    2  A    between atoms: O_3  and  C_17
REMARK    3  A    between atoms: O_7  and  C_27
REMARK    4  A    between atoms: O_7  and  C_28
REMARK    5  A    between atoms: N_8  and  C_12
REMARK    6  A    between atoms: N_9  and  C_20
REMARK    7  A    between atoms: C_16  and  C_18
REMARK                            x       y       z     vdW  Elec       q    Type
REMARK                         _______ _______ _______ _____ _____    ______ ____
ROOT
ATOM      3  O   UNL     1      -6.398  -9.727   8.406  0.00  0.00    -0.442 OA
ENDROOT
BRANCH   3  13
ATOM      1  O   UNL     1      -5.128 -11.453  10.170  0.00  0.00    -0.368 OA
ATOM      2  O   UNL     1      -3.317  -8.980  10.074  0.00  0.00    -0.368 OA
ATOM     10  C   UNL     1      -4.046  -9.589  11.160  0.00  0.00    +0.173 C 
ATOM     11  C   UNL     1      -5.353 -10.094  10.582  0.00  0.00    +0.192 C 
ATOM     12  C   UNL     1      -3.343 -10.845  11.617  0.00  0.00    +0.130 C 
ATOM     13  C   UNL     1      -5.564  -9.179   9.401  0.00  0.00    +0.235 C 
ATOM     14  C   UNL     1      -3.825 -11.871  10.607  0.00  0.00    +0.185 C 
ATOM     15  C   UNL     1      -4.151  -8.966   8.906  0.00  0.00    +0.207 C 
BRANCH  12   8
ATOM      4  O   UNL     1      -1.957 -10.161  13.978  0.00  0.00    -0.267 OA
ATOM      8  N   UNL     1      -3.732 -11.205  12.959  0.00  0.00    -0.301 N 
ATOM     16  C   UNL     1      -2.990 -10.826  14.077  0.00  0.00    +0.280 C 
ATOM     34  H   UNL     1      -4.605 -11.709  13.093  0.00  0.00    +0.150 HD
BRANCH  16  18
ATOM      6  O   UNL     1      -4.333 -12.339  15.412  0.00  0.00    -0.458 OA
ATOM     18  C   UNL     1      -3.534 -11.240  15.378  0.00  0.00    +0.189 A 
ATOM     19  C   UNL     1      -3.390 -10.709  16.639  0.00  0.00    +0.054 A 
ATOM     21  C   UNL     1      -4.148 -11.535  17.502  0.00  0.00    +0.042 A 
ATOM     22  C   UNL     1      -4.701 -12.511  16.709  0.00  0.00    +0.196 A 
ENDBRANCH  16  18
ENDBRANCH  12   8
ENDBRANCH   3  13
BRANCH   3  17
ATOM      5  O   UNL     1      -7.682  -8.860   6.725  0.00  0.00    -0.226 OA
ATOM      9  N   UNL     1      -7.989  -8.226   8.958  0.00  0.00    -0.251 N 
ATOM     17  C   UNL     1      -7.400  -8.917   7.915  0.00  0.00    +0.405 C 
ATOM     35  H   UNL     1      -7.615  -8.409   9.885  0.00  0.00    +0.158 HD
BRANCH   9  20
ATOM     20  C   UNL     1      -9.050  -7.295   8.895  0.00  0.00    +0.037 A 
ATOM     23  C   UNL     1     -10.331  -7.670   9.300  0.00  0.00    +0.027 A 
ATOM     24  C   UNL     1      -8.816  -6.001   8.429  0.00  0.00    +0.027 A 
ATOM     25  C   UNL     1     -11.379  -6.750   9.239  0.00  0.00    +0.048 A 
ATOM     26  C   UNL     1      -9.863  -5.082   8.369  0.00  0.00    +0.048 A 
ATOM     27  C   UNL     1     -11.145  -5.456   8.774  0.00  0.00    +0.129 A 
BRANCH  27   7
ATOM      7  O   UNL     1     -12.166  -4.558   8.716  0.00  0.00    -0.456 OA
BRANCH   7  28
ATOM     28  C   UNL     1     -12.778  -4.202   9.905  0.00  0.00    +0.128 A 
ATOM     29  C   UNL     1     -12.016  -3.699  10.959  0.00  0.00    +0.046 A 
ATOM     30  C   UNL     1     -14.158  -4.347  10.050  0.00  0.00    +0.046 A 
ATOM     31  C   UNL     1     -12.633  -3.340  12.158  0.00  0.00    +0.004 A 
ATOM     32  C   UNL     1     -14.775  -3.988  11.249  0.00  0.00    +0.004 A 
ATOM     33  C   UNL     1     -14.012  -3.484  12.302  0.00  0.00    +0.000 A 
ENDBRANCH   7  28
ENDBRANCH  27   7
ENDBRANCH   9  20
ENDBRANCH   3  17
TORSDOF 7
ENDMDL
MODEL 6
REMARK VINA RESULT:      -6.8     30.433     34.311
REMARK  Name = 11884020
REMARK  7 active torsions:
REMARK  status: ('A' for Active; 'I' for Inactive)
REMARK    1  A    between atoms: O_3  and  C_13
REMARK    2  A    between atoms: O_3  and  C_17
REMARK    3  A    between atoms: O_7  and  C_27
REMARK    4  A    between atoms: O_7  and  C_28
REMARK    5  A    between atoms: N_8  and  C_12
REMARK    6  A    between atoms: N_9  and  C_20
REMARK    7  A    between atoms: C_16  and  C_18
REMARK                            x       y       z     vdW  Elec       q    Type
REMARK                         _______ _______ _______ _____ _____    ______ ____
ROOT
ATOM      3  O   UNL     1      20.027   8.462  22.775  0.00  0.00    -0.442 OA
ENDROOT
BRANCH   3  13
ATOM      1  O   UNL     1      20.376   5.874  21.835  0.00  0.00    -0.368 OA
ATOM      2  O   UNL     1      22.278   7.574  20.134  0.00  0.00    -0.368 OA
ATOM     10  C   UNL     1      22.528   6.487  21.048  0.00  0.00    +0.173 C 
ATOM     11  C   UNL     1      21.541   6.638  22.189  0.00  0.00    +0.192 C 
ATOM     12  C   UNL     1      22.145   5.173  20.410  0.00  0.00    +0.130 C 
ATOM     13  C   UNL     1      21.260   8.121  22.185  0.00  0.00    +0.235 C 
ATOM     14  C   UNL     1      20.644   5.129  20.636  0.00  0.00    +0.185 C 
ATOM     15  C   UNL     1      21.295   8.448  20.708  0.00  0.00    +0.207 C 
BRANCH  12   8
ATOM      4  O   UNL     1      24.593   4.021  19.612  0.00  0.00    -0.267 OA
ATOM      8  N   UNL     1      22.806   4.064  21.055  0.00  0.00    -0.301 N 
ATOM     16  C   UNL     1      24.019   3.552  20.597  0.00  0.00    +0.280 C 
ATOM     34  H   UNL     1      22.395   3.679  21.901  0.00  0.00    +0.150 HD
BRANCH  16  18
ATOM      6  O   UNL     1      23.796   1.869  22.327  0.00  0.00    -0.458 OA
ATOM     18  C   UNL     1      24.583   2.444  21.380  0.00  0.00    +0.189 A 
ATOM     19  C   UNL     1      25.817   1.837  21.345  0.00  0.00    +0.054 A 
ATOM     21  C   UNL     1      25.786   0.825  22.333  0.00  0.00    +0.042 A 
ATOM     22  C   UNL     1      24.536   0.885  22.902  0.00  0.00    +0.196 A 
ENDBRANCH  16  18
ENDBRANCH  12   8
ENDBRANCH   3  13
BRANCH   3  17
ATOM      5  O   UNL     1      18.826   9.721  21.292  0.00  0.00    -0.226 OA
ATOM      9  N   UNL     1      18.143   7.569  21.911  0.00  0.00    -0.251 N 
ATOM     17  C   UNL     1      18.966   8.680  21.921  0.00  0.00    +0.405 C 
ATOM     35  H   UNL     1      18.428   6.794  22.505  0.00  0.00    +0.158 HD
BRANCH   9  20
ATOM     20  C   UNL     1      16.952   7.376  21.177  0.00  0.00    +0.037 A 
ATOM     23  C   UNL     1      15.779   8.019  21.570  0.00  0.00    +0.027 A 
ATOM     24  C   UNL     1      16.950   6.542  20.059  0.00  0.00    +0.027 A 
ATOM     25  C   UNL     1      14.602   7.829  20.844  0.00  0.00    +0.048 A 
ATOM     26  C   UNL     1      15.774   6.352  19.333  0.00  0.00    +0.048 A 
ATOM     27  C   UNL     1      14.599   6.996  19.726  0.00  0.00    +0.129 A 
BRANCH  27   7
ATOM      7  O   UNL     1      13.453   6.811  19.016  0.00  0.00    -0.456 OA
BRANCH   7  28
ATOM     28  C   UNL     1      13.204   7.670  17.959  0.00  0.00    +0.128 A 
ATOM     29  C   UNL     1      14.212   7.952  17.037  0.00  0.00    +0.046 A 
ATOM     30  C   UNL     1      11.946   8.255  17.816  0.00  0.00    +0.046 A 
ATOM     31  C   UNL     1      13.962   8.817  15.972  0.00  0.00    +0.004 A 
ATOM     32  C   UNL     1      11.695   9.120  16.751  0.00  0.00    +0.004 A 
ATOM     33  C   UNL     1      12.704   9.401  15.829  0.00  0.00    +0.000 A 
ENDBRANCH   7  28
ENDBRANCH  27   7
ENDBRANCH   9  20
ENDBRANCH   3  17
TORSDOF 7
ENDMDL
MODEL 7
REMARK VINA RESULT:      -6.8     31.457     34.825
REMARK  Name = 11884020
REMARK  7 active torsions:
REMARK  status: ('A' for Active; 'I' for Inactive)
REMARK    1  A    between atoms: O_3  and  C_13
REMARK    2  A    between atoms: O_3  and  C_17
REMARK    3  A    between atoms: O_7  and  C_27
REMARK    4  A    between atoms: O_7  and  C_28
REMARK    5  A    between atoms: N_8  and  C_12
REMARK    6  A    between atoms: N_9  and  C_20
REMARK    7  A    between atoms: C_16  and  C_18
REMARK                            x       y       z     vdW  Elec       q    Type
REMARK                         _______ _______ _______ _____ _____    ______ ____
ROOT
ATOM      3  O   UNL     1      22.051   6.017  20.401  0.00  0.00    -0.442 OA
ENDROOT
BRANCH   3  13
ATOM      1  O   UNL     1      22.717   3.350  20.784  0.00  0.00    -0.368 OA
ATOM      2  O   UNL     1      24.771   4.903  22.448  0.00  0.00    -0.368 OA
ATOM     10  C   UNL     1      23.765   3.941  22.827  0.00  0.00    +0.173 C 
ATOM     11  C   UNL     1      22.562   4.191  21.940  0.00  0.00    +0.192 C 
ATOM     12  C   UNL     1      24.210   2.547  22.450  0.00  0.00    +0.130 C 
ATOM     13  C   UNL     1      22.711   5.652  21.592  0.00  0.00    +0.235 C 
ATOM     14  C   UNL     1      23.841   2.478  20.978  0.00  0.00    +0.185 C 
ATOM     15  C   UNL     1      24.211   5.803  21.481  0.00  0.00    +0.207 C 
BRANCH  12   8
ATOM      4  O   UNL     1      24.887   1.679  25.047  0.00  0.00    -0.267 OA
ATOM      8  N   UNL     1      23.507   1.547  23.215  0.00  0.00    -0.301 N 
ATOM     16  C   UNL     1      23.906   1.173  24.498  0.00  0.00    +0.280 C 
ATOM     34  H   UNL     1      22.662   1.140  22.822  0.00  0.00    +0.150 HD
BRANCH  16  18
ATOM      6  O   UNL     1      23.638  -1.029  25.475  0.00  0.00    -0.458 OA
ATOM     18  C   UNL     1      23.068   0.165  25.161  0.00  0.00    +0.189 A 
ATOM     19  C   UNL     1      21.749   0.187  25.551  0.00  0.00    +0.054 A 
ATOM     21  C   UNL     1      21.492  -1.073  26.142  0.00  0.00    +0.042 A 
ATOM     22  C   UNL     1      22.672  -1.775  26.072  0.00  0.00    +0.196 A 
ENDBRANCH  16  18
ENDBRANCH  12   8
ENDBRANCH   3  13
BRANCH   3  17
ATOM      5  O   UNL     1      20.724   7.806  20.916  0.00  0.00    -0.226 OA
ATOM      9  N   UNL     1      19.820   5.780  20.168  0.00  0.00    -0.251 N 
ATOM     17  C   UNL     1      20.831   6.648  20.532  0.00  0.00    +0.405 C 
ATOM     35  H   UNL     1      20.109   4.851  19.872  0.00  0.00    +0.158 HD
BRANCH   9  20
ATOM     20  C   UNL     1      18.427   6.023  20.155  0.00  0.00    +0.037 A 
ATOM     23  C   UNL     1      17.787   6.463  21.313  0.00  0.00    +0.027 A 
ATOM     24  C   UNL     1      17.696   5.824  18.985  0.00  0.00    +0.027 A 
ATOM     25  C   UNL     1      16.412   6.705  21.300  0.00  0.00    +0.048 A 
ATOM     26  C   UNL     1      16.322   6.066  18.972  0.00  0.00    +0.048 A 
ATOM     27  C   UNL     1      15.680   6.506  20.130  0.00  0.00    +0.129 A 
BRANCH  27   7
ATOM      7  O   UNL     1      14.340   6.742  20.117  0.00  0.00    -0.456 OA
BRANCH   7  28
ATOM     28  C   UNL     1      13.869   7.733  19.272  0.00  0.00    +0.128 A 
ATOM     29  C   UNL     1      14.401   9.021  19.342  0.00  0.00    +0.046 A 
ATOM     30  C   UNL     1      12.861   7.444  18.353  0.00  0.00    +0.046 A 
ATOM     31  C   UNL     1      13.927  10.019  18.491  0.00  0.00    +0.004 A 
ATOM     32  C   UNL     1      12.386   8.443  17.502  0.00  0.00    +0.004 A 
ATOM     33  C   UNL     1      12.920   9.730  17.571  0.00  0.00    +0.000 A 
ENDBRANCH   7  28
ENDBRANCH  27   7
ENDBRANCH   9  20
ENDBRANCH   3  17
TORSDOF 7
ENDMDL
MODEL 8
REMARK VINA RESULT:      -6.8     29.886     33.615
REMARK  Name = 11884020
REMARK  7 active torsions:
REMARK  status: ('A' for Active; 'I' for Inactive)
REMARK    1  A    between atoms: O_3  and  C_13
REMARK    2  A    between atoms: O_3  and  C_17
REMARK    3  A    between atoms: O_7  and  C_27
REMARK    4  A    between atoms: O_7  and  C_28
REMARK    5  A    between atoms: N_8  and  C_12
REMARK    6  A    between atoms: N_9  and  C_20
REMARK    7  A    between atoms: C_16  and  C_18
REMARK                            x       y       z     vdW  Elec       q    Type
REMARK                         _______ _______ _______ _____ _____    ______ ____
ROOT
ATOM      3  O   UNL     1      17.934   7.080  20.491  0.00  0.00    -0.442 OA
ENDROOT
BRANCH   3  13
ATOM      1  O   UNL     1      16.088   9.148  20.633  0.00  0.00    -0.368 OA
ATOM      2  O   UNL     1      14.388   6.596  20.636  0.00  0.00    -0.368 OA
ATOM     10  C   UNL     1      14.534   7.647  21.613  0.00  0.00    +0.173 C 
ATOM     11  C   UNL     1      15.989   8.074  21.583  0.00  0.00    +0.192 C 
ATOM     12  C   UNL     1      13.786   8.881  21.164  0.00  0.00    +0.130 C 
ATOM     13  C   UNL     1      16.685   6.828  21.093  0.00  0.00    +0.235 C 
ATOM     14  C   UNL     1      14.770   9.523  20.202  0.00  0.00    +0.185 C 
ATOM     15  C   UNL     1      15.682   6.267  20.110  0.00  0.00    +0.207 C 
BRANCH  12   8
ATOM      4  O   UNL     1      11.316  10.147  21.669  0.00  0.00    -0.267 OA
ATOM      8  N   UNL     1      13.496   9.751  22.278  0.00  0.00    -0.301 N 
ATOM     16  C   UNL     1      12.245  10.340  22.457  0.00  0.00    +0.280 C 
ATOM     34  H   UNL     1      14.216   9.898  22.980  0.00  0.00    +0.150 HD
BRANCH  16  18
ATOM      6  O   UNL     1      10.869  11.234  24.240  0.00  0.00    -0.458 OA
ATOM     18  C   UNL     1      12.095  11.174  23.657  0.00  0.00    +0.189 A 
ATOM     19  C   UNL     1      12.996  11.951  24.348  0.00  0.00    +0.054 A 
ATOM     21  C   UNL     1      12.278  12.524  25.424  0.00  0.00    +0.042 A 
ATOM     22  C   UNL     1      10.990  12.058  25.315  0.00  0.00    +0.196 A 
ENDBRANCH  16  18
ENDBRANCH  12   8
ENDBRANCH   3  13
BRANCH   3  17
ATOM      5  O   UNL     1      19.265   6.811  22.330  0.00  0.00    -0.226 OA
ATOM      9  N   UNL     1      19.827   5.875  20.259  0.00  0.00    -0.251 N 
ATOM     17  C   UNL     1      19.050   6.598  21.143  0.00  0.00    +0.405 C 
ATOM     35  H   UNL     1      19.478   5.808  19.306  0.00  0.00    +0.158 HD
BRANCH   9  20
ATOM     20  C   UNL     1      21.050   5.214  20.514  0.00  0.00    +0.037 A 
ATOM     23  C   UNL     1      21.052   3.862  20.857  0.00  0.00    +0.027 A 
ATOM     24  C   UNL     1      22.253   5.913  20.421  0.00  0.00    +0.027 A 
ATOM     25  C   UNL     1      22.260   3.209  21.108  0.00  0.00    +0.048 A 
ATOM     26  C   UNL     1      23.460   5.260  20.671  0.00  0.00    +0.048 A 
ATOM     27  C   UNL     1      23.463   3.908  21.015  0.00  0.00    +0.129 A 
BRANCH  27   7
ATOM      7  O   UNL     1      24.641   3.271  21.258  0.00  0.00    -0.456 OA
BRANCH   7  28
ATOM     28  C   UNL     1      24.724   2.480  22.391  0.00  0.00    +0.128 A 
ATOM     29  C   UNL     1      24.962   1.110  22.271  0.00  0.00    +0.046 A 
ATOM     30  C   UNL     1      24.567   3.051  23.654  0.00  0.00    +0.046 A 
ATOM     31  C   UNL     1      25.045   0.313  23.413  0.00  0.00    +0.004 A 
ATOM     32  C   UNL     1      24.650   2.254  24.796  0.00  0.00    +0.004 A 
ATOM     33  C   UNL     1      24.889   0.885  24.675  0.00  0.00    +0.000 A 
ENDBRANCH   7  28
ENDBRANCH  27   7
ENDBRANCH   9  20
ENDBRANCH   3  17
TORSDOF 7
ENDMDL
MODEL 9
REMARK VINA RESULT:      -6.7     29.165     31.811
REMARK  Name = 11884020
REMARK  7 active torsions:
REMARK  status: ('A' for Active; 'I' for Inactive)
REMARK    1  A    between atoms: O_3  and  C_13
REMARK    2  A    between atoms: O_3  and  C_17
REMARK    3  A    between atoms: O_7  and  C_27
REMARK    4  A    between atoms: O_7  and  C_28
REMARK    5  A    between atoms: N_8  and  C_12
REMARK    6  A    between atoms: N_9  and  C_20
REMARK    7  A    between atoms: C_16  and  C_18
REMARK                            x       y       z     vdW  Elec       q    Type
REMARK                         _______ _______ _______ _____ _____    ______ ____
ROOT
ATOM      3  O   UNL     1      13.726  12.897  14.632  0.00  0.00    -0.442 OA
ENDROOT
BRANCH   3  13
ATOM      1  O   UNL     1      12.187  11.901  12.549  0.00  0.00    -0.368 OA
ATOM      2  O   UNL     1      13.476  14.438  11.409  0.00  0.00    -0.368 OA
ATOM     10  C   UNL     1      13.579  13.054  11.015  0.00  0.00    +0.173 C 
ATOM     11  C   UNL     1      13.561  12.232  12.288  0.00  0.00    +0.192 C 
ATOM     12  C   UNL     1      12.324  12.626  10.290  0.00  0.00    +0.130 C 
ATOM     13  C   UNL     1      14.105  13.201  13.310  0.00  0.00    +0.235 C 
ATOM     14  C   UNL     1      11.379  12.316  11.437  0.00  0.00    +0.185 C 
ATOM     15  C   UNL     1      13.529  14.518  12.841  0.00  0.00    +0.207 C 
BRANCH  12   8
ATOM      4  O   UNL     1      10.907  11.928   7.953  0.00  0.00    -0.267 OA
ATOM      8  N   UNL     1      12.562  11.459   9.475  0.00  0.00    -0.301 N 
ATOM     16  C   UNL     1      11.815  11.185   8.330  0.00  0.00    +0.280 C 
ATOM     34  H   UNL     1      13.335  10.845   9.719  0.00  0.00    +0.150 HD
BRANCH  16  18
ATOM      6  O   UNL     1      11.286   8.973   7.492  0.00  0.00    -0.458 OA
ATOM     18  C   UNL     1      12.199   9.976   7.588  0.00  0.00    +0.189 A 
ATOM     19  C   UNL     1      13.361   9.636   6.935  0.00  0.00    +0.054 A 
ATOM     21  C   UNL     1      13.149   8.343   6.403  0.00  0.00    +0.042 A 
ATOM     22  C   UNL     1      11.874   7.983   6.768  0.00  0.00    +0.196 A 
ENDBRANCH  16  18
ENDBRANCH  12   8
ENDBRANCH   3  13
BRANCH   3  17
ATOM      5  O   UNL     1      15.603  11.670  15.078  0.00  0.00    -0.226 OA
ATOM      9  N   UNL     1      13.545  11.172  16.076  0.00  0.00    -0.251 N 
ATOM     17  C   UNL     1      14.410  11.875  15.258  0.00  0.00    +0.405 C 
ATOM     35  H   UNL     1      12.582  11.496  16.095  0.00  0.00    +0.158 HD
BRANCH   9  20
ATOM     20  C   UNL     1      13.834  10.055  16.892  0.00  0.00    +0.037 A 
ATOM     23  C   UNL     1      14.033  10.227  18.262  0.00  0.00    +0.027 A 
ATOM     24  C   UNL     1      13.919   8.783  16.329  0.00  0.00    +0.027 A 
ATOM     25  C   UNL     1      14.317   9.124  19.069  0.00  0.00    +0.048 A 
ATOM     26  C   UNL     1      14.203   7.681  17.135  0.00  0.00    +0.048 A 
ATOM     27  C   UNL     1      14.402   7.852  18.506  0.00  0.00    +0.129 A 
BRANCH  27   7
ATOM      7  O   UNL     1      14.678   6.776  19.293  0.00  0.00    -0.456 OA
BRANCH   7  28
ATOM     28  C   UNL     1      15.995   6.573  19.668  0.00  0.00    +0.128 A 
ATOM     29  C   UNL     1      16.473   7.118  20.859  0.00  0.00    +0.046 A 
ATOM     30  C   UNL     1      16.844   5.823  18.854  0.00  0.00    +0.046 A 
ATOM     31  C   UNL     1      17.800   6.914  21.237  0.00  0.00    +0.004 A 
ATOM     32  C   UNL     1      18.172   5.619  19.232  0.00  0.00    +0.004 A 
ATOM     33  C   UNL     1      18.649   6.164  20.424  0.00  0.00    +0.000 A 
ENDBRANCH   7  28
ENDBRANCH  27   7
ENDBRANCH   9  20
ENDBRANCH   3  17
TORSDOF 7
ENDMDL
MODEL 10
REMARK VINA RESULT:      -6.7      6.361      7.657
REMARK  Name = 11884020
REMARK  7 active torsions:
REMARK  status: ('A' for Active; 'I' for Inactive)
REMARK    1  A    between atoms: O_3  and  C_13
REMARK    2  A    between atoms: O_3  and  C_17
REMARK    3  A    between atoms: O_7  and  C_27
REMARK    4  A    between atoms: O_7  and  C_28
REMARK    5  A    between atoms: N_8  and  C_12
REMARK    6  A    between atoms: N_9  and  C_20
REMARK    7  A    between atoms: C_16  and  C_18
REMARK                            x       y       z     vdW  Elec       q    Type
REMARK                         _______ _______ _______ _____ _____    ______ ____
ROOT
ATOM      3  O   UNL     1     -11.082  11.313  28.788  0.00  0.00    -0.442 OA
ENDROOT
BRANCH   3  13
ATOM      1  O   UNL     1     -11.160   9.292  30.689  0.00  0.00    -0.368 OA
ATOM      2  O   UNL     1     -12.970  11.489  31.827  0.00  0.00    -0.368 OA
ATOM     10  C   UNL     1     -13.248  10.127  31.441  0.00  0.00    +0.173 C 
ATOM     11  C   UNL     1     -12.403   9.837  30.216  0.00  0.00    +0.192 C 
ATOM     12  C   UNL     1     -12.714   9.172  32.483  0.00  0.00    +0.130 C 
ATOM     13  C   UNL     1     -12.219  11.208  29.614  0.00  0.00    +0.235 C 
ATOM     14  C   UNL     1     -11.247   9.069  32.105  0.00  0.00    +0.185 C 
ATOM     15  C   UNL     1     -12.114  12.085  30.842  0.00  0.00    +0.207 C 
BRANCH  12   8
ATOM      4  O   UNL     1     -13.160   7.411  34.641  0.00  0.00    -0.267 OA
ATOM      8  N   UNL     1     -13.368   7.889  32.404  0.00  0.00    -0.301 N 
ATOM     16  C   UNL     1     -13.551   7.075  33.521  0.00  0.00    +0.280 C 
ATOM     34  H   UNL     1     -13.753   7.595  31.510  0.00  0.00    +0.150 HD
BRANCH  16  18
ATOM      6  O   UNL     1     -14.051   4.790  34.154  0.00  0.00    -0.458 OA
ATOM     18  C   UNL     1     -14.265   5.813  33.285  0.00  0.00    +0.189 A 
ATOM     19  C   UNL     1     -15.156   5.437  32.307  0.00  0.00    +0.054 A 
ATOM     21  C   UNL     1     -15.513   4.098  32.592  0.00  0.00    +0.042 A 
ATOM     22  C   UNL     1     -14.815   3.751  33.725  0.00  0.00    +0.196 A 
ENDBRANCH  16  18
ENDBRANCH  12   8
ENDBRANCH   3  13
BRANCH   3  17
ATOM      5  O   UNL     1     -10.442   9.749  27.249  0.00  0.00    -0.226 OA
ATOM      9  N   UNL     1     -12.106  11.326  26.778  0.00  0.00    -0.251 N 
ATOM     17  C   UNL     1     -11.149  10.700  27.554  0.00  0.00    +0.405 C 
ATOM     35  H   UNL     1     -12.595  12.106  27.210  0.00  0.00    +0.158 HD
BRANCH   9  20
ATOM     20  C   UNL     1     -12.491  11.016  25.454  0.00  0.00    +0.037 A 
ATOM     23  C   UNL     1     -13.636  10.254  25.222  0.00  0.00    +0.027 A 
ATOM     24  C   UNL     1     -11.728  11.473  24.380  0.00  0.00    +0.027 A 
ATOM     25  C   UNL     1     -14.018   9.949  23.915  0.00  0.00    +0.048 A 
ATOM     26  C   UNL     1     -12.110  11.168  23.074  0.00  0.00    +0.048 A 
ATOM     27  C   UNL     1     -13.255  10.406  22.841  0.00  0.00    +0.129 A 
BRANCH  27   7
ATOM      7  O   UNL     1     -13.627  10.110  21.566  0.00  0.00    -0.456 OA
BRANCH   7  28
ATOM     28  C   UNL     1     -12.870   9.181  20.873  0.00  0.00    +0.128 A 
ATOM     29  C   UNL     1     -12.816   7.858  21.311  0.00  0.00    +0.046 A 
ATOM     30  C   UNL     1     -12.159   9.569  19.736  0.00  0.00    +0.046 A 
ATOM     31  C   UNL     1     -12.052   6.922  20.613  0.00  0.00    +0.004 A 
ATOM     32  C   UNL     1     -11.396   8.633  19.038  0.00  0.00    +0.004 A 
ATOM     33  C   UNL     1     -11.343   7.309  19.476  0.00  0.00    +0.000 A 
ENDBRANCH   7  28
ENDBRANCH  27   7
ENDBRANCH   9  20
ENDBRANCH   3  17
TORSDOF 7
ENDMDL
