MODEL 1
REMARK VINA RESULT:      -7.1      0.000      0.000
REMARK  Name = 40780211
REMARK  7 active torsions:
REMARK  status: ('A' for Active; 'I' for Inactive)
REMARK    1  A    between atoms: N_3  and  C_15
REMARK    2  A    between atoms: N_4  and  C_16
REMARK    3  A    between atoms: N_5  and  C_22
REMARK    4  A    between atoms: N_6  and  C_25
REMARK    5  A    between atoms: C_9  and  C_15
REMARK    6  A    between atoms: C_10  and  C_16
REMARK    7  A    between atoms: C_31  and  C_34
REMARK                            x       y       z     vdW  Elec       q    Type
REMARK                         _______ _______ _______ _____ _____    ______ ____
ROOT
ATOM      2  N   UNL     1     -13.828 -11.871  19.127  0.00  0.00    -0.298 NA
ATOM      8  C   UNL     1     -13.798  -9.271  19.207  0.00  0.00    -0.003 C 
ATOM      9  C   UNL     1     -13.154  -9.791  17.901  0.00  0.00    +0.020 C 
ATOM     10  C   UNL     1     -13.222 -11.407  20.404  0.00  0.00    +0.074 C 
ATOM     11  C   UNL     1     -13.055  -9.872  20.415  0.00  0.00    +0.024 C 
ATOM     12  C   UNL     1     -13.069 -11.332  17.973  0.00  0.00    +0.089 C 
ATOM     13  C   UNL     1     -15.239  -9.814  19.242  0.00  0.00    +0.019 C 
ATOM     14  C   UNL     1     -15.211 -11.341  19.058  0.00  0.00    +0.085 C 
ENDROOT
BRANCH   9  15
ATOM     15  C   UNL     1     -11.794  -9.164  17.609  0.00  0.00    +0.089 C 
BRANCH  15   3
ATOM      3  N   UNL     1     -11.840  -8.357  16.390  0.00  0.00    -0.299 NA
ATOM      5  N   UNL     1     -12.758  -6.258  14.686  0.00  0.00    -0.327 N 
ATOM     17  C   UNL     1     -11.500  -6.960  16.684  0.00  0.00    +0.103 C 
ATOM     18  C   UNL     1     -13.170  -8.429  15.775  0.00  0.00    +0.103 C 
ATOM     19  C   UNL     1     -11.489  -6.116  15.407  0.00  0.00    +0.120 C 
ATOM     20  C   UNL     1     -13.214  -7.636  14.467  0.00  0.00    +0.120 C 
BRANCH   5  22
ATOM     22  C   UNL     1     -13.141  -5.283  13.758  0.00  0.00    +0.030 A 
ATOM     23  C   UNL     1     -12.170  -4.577  13.047  0.00  0.00    +0.023 A 
ATOM     24  C   UNL     1     -14.493  -5.017  13.543  0.00  0.00    +0.023 A 
ATOM     26  C   UNL     1     -12.552  -3.606  12.121  0.00  0.00    +0.002 A 
ATOM     27  C   UNL     1     -14.875  -4.046  12.617  0.00  0.00    +0.002 A 
ATOM     28  C   UNL     1     -13.904  -3.341  11.906  0.00  0.00    +0.000 A 
ENDBRANCH   5  22
ENDBRANCH  15   3
ENDBRANCH   9  15
BRANCH  10  16
ATOM     16  C   UNL     1     -11.907 -12.125  20.722  0.00  0.00    +0.124 C 
BRANCH  16   4
ATOM      1  O   UNL     1      -9.613 -12.718  19.113  0.00  0.00    -0.253 OA
ATOM      4  N   UNL     1     -10.772 -11.252  20.472  0.00  0.00    -0.298 N 
ATOM      6  N   UNL     1      -8.759 -10.590  19.614  0.00  0.00    -0.269 N 
ATOM     21  C   UNL     1      -9.694 -11.627  19.672  0.00  0.00    +0.304 C 
ATOM     35  H   UNL     1     -10.768 -10.334  20.905  0.00  0.00    +0.150 HD
ATOM     36  H   UNL     1      -8.979  -9.746  20.138  0.00  0.00    +0.156 HD
BRANCH   6  25
ATOM     25  C   UNL     1      -7.531 -10.567  18.912  0.00  0.00    +0.036 A 
ATOM     29  C   UNL     1      -6.401 -11.175  19.461  0.00  0.00    +0.042 A 
ATOM     30  C   UNL     1      -7.449  -9.935  17.671  0.00  0.00    +0.023 A 
ATOM     31  C   UNL     1      -5.192 -11.152  18.768  0.00  0.00    +0.054 A 
ATOM     32  C   UNL     1      -6.238  -9.912  16.978  0.00  0.00    +0.003 A 
ATOM     33  C   UNL     1      -5.110 -10.521  17.528  0.00  0.00    +0.019 A 
BRANCH  31  34
ATOM      7  N   UNL     1      -3.095 -12.280  19.787  0.00  0.00    -0.191 NA
ATOM     34  C   UNL     1      -4.034 -11.775  19.330  0.00  0.00    +0.099 C 
ENDBRANCH  31  34
ENDBRANCH   6  25
ENDBRANCH  16   4
ENDBRANCH  10  16
TORSDOF 7
ENDMDL
MODEL 2
REMARK VINA RESULT:      -7.1      5.700      8.428
REMARK  Name = 40780211
REMARK  7 active torsions:
REMARK  status: ('A' for Active; 'I' for Inactive)
REMARK    1  A    between atoms: N_3  and  C_15
REMARK    2  A    between atoms: N_4  and  C_16
REMARK    3  A    between atoms: N_5  and  C_22
REMARK    4  A    between atoms: N_6  and  C_25
REMARK    5  A    between atoms: C_9  and  C_15
REMARK    6  A    between atoms: C_10  and  C_16
REMARK    7  A    between atoms: C_31  and  C_34
REMARK                            x       y       z     vdW  Elec       q    Type
REMARK                         _______ _______ _______ _____ _____    ______ ____
ROOT
ATOM      2  N   UNL     1      -4.837  -9.480  10.464  0.00  0.00    -0.298 NA
ATOM      8  C   UNL     1      -5.621 -11.359   8.845  0.00  0.00    -0.003 C 
ATOM      9  C   UNL     1      -5.713  -9.974   8.167  0.00  0.00    +0.020 C 
ATOM     10  C   UNL     1      -5.871 -10.323  11.123  0.00  0.00    +0.074 C 
ATOM     11  C   UNL     1      -6.461 -11.353  10.135  0.00  0.00    +0.024 C 
ATOM     12  C   UNL     1      -5.375  -8.890   9.215  0.00  0.00    +0.089 C 
ATOM     13  C   UNL     1      -4.150 -11.558   9.260  0.00  0.00    +0.019 C 
ATOM     14  C   UNL     1      -3.694 -10.356  10.106  0.00  0.00    +0.085 C 
ENDROOT
BRANCH   9  15
ATOM     15  C   UNL     1      -7.063  -9.716   7.504  0.00  0.00    +0.089 C 
BRANCH  15   3
ATOM      3  N   UNL     1      -7.728  -8.560   8.104  0.00  0.00    -0.299 NA
ATOM      5  N   UNL     1      -9.810  -6.634   8.442  0.00  0.00    -0.327 N 
ATOM     17  C   UNL     1      -9.018  -8.953   8.687  0.00  0.00    +0.103 C 
ATOM     18  C   UNL     1      -7.933  -7.506   7.104  0.00  0.00    +0.103 C 
ATOM     19  C   UNL     1      -9.699  -7.765   9.369  0.00  0.00    +0.120 C 
ATOM     20  C   UNL     1      -8.577  -6.269   7.733  0.00  0.00    +0.120 C 
BRANCH   5  22
ATOM     22  C   UNL     1     -10.752  -5.628   8.684  0.00  0.00    +0.030 A 
ATOM     23  C   UNL     1     -10.329  -4.334   8.983  0.00  0.00    +0.023 A 
ATOM     24  C   UNL     1     -12.115  -5.920   8.624  0.00  0.00    +0.023 A 
ATOM     26  C   UNL     1     -11.267  -3.331   9.224  0.00  0.00    +0.002 A 
ATOM     27  C   UNL     1     -13.054  -4.917   8.865  0.00  0.00    +0.002 A 
ATOM     28  C   UNL     1     -12.631  -3.622   9.164  0.00  0.00    +0.000 A 
ENDBRANCH   5  22
ENDBRANCH  15   3
ENDBRANCH   9  15
BRANCH  10  16
ATOM     16  C   UNL     1      -6.964  -9.487  11.794  0.00  0.00    +0.124 C 
BRANCH  16   4
ATOM      1  O   UNL     1      -7.097 -11.199  14.086  0.00  0.00    -0.253 OA
ATOM      4  N   UNL     1      -6.589  -9.146  13.156  0.00  0.00    -0.298 N 
ATOM      6  N   UNL     1      -6.256  -9.445  15.399  0.00  0.00    -0.269 N 
ATOM     21  C   UNL     1      -6.687 -10.049  14.214  0.00  0.00    +0.304 C 
ATOM     35  H   UNL     1      -6.244  -8.209  13.340  0.00  0.00    +0.150 HD
ATOM     36  H   UNL     1      -5.947  -8.478  15.333  0.00  0.00    +0.156 HD
BRANCH   6  25
ATOM     25  C   UNL     1      -6.198 -10.015  16.692  0.00  0.00    +0.036 A 
ATOM     29  C   UNL     1      -7.369 -10.191  17.431  0.00  0.00    +0.042 A 
ATOM     30  C   UNL     1      -4.969 -10.401  17.229  0.00  0.00    +0.023 A 
ATOM     31  C   UNL     1      -7.310 -10.753  18.705  0.00  0.00    +0.054 A 
ATOM     32  C   UNL     1      -4.911 -10.964  18.504  0.00  0.00    +0.003 A 
ATOM     33  C   UNL     1      -6.082 -11.140  19.242  0.00  0.00    +0.019 A 
BRANCH  31  34
ATOM      7  N   UNL     1      -9.482 -11.079  20.078  0.00  0.00    -0.191 NA
ATOM     34  C   UNL     1      -8.509 -10.933  19.463  0.00  0.00    +0.099 C 
ENDBRANCH  31  34
ENDBRANCH   6  25
ENDBRANCH  16   4
ENDBRANCH  10  16
TORSDOF 7
ENDMDL
MODEL 3
REMARK VINA RESULT:      -6.9      1.135      1.674
REMARK  Name = 40780211
REMARK  7 active torsions:
REMARK  status: ('A' for Active; 'I' for Inactive)
REMARK    1  A    between atoms: N_3  and  C_15
REMARK    2  A    between atoms: N_4  and  C_16
REMARK    3  A    between atoms: N_5  and  C_22
REMARK    4  A    between atoms: N_6  and  C_25
REMARK    5  A    between atoms: C_9  and  C_15
REMARK    6  A    between atoms: C_10  and  C_16
REMARK    7  A    between atoms: C_31  and  C_34
REMARK                            x       y       z     vdW  Elec       q    Type
REMARK                         _______ _______ _______ _____ _____    ______ ____
ROOT
ATOM      2  N   UNL     1     -13.702 -11.798  19.360  0.00  0.00    -0.298 NA
ATOM      8  C   UNL     1     -13.565  -9.213  19.612  0.00  0.00    -0.003 C 
ATOM      9  C   UNL     1     -13.110  -9.654  18.203  0.00  0.00    +0.020 C 
ATOM     10  C   UNL     1     -12.924 -11.446  20.578  0.00  0.00    +0.074 C 
ATOM     11  C   UNL     1     -12.700  -9.920  20.672  0.00  0.00    +0.024 C 
ATOM     12  C   UNL     1     -13.075 -11.199  18.158  0.00  0.00    +0.089 C 
ATOM     13  C   UNL     1     -15.010  -9.715  19.795  0.00  0.00    +0.019 C 
ATOM     14  C   UNL     1     -15.063 -11.225  19.505  0.00  0.00    +0.085 C 
ENDROOT
BRANCH   9  15
ATOM     15  C   UNL     1     -11.774  -9.047  17.783  0.00  0.00    +0.089 C 
BRANCH  15   3
ATOM      3  N   UNL     1     -11.902  -8.329  16.515  0.00  0.00    -0.299 NA
ATOM      5  N   UNL     1     -12.744  -6.216  14.788  0.00  0.00    -0.327 N 
ATOM     17  C   UNL     1     -11.286  -7.000  16.612  0.00  0.00    +0.103 C 
ATOM     18  C   UNL     1     -13.313  -8.199  16.136  0.00  0.00    +0.103 C 
ATOM     19  C   UNL     1     -11.361  -6.259  15.275  0.00  0.00    +0.120 C 
ATOM     20  C   UNL     1     -13.457  -7.500  14.782  0.00  0.00    +0.120 C 
BRANCH   5  22
ATOM     22  C   UNL     1     -13.118  -5.252  13.845  0.00  0.00    +0.030 A 
ATOM     23  C   UNL     1     -12.140  -4.559  13.132  0.00  0.00    +0.023 A 
ATOM     24  C   UNL     1     -14.468  -4.986  13.616  0.00  0.00    +0.023 A 
ATOM     26  C   UNL     1     -12.513  -3.598  12.191  0.00  0.00    +0.002 A 
ATOM     27  C   UNL     1     -14.840  -4.026  12.676  0.00  0.00    +0.002 A 
ATOM     28  C   UNL     1     -13.863  -3.333  11.962  0.00  0.00    +0.000 A 
ENDBRANCH   5  22
ENDBRANCH  15   3
ENDBRANCH   9  15
BRANCH  10  16
ATOM     16  C   UNL     1     -11.608 -12.221  20.675  0.00  0.00    +0.124 C 
BRANCH  16   4
ATOM      1  O   UNL     1      -9.334 -12.836  19.045  0.00  0.00    -0.253 OA
ATOM      4  N   UNL     1     -10.476 -11.352  20.398  0.00  0.00    -0.298 N 
ATOM      6  N   UNL     1      -8.475 -10.701  19.503  0.00  0.00    -0.269 N 
ATOM     21  C   UNL     1      -9.409 -11.737  19.588  0.00  0.00    +0.304 C 
ATOM     35  H   UNL     1     -10.467 -10.428  20.818  0.00  0.00    +0.150 HD
ATOM     36  H   UNL     1      -8.689  -9.850  20.018  0.00  0.00    +0.156 HD
BRANCH   6  25
ATOM     25  C   UNL     1      -7.256 -10.686  18.785  0.00  0.00    +0.036 A 
ATOM     29  C   UNL     1      -7.250 -10.371  17.426  0.00  0.00    +0.042 A 
ATOM     30  C   UNL     1      -6.060 -10.988  19.437  0.00  0.00    +0.023 A 
ATOM     31  C   UNL     1      -6.049 -10.357  16.719  0.00  0.00    +0.054 A 
ATOM     32  C   UNL     1      -4.858 -10.973  18.729  0.00  0.00    +0.003 A 
ATOM     33  C   UNL     1      -4.853 -10.658  17.370  0.00  0.00    +0.019 A 
BRANCH  31  34
ATOM      7  N   UNL     1      -6.037  -9.773  14.196  0.00  0.00    -0.191 NA
ATOM     34  C   UNL     1      -6.042 -10.034  15.327  0.00  0.00    +0.099 C 
ENDBRANCH  31  34
ENDBRANCH   6  25
ENDBRANCH  16   4
ENDBRANCH  10  16
TORSDOF 7
ENDMDL
MODEL 4
REMARK VINA RESULT:      -6.8      2.875      4.236
REMARK  Name = 40780211
REMARK  7 active torsions:
REMARK  status: ('A' for Active; 'I' for Inactive)
REMARK    1  A    between atoms: N_3  and  C_15
REMARK    2  A    between atoms: N_4  and  C_16
REMARK    3  A    between atoms: N_5  and  C_22
REMARK    4  A    between atoms: N_6  and  C_25
REMARK    5  A    between atoms: C_9  and  C_15
REMARK    6  A    between atoms: C_10  and  C_16
REMARK    7  A    between atoms: C_31  and  C_34
REMARK                            x       y       z     vdW  Elec       q    Type
REMARK                         _______ _______ _______ _____ _____    ______ ____
ROOT
ATOM      2  N   UNL     1      -8.884 -11.851  17.517  0.00  0.00    -0.298 NA
ATOM      8  C   UNL     1     -11.065 -11.257  18.803  0.00  0.00    -0.003 C 
ATOM      9  C   UNL     1     -10.933 -10.407  17.519  0.00  0.00    +0.020 C 
ATOM     10  C   UNL     1      -8.569 -11.541  18.937  0.00  0.00    +0.074 C 
ATOM     11  C   UNL     1      -9.823 -11.041  19.687  0.00  0.00    +0.024 C 
ATOM     12  C   UNL     1      -9.558 -10.697  16.876  0.00  0.00    +0.089 C 
ATOM     13  C   UNL     1     -11.061 -12.734  18.365  0.00  0.00    +0.019 C 
ATOM     14  C   UNL     1      -9.819 -13.002  17.496  0.00  0.00    +0.085 C 
ENDROOT
BRANCH   9  15
ATOM     15  C   UNL     1     -11.139  -8.914  17.761  0.00  0.00    +0.089 C 
BRANCH  15   3
ATOM      3  N   UNL     1     -11.385  -8.209  16.503  0.00  0.00    -0.299 NA
ATOM      5  N   UNL     1     -12.526  -6.208  14.815  0.00  0.00    -0.327 N 
ATOM     17  C   UNL     1     -10.939  -6.814  16.599  0.00  0.00    +0.103 C 
ATOM     18  C   UNL     1     -12.810  -8.256  16.155  0.00  0.00    +0.103 C 
ATOM     19  C   UNL     1     -11.138  -6.080  15.271  0.00  0.00    +0.120 C 
ATOM     20  C   UNL     1     -13.071  -7.572  14.812  0.00  0.00    +0.120 C 
BRANCH   5  22
ATOM     22  C   UNL     1     -13.039  -5.293  13.889  0.00  0.00    +0.030 A 
ATOM     23  C   UNL     1     -14.418  -5.182  13.709  0.00  0.00    +0.023 A 
ATOM     24  C   UNL     1     -12.172  -4.488  13.149  0.00  0.00    +0.023 A 
ATOM     26  C   UNL     1     -14.930  -4.269  12.788  0.00  0.00    +0.002 A 
ATOM     27  C   UNL     1     -12.685  -3.575  12.228  0.00  0.00    +0.002 A 
ATOM     28  C   UNL     1     -14.063  -3.465  12.047  0.00  0.00    +0.000 A 
ENDBRANCH   5  22
ENDBRANCH  15   3
ENDBRANCH   9  15
BRANCH  10  16
ATOM     16  C   UNL     1      -7.397 -10.566  19.076  0.00  0.00    +0.124 C 
BRANCH  16   4
ATOM      1  O   UNL     1      -6.003  -9.411  16.857  0.00  0.00    -0.253 OA
ATOM      4  N   UNL     1      -6.209 -11.094  18.426  0.00  0.00    -0.298 N 
ATOM      6  N   UNL     1      -4.479 -11.194  16.934  0.00  0.00    -0.269 N 
ATOM     21  C   UNL     1      -5.595 -10.460  17.347  0.00  0.00    +0.304 C 
ATOM     35  H   UNL     1      -5.816 -11.963  18.775  0.00  0.00    +0.150 HD
ATOM     36  H   UNL     1      -4.277 -12.048  17.449  0.00  0.00    +0.156 HD
BRANCH   6  25
ATOM     25  C   UNL     1      -3.587 -10.896  15.877  0.00  0.00    +0.036 A 
ATOM     29  C   UNL     1      -4.038 -10.913  14.557  0.00  0.00    +0.042 A 
ATOM     30  C   UNL     1      -2.256 -10.586  16.156  0.00  0.00    +0.023 A 
ATOM     31  C   UNL     1      -3.158 -10.619  13.517  0.00  0.00    +0.054 A 
ATOM     32  C   UNL     1      -1.375 -10.292  15.114  0.00  0.00    +0.003 A 
ATOM     33  C   UNL     1      -1.827 -10.308  13.794  0.00  0.00    +0.019 A 
BRANCH  31  34
ATOM      7  N   UNL     1      -3.994 -10.650  11.065  0.00  0.00    -0.191 NA
ATOM     34  C   UNL     1      -3.620 -10.636  12.164  0.00  0.00    +0.099 C 
ENDBRANCH  31  34
ENDBRANCH   6  25
ENDBRANCH  16   4
ENDBRANCH  10  16
TORSDOF 7
ENDMDL
MODEL 5
REMARK VINA RESULT:      -6.7      4.789      9.993
REMARK  Name = 40780211
REMARK  7 active torsions:
REMARK  status: ('A' for Active; 'I' for Inactive)
REMARK    1  A    between atoms: N_3  and  C_15
REMARK    2  A    between atoms: N_4  and  C_16
REMARK    3  A    between atoms: N_5  and  C_22
REMARK    4  A    between atoms: N_6  and  C_25
REMARK    5  A    between atoms: C_9  and  C_15
REMARK    6  A    between atoms: C_10  and  C_16
REMARK    7  A    between atoms: C_31  and  C_34
REMARK                            x       y       z     vdW  Elec       q    Type
REMARK                         _______ _______ _______ _____ _____    ______ ____
ROOT
ATOM      2  N   UNL     1      -5.667 -10.934   9.684  0.00  0.00    -0.298 NA
ATOM      8  C   UNL     1      -3.668  -9.542  10.597  0.00  0.00    -0.003 C 
ATOM      9  C   UNL     1      -3.327 -11.049  10.574  0.00  0.00    +0.020 C 
ATOM     10  C   UNL     1      -6.126 -10.047  10.787  0.00  0.00    +0.074 C 
ATOM     11  C   UNL     1      -4.933  -9.320  11.447  0.00  0.00    +0.024 C 
ATOM     12  C   UNL     1      -4.592 -11.835  10.162  0.00  0.00    +0.089 C 
ATOM     13  C   UNL     1      -4.014  -9.139   9.151  0.00  0.00    +0.019 C 
ATOM     14  C   UNL     1      -5.108 -10.076   8.610  0.00  0.00    +0.085 C 
ENDROOT
BRANCH   9  15
ATOM     15  C   UNL     1      -2.751 -11.557  11.893  0.00  0.00    +0.089 C 
BRANCH  15   3
ATOM      3  N   UNL     1      -3.737 -11.452  12.968  0.00  0.00    -0.299 NA
ATOM      5  N   UNL     1      -4.764 -11.812  15.609  0.00  0.00    -0.327 N 
ATOM     17  C   UNL     1      -3.196 -10.673  14.089  0.00  0.00    +0.103 C 
ATOM     18  C   UNL     1      -4.137 -12.785  13.434  0.00  0.00    +0.103 C 
ATOM     19  C   UNL     1      -4.237 -10.507  15.198  0.00  0.00    +0.120 C 
ATOM     20  C   UNL     1      -5.210 -12.690  14.519  0.00  0.00    +0.120 C 
BRANCH   5  22
ATOM     22  C   UNL     1      -5.379 -11.950  16.858  0.00  0.00    +0.030 A 
ATOM     23  C   UNL     1      -4.806 -11.363  17.986  0.00  0.00    +0.023 A 
ATOM     24  C   UNL     1      -6.567 -12.672  16.976  0.00  0.00    +0.023 A 
ATOM     26  C   UNL     1      -5.419 -11.499  19.232  0.00  0.00    +0.002 A 
ATOM     27  C   UNL     1      -7.180 -12.808  18.221  0.00  0.00    +0.002 A 
ATOM     28  C   UNL     1      -6.607 -12.221  19.349  0.00  0.00    +0.000 A 
ENDBRANCH   5  22
ENDBRANCH  15   3
ENDBRANCH   9  15
BRANCH  10  16
ATOM     16  C   UNL     1      -6.979 -10.791  11.818  0.00  0.00    +0.124 C 
BRANCH  16   4
ATOM      1  O   UNL     1      -9.173 -11.013  13.645  0.00  0.00    -0.253 OA
ATOM      4  N   UNL     1      -7.232  -9.953  12.978  0.00  0.00    -0.298 N 
ATOM      6  N   UNL     1      -8.311  -9.188  14.843  0.00  0.00    -0.269 N 
ATOM     21  C   UNL     1      -8.331 -10.135  13.816  0.00  0.00    +0.304 C 
ATOM     35  H   UNL     1      -6.578  -9.203  13.180  0.00  0.00    +0.150 HD
ATOM     36  H   UNL     1      -7.538  -8.526  14.840  0.00  0.00    +0.156 HD
BRANCH   6  25
ATOM     25  C   UNL     1      -9.242  -9.030  15.897  0.00  0.00    +0.036 A 
ATOM     29  C   UNL     1      -9.129  -9.807  17.050  0.00  0.00    +0.042 A 
ATOM     30  C   UNL     1     -10.272  -8.096  15.782  0.00  0.00    +0.023 A 
ATOM     31  C   UNL     1     -10.046  -9.650  18.088  0.00  0.00    +0.054 A 
ATOM     32  C   UNL     1     -11.190  -7.939  16.821  0.00  0.00    +0.003 A 
ATOM     33  C   UNL     1     -11.076  -8.717  17.974  0.00  0.00    +0.019 A 
BRANCH  31  34
ATOM      7  N   UNL     1      -9.839 -11.093  20.229  0.00  0.00    -0.191 NA
ATOM     34  C   UNL     1      -9.932 -10.446  19.270  0.00  0.00    +0.099 C 
ENDBRANCH  31  34
ENDBRANCH   6  25
ENDBRANCH  16   4
ENDBRANCH  10  16
TORSDOF 7
ENDMDL
MODEL 6
REMARK VINA RESULT:      -6.6     28.543     31.905
REMARK  Name = 40780211
REMARK  7 active torsions:
REMARK  status: ('A' for Active; 'I' for Inactive)
REMARK    1  A    between atoms: N_3  and  C_15
REMARK    2  A    between atoms: N_4  and  C_16
REMARK    3  A    between atoms: N_5  and  C_22
REMARK    4  A    between atoms: N_6  and  C_25
REMARK    5  A    between atoms: C_9  and  C_15
REMARK    6  A    between atoms: C_10  and  C_16
REMARK    7  A    between atoms: C_31  and  C_34
REMARK                            x       y       z     vdW  Elec       q    Type
REMARK                         _______ _______ _______ _____ _____    ______ ____
ROOT
ATOM      2  N   UNL     1      14.911   6.443   0.451  0.00  0.00    -0.298 NA
ATOM      8  C   UNL     1      14.315   3.923   0.699  0.00  0.00    -0.003 C 
ATOM      9  C   UNL     1      13.255   4.660  -0.150  0.00  0.00    +0.020 C 
ATOM     10  C   UNL     1      14.923   6.056   1.887  0.00  0.00    +0.074 C 
ATOM     11  C   UNL     1      14.428   4.605   2.076  0.00  0.00    +0.024 C 
ATOM     12  C   UNL     1      13.581   6.170  -0.143  0.00  0.00    +0.089 C 
ATOM     13  C   UNL     1      15.668   4.109  -0.013  0.00  0.00    +0.019 C 
ATOM     14  C   UNL     1      15.913   5.608  -0.256  0.00  0.00    +0.085 C 
ENDROOT
BRANCH   9  15
ATOM     15  C   UNL     1      11.823   4.389   0.306  0.00  0.00    +0.089 C 
BRANCH  15   3
ATOM      3  N   UNL     1      10.970   4.043  -0.830  0.00  0.00    -0.299 NA
ATOM      5  N   UNL     1      10.178   3.977  -3.573  0.00  0.00    -0.327 N 
ATOM     17  C   UNL     1      11.707   3.220  -1.796  0.00  0.00    +0.103 C 
ATOM     18  C   UNL     1      10.468   5.255  -1.487  0.00  0.00    +0.103 C 
ATOM     19  C   UNL     1      10.808   2.802  -2.963  0.00  0.00    +0.120 C 
ATOM     20  C   UNL     1       9.527   4.906  -2.641  0.00  0.00    +0.120 C 
BRANCH   5  22
ATOM     22  C   UNL     1       9.680   3.898  -4.878  0.00  0.00    +0.030 A 
ATOM     23  C   UNL     1      10.143   2.905  -5.742  0.00  0.00    +0.023 A 
ATOM     24  C   UNL     1       8.719   4.809  -5.316  0.00  0.00    +0.023 A 
ATOM     26  C   UNL     1       9.646   2.825  -7.043  0.00  0.00    +0.002 A 
ATOM     27  C   UNL     1       8.223   4.729  -6.617  0.00  0.00    +0.002 A 
ATOM     28  C   UNL     1       8.685   3.736  -7.480  0.00  0.00    +0.000 A 
ENDBRANCH   5  22
ENDBRANCH  15   3
ENDBRANCH   9  15
BRANCH  10  16
ATOM     16  C   UNL     1      14.146   7.041   2.764  0.00  0.00    +0.124 C 
BRANCH  16   4
ATOM      1  O   UNL     1      12.488   8.181   4.803  0.00  0.00    -0.253 OA
ATOM      4  N   UNL     1      13.169   6.341   3.582  0.00  0.00    -0.298 N 
ATOM      6  N   UNL     1      11.554   6.061   5.177  0.00  0.00    -0.269 N 
ATOM     21  C   UNL     1      12.403   6.981   4.556  0.00  0.00    +0.304 C 
ATOM     35  H   UNL     1      13.047   5.344   3.437  0.00  0.00    +0.150 HD
ATOM     36  H   UNL     1      11.609   5.098   4.853  0.00  0.00    +0.156 HD
BRANCH   6  25
ATOM     25  C   UNL     1      10.621   6.302   6.212  0.00  0.00    +0.036 A 
ATOM     29  C   UNL     1      10.704   5.587   7.408  0.00  0.00    +0.042 A 
ATOM     30  C   UNL     1       9.617   7.256   6.037  0.00  0.00    +0.023 A 
ATOM     31  C   UNL     1       9.784   5.827   8.428  0.00  0.00    +0.054 A 
ATOM     32  C   UNL     1       8.697   7.495   7.058  0.00  0.00    +0.003 A 
ATOM     33  C   UNL     1       8.781   6.780   8.253  0.00  0.00    +0.019 A 
BRANCH  31  34
ATOM      7  N   UNL     1       9.937   4.500  10.647  0.00  0.00    -0.191 NA
ATOM     34  C   UNL     1       9.868   5.094   9.652  0.00  0.00    +0.099 C 
ENDBRANCH  31  34
ENDBRANCH   6  25
ENDBRANCH  16   4
ENDBRANCH  10  16
TORSDOF 7
ENDMDL
MODEL 7
REMARK VINA RESULT:      -6.6      3.005      4.875
REMARK  Name = 40780211
REMARK  7 active torsions:
REMARK  status: ('A' for Active; 'I' for Inactive)
REMARK    1  A    between atoms: N_3  and  C_15
REMARK    2  A    between atoms: N_4  and  C_16
REMARK    3  A    between atoms: N_5  and  C_22
REMARK    4  A    between atoms: N_6  and  C_25
REMARK    5  A    between atoms: C_9  and  C_15
REMARK    6  A    between atoms: C_10  and  C_16
REMARK    7  A    between atoms: C_31  and  C_34
REMARK                            x       y       z     vdW  Elec       q    Type
REMARK                         _______ _______ _______ _____ _____    ______ ____
ROOT
ATOM      2  N   UNL     1     -12.411  -8.793  14.828  0.00  0.00    -0.298 NA
ATOM      8  C   UNL     1     -13.129  -6.548  15.927  0.00  0.00    -0.003 C 
ATOM      9  C   UNL     1     -13.246  -6.471  14.388  0.00  0.00    +0.020 C 
ATOM     10  C   UNL     1     -11.351  -8.320  15.758  0.00  0.00    +0.074 C 
ATOM     11  C   UNL     1     -11.684  -6.916  16.311  0.00  0.00    +0.024 C 
ATOM     12  C   UNL     1     -12.673  -7.774  13.785  0.00  0.00    +0.089 C 
ATOM     13  C   UNL     1     -14.032  -7.708  16.388  0.00  0.00    +0.019 C 
ATOM     14  C   UNL     1     -13.656  -8.983  15.612  0.00  0.00    +0.085 C 
ENDROOT
BRANCH   9  15
ATOM     15  C   UNL     1     -12.578  -5.233  13.794  0.00  0.00    +0.089 C 
BRANCH  15   3
ATOM      3  N   UNL     1     -13.218  -4.847  12.538  0.00  0.00    -0.299 NA
ATOM      5  N   UNL     1     -14.379  -3.047  10.648  0.00  0.00    -0.327 N 
ATOM     17  C   UNL     1     -12.375  -3.895  11.803  0.00  0.00    +0.103 C 
ATOM     18  C   UNL     1     -14.536  -4.255  12.790  0.00  0.00    +0.103 C 
ATOM     19  C   UNL     1     -13.006  -3.525  10.458  0.00  0.00    +0.120 C 
ATOM     20  C   UNL     1     -15.240  -3.898  11.479  0.00  0.00    +0.120 C 
BRANCH   5  22
ATOM     22  C   UNL     1     -14.985  -2.267   9.657  0.00  0.00    +0.030 A 
ATOM     23  C   UNL     1     -16.075  -1.458   9.976  0.00  0.00    +0.023 A 
ATOM     24  C   UNL     1     -14.497  -2.296   8.351  0.00  0.00    +0.023 A 
ATOM     26  C   UNL     1     -16.679  -0.679   8.989  0.00  0.00    +0.002 A 
ATOM     27  C   UNL     1     -15.101  -1.517   7.363  0.00  0.00    +0.002 A 
ATOM     28  C   UNL     1     -16.191  -0.708   7.682  0.00  0.00    +0.000 A 
ENDBRANCH   5  22
ENDBRANCH  15   3
ENDBRANCH   9  15
BRANCH  10  16
ATOM     16  C   UNL     1      -9.957  -8.367  15.128  0.00  0.00    +0.124 C 
BRANCH  16   4
ATOM      1  O   UNL     1      -7.901 -10.356  15.263  0.00  0.00    -0.253 OA
ATOM      4  N   UNL     1      -8.932  -8.489  16.151  0.00  0.00    -0.298 N 
ATOM      6  N   UNL     1      -7.119  -9.360  17.239  0.00  0.00    -0.269 N 
ATOM     21  C   UNL     1      -7.967  -9.495  16.136  0.00  0.00    +0.304 C 
ATOM     35  H   UNL     1      -8.927  -7.813  16.909  0.00  0.00    +0.150 HD
ATOM     36  H   UNL     1      -7.313  -8.588  17.873  0.00  0.00    +0.156 HD
BRANCH   6  25
ATOM     25  C   UNL     1      -6.016 -10.173  17.591  0.00  0.00    +0.036 A 
ATOM     29  C   UNL     1      -4.855 -10.147  16.819  0.00  0.00    +0.042 A 
ATOM     30  C   UNL     1      -6.091 -11.001  18.712  0.00  0.00    +0.023 A 
ATOM     31  C   UNL     1      -3.768 -10.947  17.167  0.00  0.00    +0.054 A 
ATOM     32  C   UNL     1      -5.003 -11.802  19.060  0.00  0.00    +0.003 A 
ATOM     33  C   UNL     1      -3.842 -11.775  18.287  0.00  0.00    +0.019 A 
BRANCH  31  34
ATOM      7  N   UNL     1      -1.612 -10.900  15.734  0.00  0.00    -0.191 NA
ATOM     34  C   UNL     1      -2.578 -10.921  16.376  0.00  0.00    +0.099 C 
ENDBRANCH  31  34
ENDBRANCH   6  25
ENDBRANCH  16   4
ENDBRANCH  10  16
TORSDOF 7
ENDMDL
MODEL 8
REMARK VINA RESULT:      -6.6     27.481     30.437
REMARK  Name = 40780211
REMARK  7 active torsions:
REMARK  status: ('A' for Active; 'I' for Inactive)
REMARK    1  A    between atoms: N_3  and  C_15
REMARK    2  A    between atoms: N_4  and  C_16
REMARK    3  A    between atoms: N_5  and  C_22
REMARK    4  A    between atoms: N_6  and  C_25
REMARK    5  A    between atoms: C_9  and  C_15
REMARK    6  A    between atoms: C_10  and  C_16
REMARK    7  A    between atoms: C_31  and  C_34
REMARK                            x       y       z     vdW  Elec       q    Type
REMARK                         _______ _______ _______ _____ _____    ______ ____
ROOT
ATOM      2  N   UNL     1       9.203   5.433   6.782  0.00  0.00    -0.298 NA
ATOM      8  C   UNL     1      11.038   7.221   7.233  0.00  0.00    -0.003 C 
ATOM      9  C   UNL     1       9.654   7.884   7.050  0.00  0.00    +0.020 C 
ATOM     10  C   UNL     1      10.338   5.249   5.838  0.00  0.00    +0.074 C 
ATOM     11  C   UNL     1      11.372   6.386   5.983  0.00  0.00    +0.024 C 
ATOM     12  C   UNL     1       8.636   6.795   6.644  0.00  0.00    +0.089 C 
ATOM     13  C   UNL     1      10.911   6.241   8.415  0.00  0.00    +0.019 C 
ATOM     14  C   UNL     1       9.729   5.290   8.162  0.00  0.00    +0.085 C 
ENDROOT
BRANCH   9  15
ATOM     15  C   UNL     1       9.668   9.042   6.055  0.00  0.00    +0.089 C 
BRANCH  15   3
ATOM      3  N   UNL     1       8.750   8.790   4.945  0.00  0.00    -0.299 NA
ATOM      5  N   UNL     1       7.466   9.323   2.450  0.00  0.00    -0.327 N 
ATOM     17  C   UNL     1       9.491   8.656   3.684  0.00  0.00    +0.103 C 
ATOM     18  C   UNL     1       7.766   9.872   4.833  0.00  0.00    +0.103 C 
ATOM     19  C   UNL     1       8.547   8.335   2.523  0.00  0.00    +0.120 C 
ATOM     20  C   UNL     1       6.764   9.591   3.712  0.00  0.00    +0.120 C 
BRANCH   5  22
ATOM     22  C   UNL     1       6.758   9.489   1.255  0.00  0.00    +0.030 A 
ATOM     23  C   UNL     1       5.368   9.602   1.278  0.00  0.00    +0.023 A 
ATOM     24  C   UNL     1       7.442   9.545   0.041  0.00  0.00    +0.023 A 
ATOM     26  C   UNL     1       4.662   9.769   0.086  0.00  0.00    +0.002 A 
ATOM     27  C   UNL     1       6.736   9.711  -1.151  0.00  0.00    +0.002 A 
ATOM     28  C   UNL     1       5.346   9.824  -1.128  0.00  0.00    +0.000 A 
ENDBRANCH   5  22
ENDBRANCH  15   3
ENDBRANCH   9  15
BRANCH  10  16
ATOM     16  C   UNL     1       9.871   5.086   4.389  0.00  0.00    +0.124 C 
BRANCH  16   4
ATOM      1  O   UNL     1      11.712   5.959   2.376  0.00  0.00    -0.253 OA
ATOM      4  N   UNL     1      10.797   4.255   3.639  0.00  0.00    -0.298 N 
ATOM      6  N   UNL     1      12.431   3.739   2.124  0.00  0.00    -0.269 N 
ATOM     21  C   UNL     1      11.662   4.769   2.673  0.00  0.00    +0.304 C 
ATOM     35  H   UNL     1      10.809   3.257   3.828  0.00  0.00    +0.150 HD
ATOM     36  H   UNL     1      12.263   2.802   2.483  0.00  0.00    +0.156 HD
BRANCH   6  25
ATOM     25  C   UNL     1      13.421   3.837   1.119  0.00  0.00    +0.036 A 
ATOM     29  C   UNL     1      13.052   3.856  -0.227  0.00  0.00    +0.042 A 
ATOM     30  C   UNL     1      14.768   3.915   1.474  0.00  0.00    +0.023 A 
ATOM     31  C   UNL     1      14.029   3.954  -1.216  0.00  0.00    +0.054 A 
ATOM     32  C   UNL     1      15.746   4.013   0.483  0.00  0.00    +0.003 A 
ATOM     33  C   UNL     1      15.375   4.032  -0.862  0.00  0.00    +0.019 A 
BRANCH  31  34
ATOM      7  N   UNL     1      13.344   3.989  -3.714  0.00  0.00    -0.191 NA
ATOM     34  C   UNL     1      13.651   3.973  -2.595  0.00  0.00    +0.099 C 
ENDBRANCH  31  34
ENDBRANCH   6  25
ENDBRANCH  16   4
ENDBRANCH  10  16
TORSDOF 7
ENDMDL
MODEL 9
REMARK VINA RESULT:      -6.5      4.080      6.710
REMARK  Name = 40780211
REMARK  7 active torsions:
REMARK  status: ('A' for Active; 'I' for Inactive)
REMARK    1  A    between atoms: N_3  and  C_15
REMARK    2  A    between atoms: N_4  and  C_16
REMARK    3  A    between atoms: N_5  and  C_22
REMARK    4  A    between atoms: N_6  and  C_25
REMARK    5  A    between atoms: C_9  and  C_15
REMARK    6  A    between atoms: C_10  and  C_16
REMARK    7  A    between atoms: C_31  and  C_34
REMARK                            x       y       z     vdW  Elec       q    Type
REMARK                         _______ _______ _______ _____ _____    ______ ____
ROOT
ATOM      2  N   UNL     1      -6.534 -12.665  18.024  0.00  0.00    -0.298 NA
ATOM      8  C   UNL     1      -6.402 -10.087  18.345  0.00  0.00    -0.003 C 
ATOM      9  C   UNL     1      -7.628 -10.474  17.489  0.00  0.00    +0.020 C 
ATOM     10  C   UNL     1      -5.184 -12.172  17.641  0.00  0.00    +0.074 C 
ATOM     11  C   UNL     1      -5.123 -10.629  17.679  0.00  0.00    +0.024 C 
ATOM     12  C   UNL     1      -7.576 -11.993  17.212  0.00  0.00    +0.089 C 
ATOM     13  C   UNL     1      -6.553 -10.810  19.697  0.00  0.00    +0.019 C 
ATOM     14  C   UNL     1      -6.761 -12.314  19.448  0.00  0.00    +0.085 C 
ENDROOT
BRANCH   9  15
ATOM     15  C   UNL     1      -7.740  -9.669  16.197  0.00  0.00    +0.089 C 
BRANCH  15   3
ATOM      3  N   UNL     1      -9.126  -9.283  15.939  0.00  0.00    -0.299 NA
ATOM      5  N   UNL     1     -11.232  -7.605  14.987  0.00  0.00    -0.327 N 
ATOM     17  C   UNL     1      -9.358  -9.127  14.498  0.00  0.00    +0.103 C 
ATOM     18  C   UNL     1      -9.452  -8.033  16.635  0.00  0.00    +0.103 C 
ATOM     19  C   UNL     1     -10.820  -8.779  14.210  0.00  0.00    +0.120 C 
ATOM     20  C   UNL     1     -10.917  -7.649  16.420  0.00  0.00    +0.120 C 
BRANCH   5  22
ATOM     22  C   UNL     1     -12.345  -6.860  14.580  0.00  0.00    +0.030 A 
ATOM     23  C   UNL     1     -13.626  -7.395  14.705  0.00  0.00    +0.023 A 
ATOM     24  C   UNL     1     -12.172  -5.580  14.052  0.00  0.00    +0.023 A 
ATOM     26  C   UNL     1     -14.735  -6.652  14.300  0.00  0.00    +0.002 A 
ATOM     27  C   UNL     1     -13.281  -4.837  13.648  0.00  0.00    +0.002 A 
ATOM     28  C   UNL     1     -14.563  -5.372  13.772  0.00  0.00    +0.000 A 
ENDBRANCH   5  22
ENDBRANCH  15   3
ENDBRANCH   9  15
BRANCH  10  16
ATOM     16  C   UNL     1      -4.722 -12.726  16.291  0.00  0.00    +0.124 C 
BRANCH  16   4
ATOM      1  O   UNL     1      -5.450 -12.420  13.538  0.00  0.00    -0.253 OA
ATOM      4  N   UNL     1      -4.323 -11.649  15.401  0.00  0.00    -0.298 N 
ATOM      6  N   UNL     1      -4.193 -10.439  13.465  0.00  0.00    -0.269 N 
ATOM     21  C   UNL     1      -4.728 -11.580  14.069  0.00  0.00    +0.304 C 
ATOM     35  H   UNL     1      -3.720 -10.919  15.770  0.00  0.00    +0.150 HD
ATOM     36  H   UNL     1      -3.609  -9.844  14.048  0.00  0.00    +0.156 HD
BRANCH   6  25
ATOM     25  C   UNL     1      -4.361 -10.004  12.129  0.00  0.00    +0.036 A 
ATOM     29  C   UNL     1      -5.613  -9.573  11.688  0.00  0.00    +0.042 A 
ATOM     30  C   UNL     1      -3.275 -10.005  11.254  0.00  0.00    +0.023 A 
ATOM     31  C   UNL     1      -5.777  -9.143  10.372  0.00  0.00    +0.054 A 
ATOM     32  C   UNL     1      -3.440  -9.575   9.937  0.00  0.00    +0.003 A 
ATOM     33  C   UNL     1      -4.692  -9.145   9.496  0.00  0.00    +0.019 A 
BRANCH  31  34
ATOM      7  N   UNL     1      -8.100  -8.344   9.551  0.00  0.00    -0.191 NA
ATOM     34  C   UNL     1      -7.059  -8.702   9.919  0.00  0.00    +0.099 C 
ENDBRANCH  31  34
ENDBRANCH   6  25
ENDBRANCH  16   4
ENDBRANCH  10  16
TORSDOF 7
ENDMDL
MODEL 10
REMARK VINA RESULT:      -6.5      1.968      2.740
REMARK  Name = 40780211
REMARK  7 active torsions:
REMARK  status: ('A' for Active; 'I' for Inactive)
REMARK    1  A    between atoms: N_3  and  C_15
REMARK    2  A    between atoms: N_4  and  C_16
REMARK    3  A    between atoms: N_5  and  C_22
REMARK    4  A    between atoms: N_6  and  C_25
REMARK    5  A    between atoms: C_9  and  C_15
REMARK    6  A    between atoms: C_10  and  C_16
REMARK    7  A    between atoms: C_31  and  C_34
REMARK                            x       y       z     vdW  Elec       q    Type
REMARK                         _______ _______ _______ _____ _____    ______ ____
ROOT
ATOM      2  N   UNL     1     -11.127 -12.312  18.935  0.00  0.00    -0.298 NA
ATOM      8  C   UNL     1     -11.207  -9.719  19.116  0.00  0.00    -0.003 C 
ATOM      9  C   UNL     1     -10.953 -10.162  17.658  0.00  0.00    +0.020 C 
ATOM     10  C   UNL     1     -10.196 -11.847  19.997  0.00  0.00    +0.074 C 
ATOM     11  C   UNL     1     -10.111 -10.305  20.026  0.00  0.00    +0.024 C 
ATOM     12  C   UNL     1     -10.772 -11.697  17.634  0.00  0.00    +0.089 C 
ATOM     13  C   UNL     1     -12.544 -10.349  19.550  0.00  0.00    +0.019 C 
ATOM     14  C   UNL     1     -12.495 -11.867  19.299  0.00  0.00    +0.085 C 
ENDROOT
BRANCH   9  15
ATOM     15  C   UNL     1      -9.773  -9.445  17.007  0.00  0.00    +0.089 C 
BRANCH  15   3
ATOM      3  N   UNL     1     -10.232  -8.489  16.001  0.00  0.00    -0.299 NA
ATOM      5  N   UNL     1     -12.049  -6.647  14.791  0.00  0.00    -0.327 N 
ATOM     17  C   UNL     1     -10.476  -7.176  16.611  0.00  0.00    +0.103 C 
ATOM     18  C   UNL     1     -11.455  -8.972  15.351  0.00  0.00    +0.103 C 
ATOM     19  C   UNL     1     -10.902  -6.150  15.559  0.00  0.00    +0.120 C 
ATOM     20  C   UNL     1     -11.914  -8.007  14.256  0.00  0.00    +0.120 C 
BRANCH   5  22
ATOM     22  C   UNL     1     -12.863  -5.744  14.098  0.00  0.00    +0.030 A 
ATOM     23  C   UNL     1     -14.249  -5.898  14.118  0.00  0.00    +0.023 A 
ATOM     24  C   UNL     1     -12.288  -4.689  13.390  0.00  0.00    +0.023 A 
ATOM     26  C   UNL     1     -15.061  -4.998  13.428  0.00  0.00    +0.002 A 
ATOM     27  C   UNL     1     -13.100  -3.789  12.699  0.00  0.00    +0.002 A 
ATOM     28  C   UNL     1     -14.486  -3.942  12.719  0.00  0.00    +0.000 A 
ENDBRANCH   5  22
ENDBRANCH  15   3
ENDBRANCH   9  15
BRANCH  10  16
ATOM     16  C   UNL     1      -8.812 -12.491  19.883  0.00  0.00    +0.124 C 
BRANCH  16   4
ATOM      1  O   UNL     1      -7.345 -12.963  17.468  0.00  0.00    -0.253 OA
ATOM      4  N   UNL     1      -7.873 -11.583  19.245  0.00  0.00    -0.298 N 
ATOM      6  N   UNL     1      -6.371 -10.839  17.689  0.00  0.00    -0.269 N 
ATOM     21  C   UNL     1      -7.201 -11.899  18.064  0.00  0.00    +0.304 C 
ATOM     35  H   UNL     1      -7.700 -10.684  19.683  0.00  0.00    +0.150 HD
ATOM     36  H   UNL     1      -6.367 -10.024  18.297  0.00  0.00    +0.156 HD
BRANCH   6  25
ATOM     25  C   UNL     1      -5.524 -10.758  16.559  0.00  0.00    +0.036 A 
ATOM     29  C   UNL     1      -4.139 -10.718  16.726  0.00  0.00    +0.042 A 
ATOM     30  C   UNL     1      -6.074 -10.719  15.277  0.00  0.00    +0.023 A 
ATOM     31  C   UNL     1      -3.305 -10.640  15.611  0.00  0.00    +0.054 A 
ATOM     32  C   UNL     1      -5.239 -10.640  14.162  0.00  0.00    +0.003 A 
ATOM     33  C   UNL     1      -3.854 -10.600  14.330  0.00  0.00    +0.019 A 
BRANCH  31  34
ATOM      7  N   UNL     1      -0.735 -10.565  15.920  0.00  0.00    -0.191 NA
ATOM     34  C   UNL     1      -1.886 -10.598  15.782  0.00  0.00    +0.099 C 
ENDBRANCH  31  34
ENDBRANCH   6  25
ENDBRANCH  16   4
ENDBRANCH  10  16
TORSDOF 7
ENDMDL
