REMARK  Name = 11879606
REMARK  7 active torsions:
REMARK  status: ('A' for Active; 'I' for Inactive)
REMARK    1  A    between atoms: O_3  and  C_18
REMARK    2  A    between atoms: O_3  and  C_21
REMARK    3  A    between atoms: N_6  and  C_14
REMARK    4  A    between atoms: N_7  and  C_15
REMARK    5  A    between atoms: N_11  and  C_24
REMARK    6  A    between atoms: C_19  and  C_20
REMARK    7  A    between atoms: C_33  and  C_36
REMARK                            x       y       z     vdW  Elec       q    Type
REMARK                         _______ _______ _______ _____ _____    ______ ____
ROOT
ATOM      1  O   UNL     1      -2.196  -3.461   0.219  0.00  0.00    -0.370 OA
ATOM      2  O   UNL     1      -1.759  -1.098  -1.810  0.00  0.00    -0.370 OA
ATOM     12  C   UNL     1      -1.401  -1.309  -0.432  0.00  0.00    +0.176 C 
ATOM     13  C   UNL     1      -2.544  -2.067   0.216  0.00  0.00    +0.171 C 
ATOM     14  C   UNL     1      -0.216  -2.252  -0.346  0.00  0.00    +0.171 C 
ATOM     15  C   UNL     1      -3.722  -1.823  -0.700  0.00  0.00    +0.130 C 
ATOM     16  C   UNL     1      -0.873  -3.627  -0.310  0.00  0.00    +0.190 C 
ATOM     17  C   UNL     1      -3.053  -1.668  -2.053  0.00  0.00    +0.185 C 
ENDROOT
BRANCH  14   6
ATOM      6  N   UNL     1       0.659  -1.952   0.790  0.00  0.00    -0.187 N 
ATOM      8  N   UNL     1       0.185  -1.951   2.039  0.00  0.00    -0.041 NA
ATOM      9  N   UNL     1       2.358  -1.452   2.029  0.00  0.00    -0.071 NA
ATOM     10  N   UNL     1       1.231  -1.645   2.796  0.00  0.00    -0.020 NA
ATOM     18  C   UNL     1       1.978  -1.649   0.787  0.00  0.00    +0.342 A 
BRANCH  18   3
ATOM      3  O   UNL     1       2.735  -1.568  -0.291  0.00  0.00    -0.423 OA
BRANCH   3  21
ATOM     21  C   UNL     1       4.085  -1.251  -0.235  0.00  0.00    +0.134 A 
ATOM     24  C   UNL     1       5.824   0.393  -0.251  0.00  0.00    +0.033 A 
ATOM     25  C   UNL     1       4.467   0.075  -0.309  0.00  0.00    +0.069 A 
ATOM     28  C   UNL     1       5.008  -2.271  -0.105  0.00  0.00    +0.046 A 
ATOM     34  C   UNL     1       6.773  -0.621  -0.120  0.00  0.00    +0.023 A 
ATOM     35  C   UNL     1       6.365  -1.952  -0.047  0.00  0.00    +0.005 A 
BRANCH  24  11
ATOM      5  O   UNL     1       7.191   4.369  -0.233  0.00  0.00    -0.377 OA
ATOM     11  N   UNL     1       6.232   1.729  -0.324  0.00  0.00    -0.325 N 
ATOM     26  C   UNL     1       7.536   2.064  -0.906  0.00  0.00    +0.133 C 
ATOM     27  C   UNL     1       5.750   2.659   0.706  0.00  0.00    +0.133 C 
ATOM     31  C   UNL     1       7.550   3.529  -1.329  0.00  0.00    +0.178 C 
ATOM     32  C   UNL     1       5.858   4.092   0.197  0.00  0.00    +0.178 C 
ENDBRANCH  24  11
ENDBRANCH   3  21
ENDBRANCH  18   3
ENDBRANCH  14   6
BRANCH  15   7
ATOM      4  O   UNL     1      -6.483  -1.234  -1.225  0.00  0.00    -0.270 OA
ATOM      7  N   UNL     1      -4.433  -0.624  -0.329  0.00  0.00    -0.304 N 
ATOM     19  C   UNL     1      -5.774  -0.428  -0.627  0.00  0.00    +0.244 C 
ATOM     37  H   UNL     1      -3.882   0.132   0.064  0.00  0.00    +0.149 HD
BRANCH  19  20
ATOM     20  C   UNL     1      -6.353   0.871  -0.199  0.00  0.00    +0.037 A 
ATOM     22  C   UNL     1      -7.426   1.384  -0.897  0.00  0.00    +0.013 A 
ATOM     23  C   UNL     1      -5.799   1.522   0.883  0.00  0.00    +0.013 A 
ATOM     29  C   UNL     1      -7.971   2.603  -0.494  0.00  0.00    +0.004 A 
ATOM     30  C   UNL     1      -6.343   2.742   1.286  0.00  0.00    +0.004 A 
ATOM     33  C   UNL     1      -7.429   3.282   0.598  0.00  0.00    -0.050 A 
ATOM     36  C   UNL     1      -8.011   4.587   1.028  0.00  0.00    +0.044 C 
ENDBRANCH  19  20
ENDBRANCH  15   7
TORSDOF 6
