MODEL 1
REMARK VINA RESULT:      -8.2      0.000      0.000
REMARK  Name = 28960456
REMARK  9 active torsions:
REMARK  status: ('A' for Active; 'I' for Inactive)
REMARK    1  A    between atoms: O_3  and  C_12
REMARK    2  A    between atoms: O_5  and  C_23
REMARK    3  A    between atoms: O_5  and  C_31
REMARK    4  A    between atoms: O_6  and  C_32
REMARK    5  A    between atoms: O_6  and  C_35
REMARK    6  A    between atoms: N_7  and  C_11
REMARK    7  A    between atoms: N_8  and  C_13
REMARK    8  A    between atoms: N_9  and  C_22
REMARK    9  A    between atoms: N_10  and  C_27
REMARK                            x       y       z     vdW  Elec       q    Type
REMARK                         _______ _______ _______ _____ _____    ______ ____
ROOT
ATOM      1  O   UNL     1      13.063   9.170  18.885  0.00  0.00    -0.342 OA
ATOM      2  O   UNL     1      11.370   7.840  18.020  0.00  0.00    -0.347 OA
ATOM     11  C   UNL     1      11.496   8.160  20.414  0.00  0.00    +0.144 C 
ATOM     12  C   UNL     1      12.403   6.916  20.554  0.00  0.00    +0.159 C 
ATOM     13  C   UNL     1      13.748   7.049  19.807  0.00  0.00    +0.136 C 
ATOM     14  C   UNL     1      11.682   8.812  19.032  0.00  0.00    +0.270 C 
ATOM     15  C   UNL     1      13.653   7.914  18.533  0.00  0.00    +0.170 C 
ATOM     16  C   UNL     1      12.644   7.412  17.517  0.00  0.00    +0.196 C 
ENDROOT
BRANCH  13   8
ATOM      4  O   UNL     1      16.572   6.598  19.660  0.00  0.00    -0.252 OA
ATOM      8  N   UNL     1      14.758   7.590  20.691  0.00  0.00    -0.291 N 
ATOM     10  N   UNL     1      16.852   7.974  21.541  0.00  0.00    -0.269 N 
ATOM     21  C   UNL     1      16.120   7.317  20.547  0.00  0.00    +0.304 C 
ATOM     36  H   UNL     1      14.454   8.129  21.497  0.00  0.00    +0.151 HD
ATOM     38  H   UNL     1      16.321   8.535  22.202  0.00  0.00    +0.156 HD
BRANCH  10  27
ATOM     27  C   UNL     1      18.251   7.956  21.742  0.00  0.00    +0.038 A 
ATOM     29  C   UNL     1      18.872   6.803  22.223  0.00  0.00    +0.069 A 
ATOM     30  C   UNL     1      19.011   9.092  21.461  0.00  0.00    +0.023 A 
ATOM     32  C   UNL     1      20.253   6.786  22.422  0.00  0.00    +0.122 A 
ATOM     33  C   UNL     1      20.392   9.074  21.659  0.00  0.00    +0.005 A 
ATOM     34  C   UNL     1      21.012   7.920  22.140  0.00  0.00    +0.046 A 
BRANCH  32   6
ATOM      6  O   UNL     1      20.859   5.661  22.890  0.00  0.00    -0.495 OA
ATOM     35  C   UNL     1      21.653   4.919  21.965  0.00  0.00    +0.277 C 
ENDBRANCH  32   6
ENDBRANCH  10  27
ENDBRANCH  13   8
BRANCH  11   7
ATOM      7  N   UNL     1      11.805   9.131  21.466  0.00  0.00    -0.290 NA
ATOM      9  N   UNL     1      11.335  11.390  23.148  0.00  0.00    -0.325 N 
ATOM     17  C   UNL     1      11.855  10.489  20.914  0.00  0.00    +0.104 C 
ATOM     18  C   UNL     1      10.804   9.063  22.539  0.00  0.00    +0.104 C 
ATOM     19  C   UNL     1      12.234  11.507  21.992  0.00  0.00    +0.120 C 
ATOM     20  C   UNL     1      11.147  10.034  23.672  0.00  0.00    +0.120 C 
BRANCH   9  22
ATOM     22  C   UNL     1      11.227  12.488  24.009  0.00  0.00    +0.072 A 
ATOM     23  C   UNL     1      12.026  12.578  25.148  0.00  0.00    +0.141 A 
ATOM     24  C   UNL     1      10.309  13.498  23.719  0.00  0.00    +0.027 A 
ATOM     25  C   UNL     1      11.908  13.678  25.998  0.00  0.00    +0.047 A 
ATOM     26  C   UNL     1      10.190  14.598  24.569  0.00  0.00    +0.002 A 
ATOM     28  C   UNL     1      10.990  14.688  25.709  0.00  0.00    +0.004 A 
BRANCH  23   5
ATOM      5  O   UNL     1      12.929  11.603  25.449  0.00  0.00    -0.493 OA
ATOM     31  C   UNL     1      14.303  11.895  25.204  0.00  0.00    +0.277 C 
ENDBRANCH  23   5
ENDBRANCH   9  22
ENDBRANCH  11   7
BRANCH  12   3
ATOM      3  O   UNL     1      11.690   5.792  20.021  0.00  0.00    -0.388 OA
ATOM     37  H   UNL     1      11.836   5.781  19.059  0.00  0.00    +0.210 HD
ENDBRANCH  12   3
TORSDOF 7
ENDMDL
MODEL 2
REMARK VINA RESULT:      -7.8      1.405      2.194
REMARK  Name = 28960456
REMARK  9 active torsions:
REMARK  status: ('A' for Active; 'I' for Inactive)
REMARK    1  A    between atoms: O_3  and  C_12
REMARK    2  A    between atoms: O_5  and  C_23
REMARK    3  A    between atoms: O_5  and  C_31
REMARK    4  A    between atoms: O_6  and  C_32
REMARK    5  A    between atoms: O_6  and  C_35
REMARK    6  A    between atoms: N_7  and  C_11
REMARK    7  A    between atoms: N_8  and  C_13
REMARK    8  A    between atoms: N_9  and  C_22
REMARK    9  A    between atoms: N_10  and  C_27
REMARK                            x       y       z     vdW  Elec       q    Type
REMARK                         _______ _______ _______ _____ _____    ______ ____
ROOT
ATOM      1  O   UNL     1      13.083   9.408  17.982  0.00  0.00    -0.342 OA
ATOM      2  O   UNL     1      11.094   8.213  17.943  0.00  0.00    -0.347 OA
ATOM     11  C   UNL     1      12.180   8.606  20.069  0.00  0.00    +0.144 C 
ATOM     12  C   UNL     1      12.976   7.288  19.929  0.00  0.00    +0.159 C 
ATOM     13  C   UNL     1      13.922   7.267  18.709  0.00  0.00    +0.136 C 
ATOM     14  C   UNL     1      11.850   9.187  18.682  0.00  0.00    +0.270 C 
ATOM     15  C   UNL     1      13.393   8.090  17.516  0.00  0.00    +0.170 C 
ATOM     16  C   UNL     1      12.031   7.649  17.014  0.00  0.00    +0.196 C 
ENDROOT
BRANCH  13   8
ATOM      4  O   UNL     1      15.832   5.898  20.345  0.00  0.00    -0.252 OA
ATOM      8  N   UNL     1      15.235   7.742  19.087  0.00  0.00    -0.291 N 
ATOM     10  N   UNL     1      17.296   7.715  20.090  0.00  0.00    -0.269 N 
ATOM     21  C   UNL     1      16.107   7.006  19.893  0.00  0.00    +0.304 C 
ATOM     36  H   UNL     1      15.502   8.685  18.819  0.00  0.00    +0.151 HD
ATOM     38  H   UNL     1      17.363   8.625  19.642  0.00  0.00    +0.156 HD
BRANCH  10  27
ATOM     27  C   UNL     1      18.427   7.320  20.840  0.00  0.00    +0.038 A 
ATOM     29  C   UNL     1      19.165   6.200  20.452  0.00  0.00    +0.069 A 
ATOM     30  C   UNL     1      18.806   8.047  21.969  0.00  0.00    +0.023 A 
ATOM     32  C   UNL     1      20.281   5.810  21.192  0.00  0.00    +0.122 A 
ATOM     33  C   UNL     1      19.923   7.657  22.708  0.00  0.00    +0.005 A 
ATOM     34  C   UNL     1      20.660   6.539  22.319  0.00  0.00    +0.046 A 
BRANCH  32   6
ATOM      6  O   UNL     1      21.002   4.720  20.814  0.00  0.00    -0.495 OA
ATOM     35  C   UNL     1      21.921   4.187  21.767  0.00  0.00    +0.277 C 
ENDBRANCH  32   6
ENDBRANCH  10  27
ENDBRANCH  13   8
BRANCH  11   7
ATOM      7  N   UNL     1      12.949   9.580  20.845  0.00  0.00    -0.290 NA
ATOM      9  N   UNL     1      13.672  11.075  23.168  0.00  0.00    -0.325 N 
ATOM     17  C   UNL     1      12.074  10.648  21.341  0.00  0.00    +0.104 C 
ATOM     18  C   UNL     1      13.624   8.923  21.971  0.00  0.00    +0.104 C 
ATOM     19  C   UNL     1      12.876  11.704  22.107  0.00  0.00    +0.120 C 
ATOM     20  C   UNL     1      14.478   9.920  22.759  0.00  0.00    +0.120 C 
BRANCH   9  22
ATOM     22  C   UNL     1      14.101  11.879  24.231  0.00  0.00    +0.072 A 
ATOM     23  C   UNL     1      13.251  12.151  25.302  0.00  0.00    +0.141 A 
ATOM     24  C   UNL     1      15.391  12.409  24.212  0.00  0.00    +0.027 A 
ATOM     25  C   UNL     1      13.691  12.953  26.355  0.00  0.00    +0.047 A 
ATOM     26  C   UNL     1      15.832  13.211  25.265  0.00  0.00    +0.002 A 
ATOM     28  C   UNL     1      14.981  13.483  26.337  0.00  0.00    +0.004 A 
BRANCH  23   5
ATOM      5  O   UNL     1      11.987  11.643  25.341  0.00  0.00    -0.493 OA
ATOM     31  C   UNL     1      10.914  12.579  25.424  0.00  0.00    +0.277 C 
ENDBRANCH  23   5
ENDBRANCH   9  22
ENDBRANCH  11   7
BRANCH  12   3
ATOM      3  O   UNL     1      12.031   6.218  19.798  0.00  0.00    -0.388 OA
ATOM     37  H   UNL     1      12.417   5.431  20.219  0.00  0.00    +0.210 HD
ENDBRANCH  12   3
TORSDOF 7
ENDMDL
MODEL 3
REMARK VINA RESULT:      -7.7      1.508      2.336
REMARK  Name = 28960456
REMARK  9 active torsions:
REMARK  status: ('A' for Active; 'I' for Inactive)
REMARK    1  A    between atoms: O_3  and  C_12
REMARK    2  A    between atoms: O_5  and  C_23
REMARK    3  A    between atoms: O_5  and  C_31
REMARK    4  A    between atoms: O_6  and  C_32
REMARK    5  A    between atoms: O_6  and  C_35
REMARK    6  A    between atoms: N_7  and  C_11
REMARK    7  A    between atoms: N_8  and  C_13
REMARK    8  A    between atoms: N_9  and  C_22
REMARK    9  A    between atoms: N_10  and  C_27
REMARK                            x       y       z     vdW  Elec       q    Type
REMARK                         _______ _______ _______ _____ _____    ______ ____
ROOT
ATOM      1  O   UNL     1      13.086   9.170  18.925  0.00  0.00    -0.342 OA
ATOM      2  O   UNL     1      11.443   7.772  18.070  0.00  0.00    -0.347 OA
ATOM     11  C   UNL     1      11.489   8.202  20.450  0.00  0.00    +0.144 C 
ATOM     12  C   UNL     1      12.413   6.982  20.673  0.00  0.00    +0.159 C 
ATOM     13  C   UNL     1      13.778   7.106  19.963  0.00  0.00    +0.136 C 
ATOM     14  C   UNL     1      11.707   8.794  19.045  0.00  0.00    +0.270 C 
ATOM     15  C   UNL     1      13.707   7.911  18.648  0.00  0.00    +0.170 C 
ATOM     16  C   UNL     1      12.739   7.345  17.626  0.00  0.00    +0.196 C 
ENDROOT
BRANCH  13   8
ATOM      4  O   UNL     1      16.624   7.092  19.646  0.00  0.00    -0.252 OA
ATOM      8  N   UNL     1      14.750   7.705  20.852  0.00  0.00    -0.291 N 
ATOM     10  N   UNL     1      16.814   8.312  21.642  0.00  0.00    -0.269 N 
ATOM     21  C   UNL     1      16.126   7.651  20.620  0.00  0.00    +0.304 C 
ATOM     36  H   UNL     1      14.420   8.116  21.720  0.00  0.00    +0.151 HD
ATOM     38  H   UNL     1      16.248   8.724  22.380  0.00  0.00    +0.156 HD
BRANCH  10  27
ATOM     27  C   UNL     1      18.211   8.482  21.779  0.00  0.00    +0.038 A 
ATOM     29  C   UNL     1      18.771   9.758  21.687  0.00  0.00    +0.069 A 
ATOM     30  C   UNL     1      19.030   7.376  22.006  0.00  0.00    +0.023 A 
ATOM     32  C   UNL     1      20.148   9.925  21.823  0.00  0.00    +0.122 A 
ATOM     33  C   UNL     1      20.408   7.545  22.141  0.00  0.00    +0.005 A 
ATOM     34  C   UNL     1      20.967   8.820  22.050  0.00  0.00    +0.046 A 
BRANCH  32   6
ATOM      6  O   UNL     1      20.695  11.168  21.734  0.00  0.00    -0.495 OA
ATOM     35  C   UNL     1      22.112  11.245  21.585  0.00  0.00    +0.277 C 
ENDBRANCH  32   6
ENDBRANCH  10  27
ENDBRANCH  13   8
BRANCH  11   7
ATOM      7  N   UNL     1      11.748   9.224  21.465  0.00  0.00    -0.290 NA
ATOM      9  N   UNL     1      11.217  11.583  22.985  0.00  0.00    -0.325 N 
ATOM     17  C   UNL     1      11.864  10.548  20.844  0.00  0.00    +0.104 C 
ATOM     18  C   UNL     1      10.678   9.235  22.470  0.00  0.00    +0.104 C 
ATOM     19  C   UNL     1      12.192  11.618  21.888  0.00  0.00    +0.120 C 
ATOM     20  C   UNL     1      10.966  10.261  23.569  0.00  0.00    +0.120 C 
BRANCH   9  22
ATOM     22  C   UNL     1      11.075  12.729  23.776  0.00  0.00    +0.072 A 
ATOM     23  C   UNL     1      10.400  13.847  23.289  0.00  0.00    +0.141 A 
ATOM     24  C   UNL     1      11.616  12.746  25.061  0.00  0.00    +0.027 A 
ATOM     25  C   UNL     1      10.265  14.983  24.086  0.00  0.00    +0.047 A 
ATOM     26  C   UNL     1      11.483  13.882  25.860  0.00  0.00    +0.002 A 
ATOM     28  C   UNL     1      10.806  15.001  25.372  0.00  0.00    +0.004 A 
BRANCH  23   5
ATOM      5  O   UNL     1       9.862  13.851  22.036  0.00  0.00    -0.493 OA
ATOM     31  C   UNL     1      10.279  14.893  21.155  0.00  0.00    +0.277 C 
ENDBRANCH  23   5
ENDBRANCH   9  22
ENDBRANCH  11   7
BRANCH  12   3
ATOM      3  O   UNL     1      11.735   5.823  20.170  0.00  0.00    -0.388 OA
ATOM     37  H   UNL     1      11.392   5.328  20.934  0.00  0.00    +0.210 HD
ENDBRANCH  12   3
TORSDOF 7
ENDMDL
MODEL 4
REMARK VINA RESULT:      -7.6      3.806      6.773
REMARK  Name = 28960456
REMARK  9 active torsions:
REMARK  status: ('A' for Active; 'I' for Inactive)
REMARK    1  A    between atoms: O_3  and  C_12
REMARK    2  A    between atoms: O_5  and  C_23
REMARK    3  A    between atoms: O_5  and  C_31
REMARK    4  A    between atoms: O_6  and  C_32
REMARK    5  A    between atoms: O_6  and  C_35
REMARK    6  A    between atoms: N_7  and  C_11
REMARK    7  A    between atoms: N_8  and  C_13
REMARK    8  A    between atoms: N_9  and  C_22
REMARK    9  A    between atoms: N_10  and  C_27
REMARK                            x       y       z     vdW  Elec       q    Type
REMARK                         _______ _______ _______ _____ _____    ______ ____
ROOT
ATOM      1  O   UNL     1      12.951   6.989  19.041  0.00  0.00    -0.342 OA
ATOM      2  O   UNL     1      10.998   7.703  20.070  0.00  0.00    -0.347 OA
ATOM     11  C   UNL     1      12.575   9.359  19.281  0.00  0.00    +0.144 C 
ATOM     12  C   UNL     1      13.295   9.354  20.649  0.00  0.00    +0.159 C 
ATOM     13  C   UNL     1      13.914   7.987  21.014  0.00  0.00    +0.136 C 
ATOM     14  C   UNL     1      11.924   7.990  19.009  0.00  0.00    +0.270 C 
ATOM     15  C   UNL     1      13.120   6.791  20.448  0.00  0.00    +0.170 C 
ATOM     16  C   UNL     1      11.671   6.741  20.895  0.00  0.00    +0.196 C 
ENDROOT
BRANCH  13   8
ATOM      4  O   UNL     1      15.950   6.210  21.960  0.00  0.00    -0.252 OA
ATOM      8  N   UNL     1      15.286   7.923  20.559  0.00  0.00    -0.291 N 
ATOM     10  N   UNL     1      17.455   7.191  20.449  0.00  0.00    -0.269 N 
ATOM     21  C   UNL     1      16.217   7.021  21.078  0.00  0.00    +0.304 C 
ATOM     36  H   UNL     1      15.603   8.617  19.888  0.00  0.00    +0.151 HD
ATOM     38  H   UNL     1      17.507   7.911  19.734  0.00  0.00    +0.156 HD
BRANCH  10  27
ATOM     27  C   UNL     1      18.652   6.478  20.685  0.00  0.00    +0.038 A 
ATOM     29  C   UNL     1      19.482   6.839  21.748  0.00  0.00    +0.069 A 
ATOM     30  C   UNL     1      19.006   5.413  19.856  0.00  0.00    +0.023 A 
ATOM     32  C   UNL     1      20.663   6.135  21.981  0.00  0.00    +0.122 A 
ATOM     33  C   UNL     1      20.188   4.709  20.090  0.00  0.00    +0.005 A 
ATOM     34  C   UNL     1      21.016   5.071  21.153  0.00  0.00    +0.046 A 
BRANCH  32   6
ATOM      6  O   UNL     1      21.472   6.487  23.017  0.00  0.00    -0.495 OA
ATOM     35  C   UNL     1      20.847   7.074  24.158  0.00  0.00    +0.277 C 
ENDBRANCH  32   6
ENDBRANCH  10  27
ENDBRANCH  13   8
BRANCH  11   7
ATOM      7  N   UNL     1      13.523   9.679  18.213  0.00  0.00    -0.290 NA
ATOM      9  N   UNL     1      14.429  10.968  15.831  0.00  0.00    -0.325 N 
ATOM     17  C   UNL     1      12.976   9.293  16.907  0.00  0.00    +0.104 C 
ATOM     18  C   UNL     1      13.840  11.112  18.218  0.00  0.00    +0.104 C 
ATOM     19  C   UNL     1      13.981   9.569  15.787  0.00  0.00    +0.120 C 
ATOM     20  C   UNL     1      14.874  11.451  17.142  0.00  0.00    +0.120 C 
BRANCH   9  22
ATOM     22  C   UNL     1      14.973  11.520  14.666  0.00  0.00    +0.072 A 
ATOM     23  C   UNL     1      14.144  11.935  13.624  0.00  0.00    +0.141 A 
ATOM     24  C   UNL     1      16.356  11.654  14.552  0.00  0.00    +0.027 A 
ATOM     25  C   UNL     1      14.699  12.484  12.468  0.00  0.00    +0.047 A 
ATOM     26  C   UNL     1      16.912  12.203  13.396  0.00  0.00    +0.002 A 
ATOM     28  C   UNL     1      16.083  12.618  12.354  0.00  0.00    +0.004 A 
BRANCH  23   5
ATOM      5  O   UNL     1      12.790  11.814  13.714  0.00  0.00    -0.493 OA
ATOM     31  C   UNL     1      12.024  12.230  12.585  0.00  0.00    +0.277 C 
ENDBRANCH  23   5
ENDBRANCH   9  22
ENDBRANCH  11   7
BRANCH  12   3
ATOM      3  O   UNL     1      12.332   9.706  21.652  0.00  0.00    -0.388 OA
ATOM     37  H   UNL     1      12.717   9.487  22.518  0.00  0.00    +0.210 HD
ENDBRANCH  12   3
TORSDOF 7
ENDMDL
MODEL 5
REMARK VINA RESULT:      -7.4     26.849     29.636
REMARK  Name = 28960456
REMARK  9 active torsions:
REMARK  status: ('A' for Active; 'I' for Inactive)
REMARK    1  A    between atoms: O_3  and  C_12
REMARK    2  A    between atoms: O_5  and  C_23
REMARK    3  A    between atoms: O_5  and  C_31
REMARK    4  A    between atoms: O_6  and  C_32
REMARK    5  A    between atoms: O_6  and  C_35
REMARK    6  A    between atoms: N_7  and  C_11
REMARK    7  A    between atoms: N_8  and  C_13
REMARK    8  A    between atoms: N_9  and  C_22
REMARK    9  A    between atoms: N_10  and  C_27
REMARK                            x       y       z     vdW  Elec       q    Type
REMARK                         _______ _______ _______ _____ _____    ______ ____
ROOT
ATOM      1  O   UNL     1      20.209  -6.113   1.235  0.00  0.00    -0.342 OA
ATOM      2  O   UNL     1      22.400  -6.121   0.471  0.00  0.00    -0.347 OA
ATOM     11  C   UNL     1      20.659  -6.987  -0.967  0.00  0.00    +0.144 C 
ATOM     12  C   UNL     1      20.855  -8.406  -0.385  0.00  0.00    +0.159 C 
ATOM     13  C   UNL     1      20.556  -8.497   1.127  0.00  0.00    +0.136 C 
ATOM     14  C   UNL     1      21.033  -5.919   0.077  0.00  0.00    +0.270 C 
ATOM     15  C   UNL     1      20.879  -7.195   1.890  0.00  0.00    +0.170 C 
ATOM     16  C   UNL     1      22.322  -6.743   1.762  0.00  0.00    +0.196 C 
ENDROOT
BRANCH  13   8
ATOM      4  O   UNL     1      19.558 -11.071   1.889  0.00  0.00    -0.252 OA
ATOM      8  N   UNL     1      19.172  -8.859   1.341  0.00  0.00    -0.291 N 
ATOM     10  N   UNL     1      17.380 -10.197   1.845  0.00  0.00    -0.269 N 
ATOM     21  C   UNL     1      18.771 -10.145   1.713  0.00  0.00    +0.304 C 
ATOM     36  H   UNL     1      18.456  -8.168   1.136  0.00  0.00    +0.151 HD
ATOM     38  H   UNL     1      16.873  -9.335   1.662  0.00  0.00    +0.156 HD
BRANCH  10  27
ATOM     27  C   UNL     1      16.584 -11.308   2.206  0.00  0.00    +0.038 A 
ATOM     29  C   UNL     1      16.246 -11.520   3.544  0.00  0.00    +0.069 A 
ATOM     30  C   UNL     1      16.137 -12.194   1.225  0.00  0.00    +0.023 A 
ATOM     32  C   UNL     1      15.461 -12.616   3.899  0.00  0.00    +0.122 A 
ATOM     33  C   UNL     1      15.351 -13.291   1.581  0.00  0.00    +0.005 A 
ATOM     34  C   UNL     1      15.013 -13.501   2.919  0.00  0.00    +0.046 A 
BRANCH  32   6
ATOM      6  O   UNL     1      15.130 -12.822   5.203  0.00  0.00    -0.495 OA
ATOM     35  C   UNL     1      15.383 -11.752   6.113  0.00  0.00    +0.277 C 
ENDBRANCH  32   6
ENDBRANCH  10  27
ENDBRANCH  13   8
BRANCH  11   7
ATOM      7  N   UNL     1      19.269  -6.803  -1.390  0.00  0.00    -0.290 NA
ATOM      9  N   UNL     1      17.148  -6.340  -3.245  0.00  0.00    -0.325 N 
ATOM     17  C   UNL     1      19.086  -5.477  -1.989  0.00  0.00    +0.104 C 
ATOM     18  C   UNL     1      18.881  -7.844  -2.350  0.00  0.00    +0.104 C 
ATOM     19  C   UNL     1      17.624  -5.250  -2.383  0.00  0.00    +0.120 C 
ATOM     20  C   UNL     1      17.413  -7.697  -2.757  0.00  0.00    +0.120 C 
BRANCH   9  22
ATOM     22  C   UNL     1      16.032  -6.099  -4.054  0.00  0.00    +0.072 A 
ATOM     23  C   UNL     1      16.130  -6.182  -5.442  0.00  0.00    +0.141 A 
ATOM     24  C   UNL     1      14.813  -5.772  -3.459  0.00  0.00    +0.027 A 
ATOM     25  C   UNL     1      15.010  -5.939  -6.237  0.00  0.00    +0.047 A 
ATOM     26  C   UNL     1      13.692  -5.529  -4.253  0.00  0.00    +0.002 A 
ATOM     28  C   UNL     1      13.791  -5.613  -5.642  0.00  0.00    +0.004 A 
BRANCH  23   5
ATOM      5  O   UNL     1      17.311  -6.500  -6.043  0.00  0.00    -0.493 OA
ATOM     31  C   UNL     1      17.423  -7.807  -6.601  0.00  0.00    +0.277 C 
ENDBRANCH  23   5
ENDBRANCH   9  22
ENDBRANCH  11   7
BRANCH  12   3
ATOM      3  O   UNL     1      22.220  -8.785  -0.609  0.00  0.00    -0.388 OA
ATOM     37  H   UNL     1      22.706  -8.638   0.221  0.00  0.00    +0.210 HD
ENDBRANCH  12   3
TORSDOF 7
ENDMDL
MODEL 6
REMARK VINA RESULT:      -7.4     28.452     30.927
REMARK  Name = 28960456
REMARK  9 active torsions:
REMARK  status: ('A' for Active; 'I' for Inactive)
REMARK    1  A    between atoms: O_3  and  C_12
REMARK    2  A    between atoms: O_5  and  C_23
REMARK    3  A    between atoms: O_5  and  C_31
REMARK    4  A    between atoms: O_6  and  C_32
REMARK    5  A    between atoms: O_6  and  C_35
REMARK    6  A    between atoms: N_7  and  C_11
REMARK    7  A    between atoms: N_8  and  C_13
REMARK    8  A    between atoms: N_9  and  C_22
REMARK    9  A    between atoms: N_10  and  C_27
REMARK                            x       y       z     vdW  Elec       q    Type
REMARK                         _______ _______ _______ _____ _____    ______ ____
ROOT
ATOM      1  O   UNL     1      -4.850 -10.325  18.199  0.00  0.00    -0.342 OA
ATOM      2  O   UNL     1      -4.675 -12.534  18.887  0.00  0.00    -0.347 OA
ATOM     11  C   UNL     1      -5.458 -12.067  16.647  0.00  0.00    +0.144 C 
ATOM     12  C   UNL     1      -6.921 -12.027  17.144  0.00  0.00    +0.159 C 
ATOM     13  C   UNL     1      -7.190 -10.908  18.174  0.00  0.00    +0.136 C 
ATOM     14  C   UNL     1      -4.494 -11.647  17.771  0.00  0.00    +0.270 C 
ATOM     15  C   UNL     1      -5.965 -10.588  19.057  0.00  0.00    +0.170 C 
ATOM     16  C   UNL     1      -5.437 -11.776  19.839  0.00  0.00    +0.196 C 
ENDROOT
BRANCH  13   8
ATOM      4  O   UNL     1      -9.831 -10.367  17.208  0.00  0.00    -0.252 OA
ATOM      8  N   UNL     1      -7.636  -9.707  17.501  0.00  0.00    -0.291 N 
ATOM     10  N   UNL     1      -9.084  -8.275  16.449  0.00  0.00    -0.269 N 
ATOM     21  C   UNL     1      -8.949  -9.525  17.061  0.00  0.00    +0.304 C 
ATOM     36  H   UNL     1      -6.944  -8.999  17.271  0.00  0.00    +0.151 HD
ATOM     38  H   UNL     1      -8.250  -7.695  16.410  0.00  0.00    +0.156 HD
BRANCH  10  27
ATOM     27  C   UNL     1     -10.246  -7.712  15.875  0.00  0.00    +0.038 A 
ATOM     29  C   UNL     1     -10.737  -8.206  14.665  0.00  0.00    +0.069 A 
ATOM     30  C   UNL     1     -10.903  -6.662  16.517  0.00  0.00    +0.023 A 
ATOM     32  C   UNL     1     -11.883  -7.650  14.099  0.00  0.00    +0.122 A 
ATOM     33  C   UNL     1     -12.051  -6.106  15.950  0.00  0.00    +0.005 A 
ATOM     34  C   UNL     1     -12.541  -6.601  14.741  0.00  0.00    +0.046 A 
BRANCH  32   6
ATOM      6  O   UNL     1     -12.362  -8.131  12.920  0.00  0.00    -0.495 OA
ATOM     35  C   UNL     1     -12.531  -7.193  11.857  0.00  0.00    +0.277 C 
ENDBRANCH  32   6
ENDBRANCH  10  27
ENDBRANCH  13   8
BRANCH  11   7
ATOM      7  N   UNL     1      -5.292 -11.180  15.494  0.00  0.00    -0.290 NA
ATOM      9  N   UNL     1      -4.999 -10.525  12.729  0.00  0.00    -0.325 N 
ATOM     17  C   UNL     1      -4.041 -11.481  14.789  0.00  0.00    +0.104 C 
ATOM     18  C   UNL     1      -6.429 -11.314  14.574  0.00  0.00    +0.104 C 
ATOM     19  C   UNL     1      -3.828 -10.523  13.615  0.00  0.00    +0.120 C 
ATOM     20  C   UNL     1      -6.296 -10.350  13.392  0.00  0.00    +0.120 C 
BRANCH   9  22
ATOM     22  C   UNL     1      -4.828 -10.085  11.412  0.00  0.00    +0.072 A 
ATOM     23  C   UNL     1      -4.259 -10.922  10.453  0.00  0.00    +0.141 A 
ATOM     24  C   UNL     1      -5.233  -8.797  11.061  0.00  0.00    +0.027 A 
ATOM     25  C   UNL     1      -4.094 -10.472   9.143  0.00  0.00    +0.047 A 
ATOM     26  C   UNL     1      -5.068  -8.346   9.752  0.00  0.00    +0.002 A 
ATOM     28  C   UNL     1      -4.499  -9.184   8.793  0.00  0.00    +0.004 A 
BRANCH  23   5
ATOM      5  O   UNL     1      -3.858 -12.184  10.774  0.00  0.00    -0.493 OA
ATOM     31  C   UNL     1      -4.254 -13.234   9.894  0.00  0.00    +0.277 C 
ENDBRANCH  23   5
ENDBRANCH   9  22
ENDBRANCH  11   7
BRANCH  12   3
ATOM      3  O   UNL     1      -7.211 -13.292  17.752  0.00  0.00    -0.388 OA
ATOM     37  H   UNL     1      -7.911 -13.717  17.227  0.00  0.00    +0.210 HD
ENDBRANCH  12   3
TORSDOF 7
ENDMDL
MODEL 7
REMARK VINA RESULT:      -7.1     15.338     19.369
REMARK  Name = 28960456
REMARK  9 active torsions:
REMARK  status: ('A' for Active; 'I' for Inactive)
REMARK    1  A    between atoms: O_3  and  C_12
REMARK    2  A    between atoms: O_5  and  C_23
REMARK    3  A    between atoms: O_5  and  C_31
REMARK    4  A    between atoms: O_6  and  C_32
REMARK    5  A    between atoms: O_6  and  C_35
REMARK    6  A    between atoms: N_7  and  C_11
REMARK    7  A    between atoms: N_8  and  C_13
REMARK    8  A    between atoms: N_9  and  C_22
REMARK    9  A    between atoms: N_10  and  C_27
REMARK                            x       y       z     vdW  Elec       q    Type
REMARK                         _______ _______ _______ _____ _____    ______ ____
ROOT
ATOM      1  O   UNL     1      10.888   8.714   5.633  0.00  0.00    -0.342 OA
ATOM      2  O   UNL     1      10.478   8.285   7.876  0.00  0.00    -0.347 OA
ATOM     11  C   UNL     1      12.720   7.984   7.020  0.00  0.00    +0.144 C 
ATOM     12  C   UNL     1      12.414   6.507   6.680  0.00  0.00    +0.159 C 
ATOM     13  C   UNL     1      11.290   6.336   5.636  0.00  0.00    +0.136 C 
ATOM     14  C   UNL     1      11.436   8.830   6.954  0.00  0.00    +0.270 C 
ATOM     15  C   UNL     1      10.222   7.449   5.705  0.00  0.00    +0.170 C 
ATOM     16  C   UNL     1       9.542   7.572   7.055  0.00  0.00    +0.196 C 
ENDROOT
BRANCH  13   8
ATOM      4  O   UNL     1      10.662   4.429   3.594  0.00  0.00    -0.252 OA
ATOM      8  N   UNL     1      11.851   6.279   4.303  0.00  0.00    -0.291 N 
ATOM     10  N   UNL     1      12.190   5.503   2.174  0.00  0.00    -0.269 N 
ATOM     21  C   UNL     1      11.486   5.309   3.366  0.00  0.00    +0.304 C 
ATOM     36  H   UNL     1      12.599   6.925   4.068  0.00  0.00    +0.151 HD
ATOM     38  H   UNL     1      12.840   6.284   2.149  0.00  0.00    +0.156 HD
BRANCH  10  27
ATOM     27  C   UNL     1      12.109   4.741   0.986  0.00  0.00    +0.038 A 
ATOM     29  C   UNL     1      10.991   4.855   0.158  0.00  0.00    +0.069 A 
ATOM     30  C   UNL     1      13.147   3.875   0.639  0.00  0.00    +0.023 A 
ATOM     32  C   UNL     1      10.911   4.103  -1.014  0.00  0.00    +0.122 A 
ATOM     33  C   UNL     1      13.067   3.123  -0.534  0.00  0.00    +0.005 A 
ATOM     34  C   UNL     1      11.949   3.238  -1.360  0.00  0.00    +0.046 A 
BRANCH  32   6
ATOM      6  O   UNL     1       9.822   4.215  -1.821  0.00  0.00    -0.495 OA
ATOM     35  C   UNL     1       9.389   5.535  -2.150  0.00  0.00    +0.277 C 
ENDBRANCH  32   6
ENDBRANCH  10  27
ENDBRANCH  13   8
BRANCH  11   7
ATOM      7  N   UNL     1      13.716   8.519   6.090  0.00  0.00    -0.290 NA
ATOM      9  N   UNL     1      16.303   9.408   5.269  0.00  0.00    -0.325 N 
ATOM     17  C   UNL     1      14.258   9.787   6.592  0.00  0.00    +0.104 C 
ATOM     18  C   UNL     1      14.804   7.554   5.890  0.00  0.00    +0.104 C 
ATOM     19  C   UNL     1      15.260  10.386   5.602  0.00  0.00    +0.120 C 
ATOM     20  C   UNL     1      15.824   8.079   4.876  0.00  0.00    +0.120 C 
BRANCH   9  22
ATOM     22  C   UNL     1      17.515   9.888   4.760  0.00  0.00    +0.072 A 
ATOM     23  C   UNL     1      18.721   9.573   5.385  0.00  0.00    +0.141 A 
ATOM     24  C   UNL     1      17.510  10.687   3.617  0.00  0.00    +0.027 A 
ATOM     25  C   UNL     1      19.922  10.057   4.868  0.00  0.00    +0.047 A 
ATOM     26  C   UNL     1      18.711  11.172   3.099  0.00  0.00    +0.002 A 
ATOM     28  C   UNL     1      19.917  10.857   3.725  0.00  0.00    +0.004 A 
BRANCH  23   5
ATOM      5  O   UNL     1      18.748   8.793   6.502  0.00  0.00    -0.493 OA
ATOM     31  C   UNL     1      20.031   8.474   7.039  0.00  0.00    +0.277 C 
ENDBRANCH  23   5
ENDBRANCH   9  22
ENDBRANCH  11   7
BRANCH  12   3
ATOM      3  O   UNL     1      12.019   5.852   7.893  0.00  0.00    -0.388 OA
ATOM     37  H   UNL     1      11.909   6.537   8.574  0.00  0.00    +0.210 HD
ENDBRANCH  12   3
TORSDOF 7
ENDMDL
MODEL 8
REMARK VINA RESULT:      -7.0     27.703     30.265
REMARK  Name = 28960456
REMARK  9 active torsions:
REMARK  status: ('A' for Active; 'I' for Inactive)
REMARK    1  A    between atoms: O_3  and  C_12
REMARK    2  A    between atoms: O_5  and  C_23
REMARK    3  A    between atoms: O_5  and  C_31
REMARK    4  A    between atoms: O_6  and  C_32
REMARK    5  A    between atoms: O_6  and  C_35
REMARK    6  A    between atoms: N_7  and  C_11
REMARK    7  A    between atoms: N_8  and  C_13
REMARK    8  A    between atoms: N_9  and  C_22
REMARK    9  A    between atoms: N_10  and  C_27
REMARK                            x       y       z     vdW  Elec       q    Type
REMARK                         _______ _______ _______ _____ _____    ______ ____
ROOT
ATOM      1  O   UNL     1      -4.094 -12.926  13.492  0.00  0.00    -0.342 OA
ATOM      2  O   UNL     1      -1.997 -12.929  14.486  0.00  0.00    -0.347 OA
ATOM     11  C   UNL     1      -3.643 -11.325  15.239  0.00  0.00    +0.144 C 
ATOM     12  C   UNL     1      -3.149 -10.297  14.195  0.00  0.00    +0.159 C 
ATOM     13  C   UNL     1      -3.321 -10.770  12.736  0.00  0.00    +0.136 C 
ATOM     14  C   UNL     1      -3.402 -12.761  14.738  0.00  0.00    +0.270 C 
ATOM     15  C   UNL     1      -3.193 -12.300  12.574  0.00  0.00    +0.170 C 
ATOM     16  C   UNL     1      -1.870 -12.865  13.057  0.00  0.00    +0.196 C 
ENDROOT
BRANCH  13   8
ATOM      4  O   UNL     1      -3.911 -10.059  10.025  0.00  0.00    -0.252 OA
ATOM      8  N   UNL     1      -4.597 -10.329  12.215  0.00  0.00    -0.291 N 
ATOM     10  N   UNL     1      -6.124  -9.609  10.665  0.00  0.00    -0.269 N 
ATOM     21  C   UNL     1      -4.798 -10.000  10.873  0.00  0.00    +0.304 C 
ATOM     36  H   UNL     1      -5.358 -10.178  12.871  0.00  0.00    +0.151 HD
ATOM     38  H   UNL     1      -6.734  -9.617  11.478  0.00  0.00    +0.156 HD
BRANCH  10  27
ATOM     27  C   UNL     1      -6.728  -9.202   9.453  0.00  0.00    +0.038 A 
ATOM     29  C   UNL     1      -7.109  -7.870   9.276  0.00  0.00    +0.069 A 
ATOM     30  C   UNL     1      -6.945 -10.130   8.435  0.00  0.00    +0.023 A 
ATOM     32  C   UNL     1      -7.705  -7.469   8.081  0.00  0.00    +0.122 A 
ATOM     33  C   UNL     1      -7.541  -9.728   7.239  0.00  0.00    +0.005 A 
ATOM     34  C   UNL     1      -7.921  -8.397   7.063  0.00  0.00    +0.046 A 
BRANCH  32   6
ATOM      6  O   UNL     1      -8.076  -6.172   7.907  0.00  0.00    -0.495 OA
ATOM     35  C   UNL     1      -9.332  -5.776   8.458  0.00  0.00    +0.277 C 
ENDBRANCH  32   6
ENDBRANCH  10  27
ENDBRANCH  13   8
BRANCH  11   7
ATOM      7  N   UNL     1      -5.069 -11.126  15.507  0.00  0.00    -0.290 NA
ATOM      9  N   UNL     1      -7.373 -10.624  17.118  0.00  0.00    -0.325 N 
ATOM     17  C   UNL     1      -5.567 -12.153  16.429  0.00  0.00    +0.104 C 
ATOM     18  C   UNL     1      -5.305  -9.791  16.070  0.00  0.00    +0.104 C 
ATOM     19  C   UNL     1      -7.069 -11.990  16.673  0.00  0.00    +0.120 C 
ATOM     20  C   UNL     1      -6.798  -9.549  16.303  0.00  0.00    +0.120 C 
BRANCH   9  22
ATOM     22  C   UNL     1      -8.573 -10.408  17.805  0.00  0.00    +0.072 A 
ATOM     23  C   UNL     1      -8.740 -10.883  19.105  0.00  0.00    +0.141 A 
ATOM     24  C   UNL     1      -9.606  -9.712  17.178  0.00  0.00    +0.027 A 
ATOM     25  C   UNL     1      -9.941 -10.662  19.780  0.00  0.00    +0.047 A 
ATOM     26  C   UNL     1     -10.807  -9.490  17.852  0.00  0.00    +0.002 A 
ATOM     28  C   UNL     1     -10.974  -9.965  19.153  0.00  0.00    +0.004 A 
BRANCH  23   5
ATOM      5  O   UNL     1      -7.743 -11.566  19.736  0.00  0.00    -0.493 OA
ATOM     31  C   UNL     1      -8.008 -12.922  20.089  0.00  0.00    +0.277 C 
ENDBRANCH  23   5
ENDBRANCH   9  22
ENDBRANCH  11   7
BRANCH  12   3
ATOM      3  O   UNL     1      -1.756 -10.059  14.441  0.00  0.00    -0.388 OA
ATOM     37  H   UNL     1      -1.471 -10.679  15.134  0.00  0.00    +0.210 HD
ENDBRANCH  12   3
TORSDOF 7
ENDMDL
MODEL 9
REMARK VINA RESULT:      -7.0     29.964     32.953
REMARK  Name = 28960456
REMARK  9 active torsions:
REMARK  status: ('A' for Active; 'I' for Inactive)
REMARK    1  A    between atoms: O_3  and  C_12
REMARK    2  A    between atoms: O_5  and  C_23
REMARK    3  A    between atoms: O_5  and  C_31
REMARK    4  A    between atoms: O_6  and  C_32
REMARK    5  A    between atoms: O_6  and  C_35
REMARK    6  A    between atoms: N_7  and  C_11
REMARK    7  A    between atoms: N_8  and  C_13
REMARK    8  A    between atoms: N_9  and  C_22
REMARK    9  A    between atoms: N_10  and  C_27
REMARK                            x       y       z     vdW  Elec       q    Type
REMARK                         _______ _______ _______ _____ _____    ______ ____
ROOT
ATOM      1  O   UNL     1      -7.184 -10.678  41.445  0.00  0.00    -0.342 OA
ATOM      2  O   UNL     1      -6.653 -12.094  39.686  0.00  0.00    -0.347 OA
ATOM     11  C   UNL     1      -5.952  -9.781  39.577  0.00  0.00    +0.144 C 
ATOM     12  C   UNL     1      -7.270  -9.393  38.869  0.00  0.00    +0.159 C 
ATOM     13  C   UNL     1      -8.528  -9.653  39.725  0.00  0.00    +0.136 C 
ATOM     14  C   UNL     1      -6.168 -11.004  40.487  0.00  0.00    +0.270 C 
ATOM     15  C   UNL     1      -8.378 -10.859  40.676  0.00  0.00    +0.170 C 
ATOM     16  C   UNL     1      -8.057 -12.165  39.974  0.00  0.00    +0.196 C 
ENDROOT
BRANCH  13   8
ATOM      4  O   UNL     1      -9.663  -7.229  38.707  0.00  0.00    -0.252 OA
ATOM      8  N   UNL     1      -8.866  -8.469  40.486  0.00  0.00    -0.291 N 
ATOM     10  N   UNL     1      -9.638  -6.347  40.882  0.00  0.00    -0.269 N 
ATOM     21  C   UNL     1      -9.419  -7.325  39.906  0.00  0.00    +0.304 C 
ATOM     36  H   UNL     1      -8.619  -8.443  41.471  0.00  0.00    +0.151 HD
ATOM     38  H   UNL     1      -9.379  -6.589  41.835  0.00  0.00    +0.156 HD
BRANCH  10  27
ATOM     27  C   UNL     1     -10.180  -5.054  40.707  0.00  0.00    +0.038 A 
ATOM     29  C   UNL     1      -9.382  -4.024  40.204  0.00  0.00    +0.069 A 
ATOM     30  C   UNL     1     -11.513  -4.805  41.037  0.00  0.00    +0.023 A 
ATOM     32  C   UNL     1      -9.918  -2.748  40.031  0.00  0.00    +0.122 A 
ATOM     33  C   UNL     1     -12.048  -3.528  40.863  0.00  0.00    +0.005 A 
ATOM     34  C   UNL     1     -11.250  -2.500  40.360  0.00  0.00    +0.046 A 
BRANCH  32   6
ATOM      6  O   UNL     1      -9.141  -1.745  39.541  0.00  0.00    -0.495 OA
ATOM     35  C   UNL     1      -9.634  -1.039  38.402  0.00  0.00    +0.277 C 
ENDBRANCH  32   6
ENDBRANCH  10  27
ENDBRANCH  13   8
BRANCH  11   7
ATOM      7  N   UNL     1      -5.454  -8.655  40.369  0.00  0.00    -0.290 NA
ATOM      9  N   UNL     1      -3.742  -6.452  40.979  0.00  0.00    -0.325 N 
ATOM     17  C   UNL     1      -4.064  -8.887  40.776  0.00  0.00    +0.104 C 
ATOM     18  C   UNL     1      -5.549  -7.406  39.603  0.00  0.00    +0.104 C 
ATOM     19  C   UNL     1      -3.549  -7.743  41.652  0.00  0.00    +0.120 C 
ATOM     20  C   UNL     1      -5.085  -6.211  40.440  0.00  0.00    +0.120 C 
BRANCH   9  22
ATOM     22  C   UNL     1      -2.956  -5.370  41.394  0.00  0.00    +0.072 A 
ATOM     23  C   UNL     1      -1.801  -5.024  40.695  0.00  0.00    +0.141 A 
ATOM     24  C   UNL     1      -3.338  -4.637  42.517  0.00  0.00    +0.027 A 
ATOM     25  C   UNL     1      -1.026  -3.944  41.118  0.00  0.00    +0.047 A 
ATOM     26  C   UNL     1      -2.564  -3.557  42.942  0.00  0.00    +0.002 A 
ATOM     28  C   UNL     1      -1.408  -3.211  42.242  0.00  0.00    +0.004 A 
BRANCH  23   5
ATOM      5  O   UNL     1      -1.410  -5.727  39.594  0.00  0.00    -0.493 OA
ATOM     31  C   UNL     1      -1.939  -5.310  38.337  0.00  0.00    +0.277 C 
ENDBRANCH  23   5
ENDBRANCH   9  22
ENDBRANCH  11   7
BRANCH  12   3
ATOM      3  O   UNL     1      -7.364 -10.167  37.665  0.00  0.00    -0.388 OA
ATOM     37  H   UNL     1      -6.475 -10.507  37.464  0.00  0.00    +0.210 HD
ENDBRANCH  12   3
TORSDOF 7
ENDMDL
MODEL 10
REMARK VINA RESULT:      -6.8     20.967     23.994
REMARK  Name = 28960456
REMARK  9 active torsions:
REMARK  status: ('A' for Active; 'I' for Inactive)
REMARK    1  A    between atoms: O_3  and  C_12
REMARK    2  A    between atoms: O_5  and  C_23
REMARK    3  A    between atoms: O_5  and  C_31
REMARK    4  A    between atoms: O_6  and  C_32
REMARK    5  A    between atoms: O_6  and  C_35
REMARK    6  A    between atoms: N_7  and  C_11
REMARK    7  A    between atoms: N_8  and  C_13
REMARK    8  A    between atoms: N_9  and  C_22
REMARK    9  A    between atoms: N_10  and  C_27
REMARK                            x       y       z     vdW  Elec       q    Type
REMARK                         _______ _______ _______ _____ _____    ______ ____
ROOT
ATOM      1  O   UNL     1      -1.396  13.516  37.450  0.00  0.00    -0.342 OA
ATOM      2  O   UNL     1      -0.801  14.127  35.292  0.00  0.00    -0.347 OA
ATOM     11  C   UNL     1      -2.262  12.225  35.606  0.00  0.00    +0.144 C 
ATOM     12  C   UNL     1      -1.044  11.275  35.675  0.00  0.00    +0.159 C 
ATOM     13  C   UNL     1      -0.098  11.572  36.859  0.00  0.00    +0.136 C 
ATOM     14  C   UNL     1      -1.878  13.631  36.103  0.00  0.00    +0.270 C 
ATOM     15  C   UNL     1      -0.054  13.066  37.241  0.00  0.00    +0.170 C 
ATOM     16  C   UNL     1       0.371  13.983  36.109  0.00  0.00    +0.196 C 
ENDROOT
BRANCH  13   8
ATOM      4  O   UNL     1       0.020   8.720  37.096  0.00  0.00    -0.252 OA
ATOM      8  N   UNL     1      -0.478  10.783  38.010  0.00  0.00    -0.291 N 
ATOM     10  N   UNL     1      -0.823   8.905  39.278  0.00  0.00    -0.269 N 
ATOM     21  C   UNL     1      -0.388   9.389  38.041  0.00  0.00    +0.304 C 
ATOM     36  H   UNL     1      -0.901  11.259  38.802  0.00  0.00    +0.151 HD
ATOM     38  H   UNL     1      -1.131   9.597  39.956  0.00  0.00    +0.156 HD
BRANCH  10  27
ATOM     27  C   UNL     1      -0.888   7.560  39.708  0.00  0.00    +0.038 A 
ATOM     29  C   UNL     1       0.157   7.015  40.457  0.00  0.00    +0.069 A 
ATOM     30  C   UNL     1      -1.996   6.776  39.385  0.00  0.00    +0.023 A 
ATOM     32  C   UNL     1       0.093   5.688  40.881  0.00  0.00    +0.122 A 
ATOM     33  C   UNL     1      -2.060   5.449  39.811  0.00  0.00    +0.005 A 
ATOM     34  C   UNL     1      -1.015   4.905  40.559  0.00  0.00    +0.046 A 
BRANCH  32   6
ATOM      6  O   UNL     1       1.111   5.157  41.611  0.00  0.00    -0.495 OA
ATOM     35  C   UNL     1       2.318   4.851  40.914  0.00  0.00    +0.277 C 
ENDBRANCH  32   6
ENDBRANCH  10  27
ENDBRANCH  13   8
BRANCH  11   7
ATOM      7  N   UNL     1      -3.361  11.696  36.415  0.00  0.00    -0.290 NA
ATOM      9  N   UNL     1      -5.888  10.448  36.883  0.00  0.00    -0.325 N 
ATOM     17  C   UNL     1      -4.608  12.412  36.120  0.00  0.00    +0.104 C 
ATOM     18  C   UNL     1      -3.538  10.260  36.165  0.00  0.00    +0.104 C 
ATOM     19  C   UNL     1      -5.753  11.906  37.000  0.00  0.00    +0.120 C 
ATOM     20  C   UNL     1      -4.648   9.681  37.047  0.00  0.00    +0.120 C 
BRANCH   9  22
ATOM     22  C   UNL     1      -7.113   9.871  37.234  0.00  0.00    +0.072 A 
ATOM     23  C   UNL     1      -8.084   9.621  36.265  0.00  0.00    +0.141 A 
ATOM     24  C   UNL     1      -7.359   9.545  38.568  0.00  0.00    +0.027 A 
ATOM     25  C   UNL     1      -9.301   9.045  36.628  0.00  0.00    +0.047 A 
ATOM     26  C   UNL     1      -8.576   8.969  38.932  0.00  0.00    +0.002 A 
ATOM     28  C   UNL     1      -9.547   8.719  37.962  0.00  0.00    +0.004 A 
BRANCH  23   5
ATOM      5  O   UNL     1      -7.863   9.932  34.956  0.00  0.00    -0.493 OA
ATOM     31  C   UNL     1      -9.012  10.125  34.133  0.00  0.00    +0.277 C 
ENDBRANCH  23   5
ENDBRANCH   9  22
ENDBRANCH  11   7
BRANCH  12   3
ATOM      3  O   UNL     1      -0.310  11.416  34.451  0.00  0.00    -0.388 OA
ATOM     37  H   UNL     1      -0.925  11.750  33.776  0.00  0.00    +0.210 HD
ENDBRANCH  12   3
TORSDOF 7
ENDMDL
