REMARK  Name = 11884218
REMARK  6 active torsions:
REMARK  status: ('A' for Active; 'I' for Inactive)
REMARK    1  A    between atoms: O_4  and  C_19
REMARK    2  A    between atoms: O_4  and  C_26
REMARK    3  A    between atoms: O_5  and  C_29
REMARK    4  A    between atoms: O_5  and  C_35
REMARK    5  A    between atoms: C_16  and  C_19
REMARK    6  A    between atoms: C_21  and  C_23
REMARK                            x       y       z     vdW  Elec       q    Type
REMARK                         _______ _______ _______ _____ _____    ______ ____
ROOT
ATOM      1  O   UNL     1      -1.827  -1.991  -0.210  0.00  0.00    -0.273 OA
ATOM      2  O   UNL     1       1.496   1.806   1.362  0.00  0.00    -0.270 OA
ATOM      3  O   UNL     1      -4.524  -0.061  -2.349  0.00  0.00    -0.272 OA
ATOM      6  N   UNL     1      -0.175   0.845   0.084  0.00  0.00    -0.283 N 
ATOM      7  N   UNL     1      -2.917   0.718  -0.861  0.00  0.00    -0.295 N 
ATOM      8  N   UNL     1       0.417  -2.053   0.166  0.00  0.00    -0.283 N 
ATOM      9  C   UNL     1      -0.550  -0.088  -0.969  0.00  0.00    +0.180 C 
ATOM     10  C   UNL     1      -1.800   0.358  -1.738  0.00  0.00    +0.140 C 
ATOM     11  C   UNL     1      -1.151   1.873   0.449  0.00  0.00    +0.128 C 
ATOM     12  C   UNL     1      -2.576   1.339   0.423  0.00  0.00    +0.127 C 
ATOM     13  C   UNL     1      -0.730  -1.435  -0.285  0.00  0.00    +0.239 C 
ATOM     14  C   UNL     1       1.110   0.906   0.615  0.00  0.00    +0.249 C 
ATOM     15  C   UNL     1       2.073  -0.181   0.296  0.00  0.00    +0.059 A 
ATOM     16  C   UNL     1      -4.226   0.460  -1.272  0.00  0.00    +0.253 C 
ATOM     17  C   UNL     1       1.730  -1.539   0.198  0.00  0.00    +0.046 A 
ATOM     18  C   UNL     1       3.431   0.189   0.277  0.00  0.00    +0.023 A 
ATOM     20  C   UNL     1       2.756  -2.499   0.153  0.00  0.00    +0.024 A 
ATOM     21  C   UNL     1       4.435  -0.773   0.181  0.00  0.00    -0.017 A 
ATOM     22  C   UNL     1       4.098  -2.120   0.134  0.00  0.00    +0.010 A 
ATOM     36  H   UNL     1       0.315  -3.034   0.414  0.00  0.00    +0.155 HD
ENDROOT
BRANCH  21  23
ATOM     23  C   UNL     1       5.825  -0.373   0.157  0.00  0.00    -0.018 A 
ATOM     24  C   UNL     1       6.802  -1.210   0.697  0.00  0.00    +0.012 A 
ATOM     25  C   UNL     1       6.188   0.851  -0.405  0.00  0.00    +0.012 A 
ATOM     27  C   UNL     1       8.142  -0.822   0.674  0.00  0.00    +0.046 A 
ATOM     28  C   UNL     1       7.528   1.238  -0.427  0.00  0.00    +0.046 A 
ATOM     29  C   UNL     1       8.505   0.402   0.112  0.00  0.00    +0.120 A 
BRANCH  29   5
ATOM      5  O   UNL     1       9.812   0.780   0.091  0.00  0.00    -0.495 OA
ATOM     35  C   UNL     1      10.113   2.044  -0.499  0.00  0.00    +0.277 C 
ENDBRANCH  29   5
ENDBRANCH  21  23
BRANCH  16  19
ATOM     19  C   UNL     1      -5.317   0.864  -0.311  0.00  0.00    +0.324 C 
BRANCH  19   4
ATOM      4  O   UNL     1      -6.537   0.549  -0.935  0.00  0.00    -0.483 OA
BRANCH   4  26
ATOM     26  C   UNL     1      -7.612   0.269  -0.119  0.00  0.00    +0.121 A 
ATOM     30  C   UNL     1      -7.694   0.868   1.128  0.00  0.00    +0.045 A 
ATOM     31  C   UNL     1      -8.591  -0.609  -0.560  0.00  0.00    +0.045 A 
ATOM     32  C   UNL     1      -8.782   0.584   1.955  0.00  0.00    +0.004 A 
ATOM     33  C   UNL     1      -9.678  -0.893   0.266  0.00  0.00    +0.004 A 
ATOM     34  C   UNL     1      -9.773  -0.297   1.524  0.00  0.00    +0.000 A 
ENDBRANCH   4  26
ENDBRANCH  19   4
ENDBRANCH  16  19
TORSDOF 5
