MODEL 1
REMARK VINA RESULT:      -8.3      0.000      0.000
REMARK  Name = 26742480
REMARK  10 active torsions:
REMARK  status: ('A' for Active; 'I' for Inactive)
REMARK    1  A    between atoms: N_3  and  C_14
REMARK    2  A    between atoms: N_6  and  C_29
REMARK    3  A    between atoms: N_6  and  C_34
REMARK    4  A    between atoms: N_6  and  C_35
REMARK    5  A    between atoms: C_8  and  C_15
REMARK    6  A    between atoms: C_9  and  C_14
REMARK    7  A    between atoms: C_17  and  C_20
REMARK    8  A    between atoms: C_18  and  C_21
REMARK    9  A    between atoms: C_19  and  C_22
REMARK   10  A    between atoms: C_32  and  C_33
REMARK                            x       y       z     vdW  Elec       q    Type
REMARK                         _______ _______ _______ _____ _____    ______ ____
ROOT
ATOM      2  N   UNL     1     -18.618   2.818  26.192  0.00  0.00    -0.297 NA
ATOM      7  C   UNL     1     -16.794   0.961  26.115  0.00  0.00    +0.002 C 
ATOM      8  C   UNL     1     -17.210   1.254  27.583  0.00  0.00    +0.055 C 
ATOM      9  C   UNL     1     -17.477   3.260  25.346  0.00  0.00    +0.074 C 
ATOM     10  C   UNL     1     -16.302   2.266  25.454  0.00  0.00    +0.024 C 
ATOM     11  C   UNL     1     -18.073   0.529  25.367  0.00  0.00    +0.019 C 
ATOM     12  C   UNL     1     -18.142   2.499  27.561  0.00  0.00    +0.094 C 
ATOM     13  C   UNL     1     -19.173   1.580  25.595  0.00  0.00    +0.085 C 
ENDROOT
BRANCH   8  15
ATOM      4  N   UNL     1     -15.295   0.309  28.774  0.00  0.00    -0.237 NA
ATOM      5  N   UNL     1     -14.129   1.521  30.499  0.00  0.00    -0.232 NA
ATOM     15  C   UNL     1     -16.113   1.371  28.632  0.00  0.00    +0.050 A 
ATOM     16  C   UNL     1     -16.005   2.528  29.376  0.00  0.00    +0.052 A 
ATOM     17  C   UNL     1     -14.985   2.547  30.305  0.00  0.00    +0.075 A 
ATOM     18  C   UNL     1     -14.339   0.450  29.712  0.00  0.00    +0.127 A 
ATOM     21  C   UNL     1     -13.414  -0.705  29.900  0.00  0.00    +0.088 C 
BRANCH  17  20
ATOM     20  C   UNL     1     -14.764   3.699  31.147  0.00  0.00    +0.001 A 
ATOM     23  C   UNL     1     -15.569   4.828  31.008  0.00  0.00    +0.012 A 
ATOM     24  C   UNL     1     -13.746   3.679  32.101  0.00  0.00    +0.012 A 
ATOM     27  C   UNL     1     -15.356   5.941  31.824  0.00  0.00    +0.024 A 
ATOM     28  C   UNL     1     -13.534   4.791  32.917  0.00  0.00    +0.024 A 
ATOM     29  C   UNL     1     -14.339   5.922  32.777  0.00  0.00    +0.029 A 
BRANCH  29   6
ATOM      6  N   UNL     1     -14.124   7.046  33.602  0.00  0.00    -0.336 N 
ATOM     34  C   UNL     1     -14.478   8.373  33.140  0.00  0.00    +0.129 C 
ATOM     35  C   UNL     1     -13.552   6.887  34.924  0.00  0.00    +0.129 C 
ENDBRANCH  29   6
ENDBRANCH  17  20
ENDBRANCH   8  15
BRANCH   9  14
ATOM     14  C   UNL     1     -17.043   4.695  25.657  0.00  0.00    +0.123 C 
BRANCH  14   3
ATOM      1  O   UNL     1     -17.343   5.754  23.005  0.00  0.00    -0.270 OA
ATOM      3  N   UNL     1     -15.992   5.110  24.779  0.00  0.00    -0.310 N 
ATOM     19  C   UNL     1     -16.228   5.616  23.502  0.00  0.00    +0.244 C 
ATOM     36  H   UNL     1     -15.043   4.965  25.104  0.00  0.00    +0.149 HD
BRANCH  19  22
ATOM     22  C   UNL     1     -15.029   5.979  22.704  0.00  0.00    +0.037 A 
ATOM     25  C   UNL     1     -13.927   5.127  22.670  0.00  0.00    +0.013 A 
ATOM     26  C   UNL     1     -15.006   7.177  21.988  0.00  0.00    +0.013 A 
ATOM     30  C   UNL     1     -12.802   5.469  21.922  0.00  0.00    +0.004 A 
ATOM     31  C   UNL     1     -13.881   7.520  21.238  0.00  0.00    +0.004 A 
ATOM     32  C   UNL     1     -12.778   6.666  21.205  0.00  0.00    -0.050 A 
ATOM     33  C   UNL     1     -11.574   7.032  20.405  0.00  0.00    +0.044 C 
ENDBRANCH  19  22
ENDBRANCH  14   3
ENDBRANCH   9  14
TORSDOF 6
ENDMDL
MODEL 2
REMARK VINA RESULT:      -8.2     21.255     24.596
REMARK  Name = 26742480
REMARK  10 active torsions:
REMARK  status: ('A' for Active; 'I' for Inactive)
REMARK    1  A    between atoms: N_3  and  C_14
REMARK    2  A    between atoms: N_6  and  C_29
REMARK    3  A    between atoms: N_6  and  C_34
REMARK    4  A    between atoms: N_6  and  C_35
REMARK    5  A    between atoms: C_8  and  C_15
REMARK    6  A    between atoms: C_9  and  C_14
REMARK    7  A    between atoms: C_17  and  C_20
REMARK    8  A    between atoms: C_18  and  C_21
REMARK    9  A    between atoms: C_19  and  C_22
REMARK   10  A    between atoms: C_32  and  C_33
REMARK                            x       y       z     vdW  Elec       q    Type
REMARK                         _______ _______ _______ _____ _____    ______ ____
ROOT
ATOM      2  N   UNL     1      -7.628 -11.422  17.613  0.00  0.00    -0.297 NA
ATOM      7  C   UNL     1      -5.158 -11.246  18.420  0.00  0.00    +0.002 C 
ATOM      8  C   UNL     1      -5.367 -10.415  17.124  0.00  0.00    +0.055 C 
ATOM      9  C   UNL     1      -7.082 -12.779  17.879  0.00  0.00    +0.074 C 
ATOM     10  C   UNL     1      -5.566 -12.711  18.158  0.00  0.00    +0.024 C 
ATOM     11  C   UNL     1      -6.139 -10.685  19.472  0.00  0.00    +0.019 C 
ATOM     12  C   UNL     1      -6.797 -10.730  16.597  0.00  0.00    +0.094 C 
ATOM     13  C   UNL     1      -7.556 -10.648  18.875  0.00  0.00    +0.085 C 
ENDROOT
BRANCH   8  15
ATOM      4  N   UNL     1      -3.025 -10.504  16.427  0.00  0.00    -0.237 NA
ATOM      5  N   UNL     1      -2.379 -10.682  14.113  0.00  0.00    -0.232 NA
ATOM     15  C   UNL     1      -4.314 -10.513  16.029  0.00  0.00    +0.050 A 
ATOM     16  C   UNL     1      -4.709 -10.601  14.711  0.00  0.00    +0.052 A 
ATOM     17  C   UNL     1      -3.689 -10.683  13.786  0.00  0.00    +0.075 A 
ATOM     18  C   UNL     1      -2.123 -10.590  15.431  0.00  0.00    +0.127 A 
ATOM     21  C   UNL     1      -0.686 -10.584  15.830  0.00  0.00    +0.088 C 
BRANCH  17  20
ATOM     20  C   UNL     1      -3.969 -10.780  12.373  0.00  0.00    +0.001 A 
ATOM     23  C   UNL     1      -4.820  -9.857  11.766  0.00  0.00    +0.012 A 
ATOM     24  C   UNL     1      -3.386 -11.796  11.615  0.00  0.00    +0.012 A 
ATOM     27  C   UNL     1      -5.089  -9.951  10.400  0.00  0.00    +0.024 A 
ATOM     28  C   UNL     1      -3.655 -11.889  10.249  0.00  0.00    +0.024 A 
ATOM     29  C   UNL     1      -4.507 -10.966   9.642  0.00  0.00    +0.029 A 
BRANCH  29   6
ATOM      6  N   UNL     1      -4.779 -11.060   8.262  0.00  0.00    -0.336 N 
ATOM     34  C   UNL     1      -4.428 -12.258   7.525  0.00  0.00    +0.129 C 
ATOM     35  C   UNL     1      -5.420  -9.964   7.563  0.00  0.00    +0.129 C 
ENDBRANCH  29   6
ENDBRANCH  17  20
ENDBRANCH   8  15
BRANCH   9  14
ATOM     14  C   UNL     1      -7.414 -13.770  16.761  0.00  0.00    +0.123 C 
BRANCH  14   3
ATOM      1  O   UNL     1      -6.905 -13.370  13.964  0.00  0.00    -0.270 OA
ATOM      3  N   UNL     1      -6.233 -14.145  16.046  0.00  0.00    -0.310 N 
ATOM     19  C   UNL     1      -6.068 -13.912  14.682  0.00  0.00    +0.244 C 
ATOM     36  H   UNL     1      -5.527 -14.654  16.566  0.00  0.00    +0.149 HD
BRANCH  19  22
ATOM     22  C   UNL     1      -4.795 -14.384  14.080  0.00  0.00    +0.037 A 
ATOM     25  C   UNL     1      -4.806 -15.065  12.864  0.00  0.00    +0.013 A 
ATOM     26  C   UNL     1      -3.585 -14.147  14.735  0.00  0.00    +0.013 A 
ATOM     30  C   UNL     1      -3.611 -15.508  12.301  0.00  0.00    +0.004 A 
ATOM     31  C   UNL     1      -2.389 -14.590  14.172  0.00  0.00    +0.004 A 
ATOM     32  C   UNL     1      -2.401 -15.272  12.954  0.00  0.00    -0.050 A 
ATOM     33  C   UNL     1      -1.122 -15.747  12.352  0.00  0.00    +0.044 C 
ENDBRANCH  19  22
ENDBRANCH  14   3
ENDBRANCH   9  14
TORSDOF 6
ENDMDL
MODEL 3
REMARK VINA RESULT:      -8.0     31.499     36.614
REMARK  Name = 26742480
REMARK  10 active torsions:
REMARK  status: ('A' for Active; 'I' for Inactive)
REMARK    1  A    between atoms: N_3  and  C_14
REMARK    2  A    between atoms: N_6  and  C_29
REMARK    3  A    between atoms: N_6  and  C_34
REMARK    4  A    between atoms: N_6  and  C_35
REMARK    5  A    between atoms: C_8  and  C_15
REMARK    6  A    between atoms: C_9  and  C_14
REMARK    7  A    between atoms: C_17  and  C_20
REMARK    8  A    between atoms: C_18  and  C_21
REMARK    9  A    between atoms: C_19  and  C_22
REMARK   10  A    between atoms: C_32  and  C_33
REMARK                            x       y       z     vdW  Elec       q    Type
REMARK                         _______ _______ _______ _____ _____    ______ ____
ROOT
ATOM      2  N   UNL     1      10.496   5.268   7.935  0.00  0.00    -0.297 NA
ATOM      7  C   UNL     1       9.153   7.396   7.263  0.00  0.00    +0.002 C 
ATOM      8  C   UNL     1       8.955   6.273   6.209  0.00  0.00    +0.055 C 
ATOM      9  C   UNL     1      11.375   6.465   7.998  0.00  0.00    +0.074 C 
ATOM     10  C   UNL     1      10.660   7.699   7.408  0.00  0.00    +0.024 C 
ATOM     11  C   UNL     1       8.674   6.829   8.616  0.00  0.00    +0.019 C 
ATOM     12  C   UNL     1       9.935   5.120   6.569  0.00  0.00    +0.094 C 
ATOM     13  C   UNL     1       9.370   5.482   8.876  0.00  0.00    +0.085 C 
ENDROOT
BRANCH   8  15
ATOM      4  N   UNL     1       8.301   7.722   4.350  0.00  0.00    -0.237 NA
ATOM      5  N   UNL     1       9.098   7.370   2.104  0.00  0.00    -0.232 NA
ATOM     15  C   UNL     1       9.021   6.648   4.735  0.00  0.00    +0.050 A 
ATOM     16  C   UNL     1       9.793   5.895   3.875  0.00  0.00    +0.052 A 
ATOM     17  C   UNL     1       9.793   6.305   2.558  0.00  0.00    +0.075 A 
ATOM     18  C   UNL     1       8.384   8.022   3.040  0.00  0.00    +0.127 A 
ATOM     21  C   UNL     1       7.601   9.203   2.577  0.00  0.00    +0.088 C 
BRANCH  17  20
ATOM     20  C   UNL     1      10.559   5.601   1.557  0.00  0.00    +0.001 A 
ATOM     23  C   UNL     1      11.497   4.644   1.943  0.00  0.00    +0.012 A 
ATOM     24  C   UNL     1      10.360   5.878   0.204  0.00  0.00    +0.012 A 
ATOM     27  C   UNL     1      12.237   3.964   0.974  0.00  0.00    +0.024 A 
ATOM     28  C   UNL     1      11.099   5.198  -0.763  0.00  0.00    +0.024 A 
ATOM     29  C   UNL     1      12.038   4.240  -0.377  0.00  0.00    +0.029 A 
BRANCH  29   6
ATOM      6  N   UNL     1      12.786   3.552  -1.356  0.00  0.00    -0.336 N 
ATOM     34  C   UNL     1      14.144   3.956  -1.659  0.00  0.00    +0.129 C 
ATOM     35  C   UNL     1      12.207   2.429  -2.065  0.00  0.00    +0.129 C 
ENDBRANCH  29   6
ENDBRANCH  17  20
ENDBRANCH   8  15
BRANCH   9  14
ATOM     14  C   UNL     1      12.736   6.224   7.339  0.00  0.00    +0.123 C 
BRANCH  14   3
ATOM      1  O   UNL     1      14.838   7.482   5.841  0.00  0.00    -0.270 OA
ATOM      3  N   UNL     1      12.702   6.582   5.954  0.00  0.00    -0.310 N 
ATOM     19  C   UNL     1      13.773   7.192   5.303  0.00  0.00    +0.244 C 
ATOM     36  H   UNL     1      11.828   6.426   5.464  0.00  0.00    +0.149 HD
BRANCH  19  22
ATOM     22  C   UNL     1      13.571   7.523   3.869  0.00  0.00    +0.037 A 
ATOM     25  C   UNL     1      14.325   6.878   2.890  0.00  0.00    +0.013 A 
ATOM     26  C   UNL     1      12.627   8.482   3.502  0.00  0.00    +0.013 A 
ATOM     30  C   UNL     1      14.136   7.190   1.545  0.00  0.00    +0.004 A 
ATOM     31  C   UNL     1      12.437   8.795   2.156  0.00  0.00    +0.004 A 
ATOM     32  C   UNL     1      13.192   8.149   1.177  0.00  0.00    -0.050 A 
ATOM     33  C   UNL     1      12.990   8.484  -0.263  0.00  0.00    +0.044 C 
ENDBRANCH  19  22
ENDBRANCH  14   3
ENDBRANCH   9  14
TORSDOF 6
ENDMDL
MODEL 4
REMARK VINA RESULT:      -7.8     18.707     21.858
REMARK  Name = 26742480
REMARK  10 active torsions:
REMARK  status: ('A' for Active; 'I' for Inactive)
REMARK    1  A    between atoms: N_3  and  C_14
REMARK    2  A    between atoms: N_6  and  C_29
REMARK    3  A    between atoms: N_6  and  C_34
REMARK    4  A    between atoms: N_6  and  C_35
REMARK    5  A    between atoms: C_8  and  C_15
REMARK    6  A    between atoms: C_9  and  C_14
REMARK    7  A    between atoms: C_17  and  C_20
REMARK    8  A    between atoms: C_18  and  C_21
REMARK    9  A    between atoms: C_19  and  C_22
REMARK   10  A    between atoms: C_32  and  C_33
REMARK                            x       y       z     vdW  Elec       q    Type
REMARK                         _______ _______ _______ _____ _____    ______ ____
ROOT
ATOM      2  N   UNL     1     -11.483  -9.881  17.203  0.00  0.00    -0.297 NA
ATOM      7  C   UNL     1     -10.216  -8.101  15.786  0.00  0.00    +0.002 C 
ATOM      8  C   UNL     1     -10.346  -9.431  14.996  0.00  0.00    +0.055 C 
ATOM      9  C   UNL     1     -10.390  -9.275  18.008  0.00  0.00    +0.074 C 
ATOM     10  C   UNL     1      -9.500  -8.372  17.127  0.00  0.00    +0.024 C 
ATOM     11  C   UNL     1     -11.649  -7.639  16.123  0.00  0.00    +0.019 C 
ATOM     12  C   UNL     1     -10.927 -10.495  15.971  0.00  0.00    +0.094 C 
ATOM     13  C   UNL     1     -12.407  -8.794  16.801  0.00  0.00    +0.085 C 
ENDROOT
BRANCH   8  15
ATOM      4  N   UNL     1      -8.852  -9.352  13.061  0.00  0.00    -0.237 NA
ATOM      5  N   UNL     1      -6.954 -10.820  12.842  0.00  0.00    -0.232 NA
ATOM     15  C   UNL     1      -9.127  -9.944  14.242  0.00  0.00    +0.050 A 
ATOM     16  C   UNL     1      -8.374 -10.966  14.781  0.00  0.00    +0.052 A 
ATOM     17  C   UNL     1      -7.289 -11.369  14.030  0.00  0.00    +0.075 A 
ATOM     18  C   UNL     1      -7.767  -9.833  12.424  0.00  0.00    +0.127 A 
ATOM     21  C   UNL     1      -7.431  -9.204  11.114  0.00  0.00    +0.088 C 
BRANCH  17  20
ATOM     20  C   UNL     1      -6.420 -12.430  14.482  0.00  0.00    +0.001 A 
ATOM     23  C   UNL     1      -6.776 -13.197  15.590  0.00  0.00    +0.012 A 
ATOM     24  C   UNL     1      -5.225 -12.687  13.809  0.00  0.00    +0.012 A 
ATOM     27  C   UNL     1      -5.937 -14.223  16.026  0.00  0.00    +0.024 A 
ATOM     28  C   UNL     1      -4.387 -13.712  14.245  0.00  0.00    +0.024 A 
ATOM     29  C   UNL     1      -4.743 -14.480  15.354  0.00  0.00    +0.029 A 
BRANCH  29   6
ATOM      6  N   UNL     1      -3.894 -15.517  15.794  0.00  0.00    -0.336 N 
ATOM     34  C   UNL     1      -2.786 -15.958  14.971  0.00  0.00    +0.129 C 
ATOM     35  C   UNL     1      -4.115 -16.150  17.079  0.00  0.00    +0.129 C 
ENDBRANCH  29   6
ENDBRANCH  17  20
ENDBRANCH   8  15
BRANCH   9  14
ATOM     14  C   UNL     1      -9.569 -10.325  18.760  0.00  0.00    +0.123 C 
BRANCH  14   3
ATOM      1  O   UNL     1      -7.093 -10.677  20.172  0.00  0.00    -0.270 OA
ATOM      3  N   UNL     1      -8.268 -10.467  18.181  0.00  0.00    -0.310 N 
ATOM     19  C   UNL     1      -7.114 -10.635  18.945  0.00  0.00    +0.244 C 
ATOM     36  H   UNL     1      -8.206 -10.379  17.174  0.00  0.00    +0.149 HD
BRANCH  19  22
ATOM     22  C   UNL     1      -5.837 -10.742  18.194  0.00  0.00    +0.037 A 
ATOM     25  C   UNL     1      -4.853 -11.637  18.613  0.00  0.00    +0.013 A 
ATOM     26  C   UNL     1      -5.621  -9.945  17.070  0.00  0.00    +0.013 A 
ATOM     30  C   UNL     1      -3.654 -11.736  17.908  0.00  0.00    +0.004 A 
ATOM     31  C   UNL     1      -4.422 -10.044  16.364  0.00  0.00    +0.004 A 
ATOM     32  C   UNL     1      -3.438 -10.940  16.784  0.00  0.00    -0.050 A 
ATOM     33  C   UNL     1      -2.155 -11.045  16.030  0.00  0.00    +0.044 C 
ENDBRANCH  19  22
ENDBRANCH  14   3
ENDBRANCH   9  14
TORSDOF 6
ENDMDL
MODEL 5
REMARK VINA RESULT:      -7.8     19.399     22.434
REMARK  Name = 26742480
REMARK  10 active torsions:
REMARK  status: ('A' for Active; 'I' for Inactive)
REMARK    1  A    between atoms: N_3  and  C_14
REMARK    2  A    between atoms: N_6  and  C_29
REMARK    3  A    between atoms: N_6  and  C_34
REMARK    4  A    between atoms: N_6  and  C_35
REMARK    5  A    between atoms: C_8  and  C_15
REMARK    6  A    between atoms: C_9  and  C_14
REMARK    7  A    between atoms: C_17  and  C_20
REMARK    8  A    between atoms: C_18  and  C_21
REMARK    9  A    between atoms: C_19  and  C_22
REMARK   10  A    between atoms: C_32  and  C_33
REMARK                            x       y       z     vdW  Elec       q    Type
REMARK                         _______ _______ _______ _____ _____    ______ ____
ROOT
ATOM      2  N   UNL     1      -5.118 -11.372   9.904  0.00  0.00    -0.297 NA
ATOM      7  C   UNL     1      -4.499  -9.171  11.151  0.00  0.00    +0.002 C 
ATOM      8  C   UNL     1      -3.655 -10.358  11.692  0.00  0.00    +0.055 C 
ATOM      9  C   UNL     1      -6.352 -10.695  10.382  0.00  0.00    +0.074 C 
ATOM     10  C   UNL     1      -6.000  -9.503  11.298  0.00  0.00    +0.024 C 
ATOM     11  C   UNL     1      -4.205  -9.066   9.639  0.00  0.00    +0.019 C 
ATOM     12  C   UNL     1      -4.218 -11.658  11.049  0.00  0.00    +0.094 C 
ATOM     13  C   UNL     1      -4.417 -10.442   8.985  0.00  0.00    +0.085 C 
ENDROOT
BRANCH   8  15
ATOM      4  N   UNL     1      -2.234 -10.298  13.681  0.00  0.00    -0.237 NA
ATOM      5  N   UNL     1      -3.100 -10.711  15.891  0.00  0.00    -0.232 NA
ATOM     15  C   UNL     1      -3.479 -10.488  13.198  0.00  0.00    +0.050 A 
ATOM     16  C   UNL     1      -4.570 -10.788  13.987  0.00  0.00    +0.052 A 
ATOM     17  C   UNL     1      -4.319 -10.890  15.340  0.00  0.00    +0.075 A 
ATOM     18  C   UNL     1      -2.118 -10.424  15.017  0.00  0.00    +0.127 A 
ATOM     21  C   UNL     1      -0.756 -10.222  15.589  0.00  0.00    +0.088 C 
BRANCH  17  20
ATOM     20  C   UNL     1      -5.375 -11.200  16.274  0.00  0.00    +0.001 A 
ATOM     23  C   UNL     1      -5.963 -10.183  17.025  0.00  0.00    +0.012 A 
ATOM     24  C   UNL     1      -5.808 -12.518  16.423  0.00  0.00    +0.012 A 
ATOM     27  C   UNL     1      -6.985 -10.484  17.927  0.00  0.00    +0.024 A 
ATOM     28  C   UNL     1      -6.830 -12.819  17.324  0.00  0.00    +0.024 A 
ATOM     29  C   UNL     1      -7.417 -11.801  18.076  0.00  0.00    +0.029 A 
BRANCH  29   6
ATOM      6  N   UNL     1      -8.450 -12.105  18.988  0.00  0.00    -0.336 N 
ATOM     34  C   UNL     1      -9.123 -11.047  19.713  0.00  0.00    +0.129 C 
ATOM     35  C   UNL     1      -8.856 -13.479  19.204  0.00  0.00    +0.129 C 
ENDBRANCH  29   6
ENDBRANCH  17  20
ENDBRANCH   8  15
BRANCH   9  14
ATOM     14  C   UNL     1      -7.325 -11.665  11.057  0.00  0.00    +0.123 C 
BRANCH  14   3
ATOM      1  O   UNL     1      -7.787 -12.827  13.642  0.00  0.00    -0.270 OA
ATOM      3  N   UNL     1      -7.977 -11.043  12.168  0.00  0.00    -0.310 N 
ATOM     19  C   UNL     1      -8.159 -11.683  13.393  0.00  0.00    +0.244 C 
ATOM     36  H   UNL     1      -8.364 -10.120  12.011  0.00  0.00    +0.149 HD
BRANCH  19  22
ATOM     22  C   UNL     1      -8.878 -10.911  14.440  0.00  0.00    +0.037 A 
ATOM     25  C   UNL     1      -8.639  -9.546  14.589  0.00  0.00    +0.013 A 
ATOM     26  C   UNL     1      -9.792 -11.555  15.274  0.00  0.00    +0.013 A 
ATOM     30  C   UNL     1      -9.313  -8.823  15.572  0.00  0.00    +0.004 A 
ATOM     31  C   UNL     1     -10.468 -10.831  16.257  0.00  0.00    +0.004 A 
ATOM     32  C   UNL     1     -10.228  -9.465  16.407  0.00  0.00    -0.050 A 
ATOM     33  C   UNL     1     -10.949  -8.692  17.459  0.00  0.00    +0.044 C 
ENDBRANCH  19  22
ENDBRANCH  14   3
ENDBRANCH   9  14
TORSDOF 6
ENDMDL
MODEL 6
REMARK VINA RESULT:      -7.7     32.014     37.602
REMARK  Name = 26742480
REMARK  10 active torsions:
REMARK  status: ('A' for Active; 'I' for Inactive)
REMARK    1  A    between atoms: N_3  and  C_14
REMARK    2  A    between atoms: N_6  and  C_29
REMARK    3  A    between atoms: N_6  and  C_34
REMARK    4  A    between atoms: N_6  and  C_35
REMARK    5  A    between atoms: C_8  and  C_15
REMARK    6  A    between atoms: C_9  and  C_14
REMARK    7  A    between atoms: C_17  and  C_20
REMARK    8  A    between atoms: C_18  and  C_21
REMARK    9  A    between atoms: C_19  and  C_22
REMARK   10  A    between atoms: C_32  and  C_33
REMARK                            x       y       z     vdW  Elec       q    Type
REMARK                         _______ _______ _______ _____ _____    ______ ____
ROOT
ATOM      2  N   UNL     1      13.438   4.409  -2.376  0.00  0.00    -0.297 NA
ATOM      7  C   UNL     1      11.569   3.460  -0.830  0.00  0.00    +0.002 C 
ATOM      8  C   UNL     1      11.160   4.852  -1.386  0.00  0.00    +0.055 C 
ATOM      9  C   UNL     1      14.025   3.956  -1.087  0.00  0.00    +0.074 C 
ATOM     10  C   UNL     1      12.914   3.585  -0.083  0.00  0.00    +0.024 C 
ATOM     11  C   UNL     1      11.812   2.546  -2.050  0.00  0.00    +0.019 C 
ATOM     12  C   UNL     1      12.396   5.436  -2.128  0.00  0.00    +0.094 C 
ATOM     13  C   UNL     1      12.789   3.238  -3.015  0.00  0.00    +0.085 C 
ENDROOT
BRANCH   8  15
ATOM      4  N   UNL     1      10.055   6.994  -0.969  0.00  0.00    -0.237 NA
ATOM      5  N   UNL     1       9.403   7.694   1.242  0.00  0.00    -0.232 NA
ATOM     15  C   UNL     1      10.535   5.855  -0.427  0.00  0.00    +0.050 A 
ATOM     16  C   UNL     1      10.486   5.568   0.921  0.00  0.00    +0.052 A 
ATOM     17  C   UNL     1       9.905   6.534   1.717  0.00  0.00    +0.075 A 
ATOM     18  C   UNL     1       9.511   7.856  -0.090  0.00  0.00    +0.127 A 
ATOM     21  C   UNL     1       8.971   9.127  -0.651  0.00  0.00    +0.088 C 
BRANCH  17  20
ATOM     20  C   UNL     1       9.793   6.356   3.145  0.00  0.00    +0.001 A 
ATOM     23  C   UNL     1       9.013   7.233   3.898  0.00  0.00    +0.012 A 
ATOM     24  C   UNL     1      10.464   5.305   3.771  0.00  0.00    +0.012 A 
ATOM     27  C   UNL     1       8.905   7.059   5.279  0.00  0.00    +0.024 A 
ATOM     28  C   UNL     1      10.355   5.131   5.151  0.00  0.00    +0.024 A 
ATOM     29  C   UNL     1       9.576   6.009   5.905  0.00  0.00    +0.029 A 
BRANCH  29   6
ATOM      6  N   UNL     1       9.466   5.834   7.300  0.00  0.00    -0.336 N 
ATOM     34  C   UNL     1       9.785   4.557   7.906  0.00  0.00    +0.129 C 
ATOM     35  C   UNL     1       9.040   6.931   8.146  0.00  0.00    +0.129 C 
ENDBRANCH  29   6
ENDBRANCH  17  20
ENDBRANCH   8  15
BRANCH   9  14
ATOM     14  C   UNL     1      15.005   4.977  -0.503  0.00  0.00    +0.123 C 
BRANCH  14   3
ATOM      1  O   UNL     1      14.352   7.762  -0.255  0.00  0.00    -0.270 OA
ATOM      3  N   UNL     1      14.444   5.624   0.643  0.00  0.00    -0.310 N 
ATOM     19  C   UNL     1      14.156   6.987   0.678  0.00  0.00    +0.244 C 
ATOM     36  H   UNL     1      14.316   5.054   1.471  0.00  0.00    +0.149 HD
BRANCH  19  22
ATOM     22  C   UNL     1      13.601   7.512   1.951  0.00  0.00    +0.037 A 
ATOM     25  C   UNL     1      12.806   8.657   1.948  0.00  0.00    +0.013 A 
ATOM     26  C   UNL     1      13.877   6.859   3.153  0.00  0.00    +0.013 A 
ATOM     30  C   UNL     1      12.286   9.150   3.144  0.00  0.00    +0.004 A 
ATOM     31  C   UNL     1      13.356   7.351   4.350  0.00  0.00    +0.004 A 
ATOM     32  C   UNL     1      12.561   8.497   4.345  0.00  0.00    -0.050 A 
ATOM     33  C   UNL     1      12.005   9.024   5.625  0.00  0.00    +0.044 C 
ENDBRANCH  19  22
ENDBRANCH  14   3
ENDBRANCH   9  14
TORSDOF 6
ENDMDL
MODEL 7
REMARK VINA RESULT:      -7.7     31.853     34.697
REMARK  Name = 26742480
REMARK  10 active torsions:
REMARK  status: ('A' for Active; 'I' for Inactive)
REMARK    1  A    between atoms: N_3  and  C_14
REMARK    2  A    between atoms: N_6  and  C_29
REMARK    3  A    between atoms: N_6  and  C_34
REMARK    4  A    between atoms: N_6  and  C_35
REMARK    5  A    between atoms: C_8  and  C_15
REMARK    6  A    between atoms: C_9  and  C_14
REMARK    7  A    between atoms: C_17  and  C_20
REMARK    8  A    between atoms: C_18  and  C_21
REMARK    9  A    between atoms: C_19  and  C_22
REMARK   10  A    between atoms: C_32  and  C_33
REMARK                            x       y       z     vdW  Elec       q    Type
REMARK                         _______ _______ _______ _____ _____    ______ ____
ROOT
ATOM      2  N   UNL     1      18.885  -2.450  32.069  0.00  0.00    -0.297 NA
ATOM      7  C   UNL     1      16.368  -2.247  31.430  0.00  0.00    +0.002 C 
ATOM      8  C   UNL     1      16.777  -3.740  31.561  0.00  0.00    +0.055 C 
ATOM      9  C   UNL     1      18.727  -1.533  30.910  0.00  0.00    +0.074 C 
ATOM     10  C   UNL     1      17.275  -1.560  30.387  0.00  0.00    +0.024 C 
ATOM     11  C   UNL     1      16.662  -1.583  32.793  0.00  0.00    +0.019 C 
ATOM     12  C   UNL     1      18.321  -3.784  31.743  0.00  0.00    +0.094 C 
ATOM     13  C   UNL     1      18.113  -1.887  33.202  0.00  0.00    +0.085 C 
ENDROOT
BRANCH   8  15
ATOM      4  N   UNL     1      15.147  -5.377  30.760  0.00  0.00    -0.237 NA
ATOM      5  N   UNL     1      15.373  -6.478  28.629  0.00  0.00    -0.232 NA
ATOM     15  C   UNL     1      16.292  -4.715  30.497  0.00  0.00    +0.050 A 
ATOM     16  C   UNL     1      17.025  -4.878  29.340  0.00  0.00    +0.052 A 
ATOM     17  C   UNL     1      16.514  -5.783  28.432  0.00  0.00    +0.075 A 
ATOM     18  C   UNL     1      14.751  -6.231  29.796  0.00  0.00    +0.127 A 
ATOM     21  C   UNL     1      13.489  -6.983  30.050  0.00  0.00    +0.088 C 
BRANCH  17  20
ATOM     20  C   UNL     1      17.186  -6.046  27.182  0.00  0.00    +0.001 A 
ATOM     23  C   UNL     1      16.443  -6.362  26.045  0.00  0.00    +0.012 A 
ATOM     24  C   UNL     1      18.578  -5.982  27.112  0.00  0.00    +0.012 A 
ATOM     27  C   UNL     1      17.094  -6.615  24.836  0.00  0.00    +0.024 A 
ATOM     28  C   UNL     1      19.227  -6.235  25.904  0.00  0.00    +0.024 A 
ATOM     29  C   UNL     1      18.485  -6.552  24.766  0.00  0.00    +0.029 A 
BRANCH  29   6
ATOM      6  N   UNL     1      19.142  -6.808  23.545  0.00  0.00    -0.336 N 
ATOM     34  C   UNL     1      18.514  -6.459  22.287  0.00  0.00    +0.129 C 
ATOM     35  C   UNL     1      20.457  -7.416  23.533  0.00  0.00    +0.129 C 
ENDBRANCH  29   6
ENDBRANCH  17  20
ENDBRANCH   8  15
BRANCH   9  14
ATOM     14  C   UNL     1      19.740  -1.819  29.798  0.00  0.00    +0.123 C 
BRANCH  14   3
ATOM      1  O   UNL     1      20.955  -2.033  27.205  0.00  0.00    -0.270 OA
ATOM      3  N   UNL     1      19.075  -2.106  28.564  0.00  0.00    -0.310 N 
ATOM     19  C   UNL     1      19.745  -2.192  27.345  0.00  0.00    +0.244 C 
ATOM     36  H   UNL     1      18.065  -2.188  28.599  0.00  0.00    +0.149 HD
BRANCH  19  22
ATOM     22  C   UNL     1      18.908  -2.472  26.150  0.00  0.00    +0.037 A 
ATOM     25  C   UNL     1      19.511  -2.747  24.924  0.00  0.00    +0.013 A 
ATOM     26  C   UNL     1      17.517  -2.459  26.256  0.00  0.00    +0.013 A 
ATOM     30  C   UNL     1      18.724  -3.008  23.803  0.00  0.00    +0.004 A 
ATOM     31  C   UNL     1      16.730  -2.721  25.135  0.00  0.00    +0.004 A 
ATOM     32  C   UNL     1      17.333  -2.996  23.908  0.00  0.00    -0.050 A 
ATOM     33  C   UNL     1      16.492  -3.275  22.708  0.00  0.00    +0.044 C 
ENDBRANCH  19  22
ENDBRANCH  14   3
ENDBRANCH   9  14
TORSDOF 6
ENDMDL
MODEL 8
REMARK VINA RESULT:      -7.7     31.742     36.633
REMARK  Name = 26742480
REMARK  10 active torsions:
REMARK  status: ('A' for Active; 'I' for Inactive)
REMARK    1  A    between atoms: N_3  and  C_14
REMARK    2  A    between atoms: N_6  and  C_29
REMARK    3  A    between atoms: N_6  and  C_34
REMARK    4  A    between atoms: N_6  and  C_35
REMARK    5  A    between atoms: C_8  and  C_15
REMARK    6  A    between atoms: C_9  and  C_14
REMARK    7  A    between atoms: C_17  and  C_20
REMARK    8  A    between atoms: C_18  and  C_21
REMARK    9  A    between atoms: C_19  and  C_22
REMARK   10  A    between atoms: C_32  and  C_33
REMARK                            x       y       z     vdW  Elec       q    Type
REMARK                         _______ _______ _______ _____ _____    ______ ____
ROOT
ATOM      2  N   UNL     1       9.253   7.800   7.499  0.00  0.00    -0.297 NA
ATOM      7  C   UNL     1       9.871   5.532   6.380  0.00  0.00    +0.002 C 
ATOM      8  C   UNL     1      11.105   6.475   6.415  0.00  0.00    +0.055 C 
ATOM      9  C   UNL     1       8.255   7.462   6.450  0.00  0.00    +0.074 C 
ATOM     10  C   UNL     1       8.713   6.233   5.638  0.00  0.00    +0.024 C 
ATOM     11  C   UNL     1       9.418   5.336   7.842  0.00  0.00    +0.019 C 
ATOM     12  C   UNL     1      10.612   7.866   6.907  0.00  0.00    +0.094 C 
ATOM     13  C   UNL     1       9.239   6.712   8.506  0.00  0.00    +0.085 C 
ENDROOT
BRANCH   8  15
ATOM      4  N   UNL     1      13.102   7.301   5.269  0.00  0.00    -0.237 NA
ATOM      5  N   UNL     1      13.556   6.800   2.956  0.00  0.00    -0.232 NA
ATOM     15  C   UNL     1      11.968   6.577   5.164  0.00  0.00    +0.050 A 
ATOM     16  C   UNL     1      11.565   5.945   4.007  0.00  0.00    +0.052 A 
ATOM     17  C   UNL     1      12.406   6.093   2.922  0.00  0.00    +0.075 A 
ATOM     18  C   UNL     1      13.837   7.369   4.143  0.00  0.00    +0.127 A 
ATOM     21  C   UNL     1      15.099   8.161   4.219  0.00  0.00    +0.088 C 
BRANCH  17  20
ATOM     20  C   UNL     1      12.099   5.481   1.651  0.00  0.00    +0.001 A 
ATOM     23  C   UNL     1      13.061   5.450   0.642  0.00  0.00    +0.012 A 
ATOM     24  C   UNL     1      10.840   4.920   1.434  0.00  0.00    +0.012 A 
ATOM     27  C   UNL     1      12.763   4.858  -0.586  0.00  0.00    +0.024 A 
ATOM     28  C   UNL     1      10.543   4.328   0.206  0.00  0.00    +0.024 A 
ATOM     29  C   UNL     1      11.505   4.298  -0.804  0.00  0.00    +0.029 A 
BRANCH  29   6
ATOM      6  N   UNL     1      11.205   3.699  -2.045  0.00  0.00    -0.336 N 
ATOM     34  C   UNL     1      11.932   2.527  -2.490  0.00  0.00    +0.129 C 
ATOM     35  C   UNL     1      10.160   4.244  -2.888  0.00  0.00    +0.129 C 
ENDBRANCH  29   6
ENDBRANCH  17  20
ENDBRANCH   8  15
BRANCH   9  14
ATOM     14  C   UNL     1       7.931   8.656   5.548  0.00  0.00    +0.123 C 
BRANCH  14   3
ATOM      1  O   UNL     1      10.130  10.045   4.332  0.00  0.00    -0.270 OA
ATOM      3  N   UNL     1       8.446   8.451   4.229  0.00  0.00    -0.310 N 
ATOM     19  C   UNL     1       9.522   9.173   3.716  0.00  0.00    +0.244 C 
ATOM     36  H   UNL     1       7.950   7.788   3.644  0.00  0.00    +0.149 HD
BRANCH  19  22
ATOM     22  C   UNL     1       9.921   8.861   2.319  0.00  0.00    +0.037 A 
ATOM     25  C   UNL     1      11.173   9.249   1.846  0.00  0.00    +0.013 A 
ATOM     26  C   UNL     1       9.040   8.178   1.480  0.00  0.00    +0.013 A 
ATOM     30  C   UNL     1      11.546   8.957   0.535  0.00  0.00    +0.004 A 
ATOM     31  C   UNL     1       9.413   7.884   0.168  0.00  0.00    +0.004 A 
ATOM     32  C   UNL     1      10.666   8.274  -0.305  0.00  0.00    -0.050 A 
ATOM     33  C   UNL     1      11.064   7.961  -1.708  0.00  0.00    +0.044 C 
ENDBRANCH  19  22
ENDBRANCH  14   3
ENDBRANCH   9  14
TORSDOF 6
ENDMDL
MODEL 9
REMARK VINA RESULT:      -7.6     20.792     24.136
REMARK  Name = 26742480
REMARK  10 active torsions:
REMARK  status: ('A' for Active; 'I' for Inactive)
REMARK    1  A    between atoms: N_3  and  C_14
REMARK    2  A    between atoms: N_6  and  C_29
REMARK    3  A    between atoms: N_6  and  C_34
REMARK    4  A    between atoms: N_6  and  C_35
REMARK    5  A    between atoms: C_8  and  C_15
REMARK    6  A    between atoms: C_9  and  C_14
REMARK    7  A    between atoms: C_17  and  C_20
REMARK    8  A    between atoms: C_18  and  C_21
REMARK    9  A    between atoms: C_19  and  C_22
REMARK   10  A    between atoms: C_32  and  C_33
REMARK                            x       y       z     vdW  Elec       q    Type
REMARK                         _______ _______ _______ _____ _____    ______ ____
ROOT
ATOM      2  N   UNL     1      -4.236 -11.578  17.568  0.00  0.00    -0.297 NA
ATOM      7  C   UNL     1      -6.430 -10.588  16.574  0.00  0.00    +0.002 C 
ATOM      8  C   UNL     1      -6.286 -12.085  16.186  0.00  0.00    +0.055 C 
ATOM      9  C   UNL     1      -3.943 -10.307  16.857  0.00  0.00    +0.074 C 
ATOM     10  C   UNL     1      -5.187  -9.812  16.088  0.00  0.00    +0.024 C 
ATOM     11  C   UNL     1      -6.429 -10.524  18.116  0.00  0.00    +0.019 C 
ATOM     12  C   UNL     1      -4.871 -12.547  16.639  0.00  0.00    +0.094 C 
ATOM     13  C   UNL     1      -5.201 -11.280  18.654  0.00  0.00    +0.085 C 
ENDROOT
BRANCH   8  15
ATOM      4  N   UNL     1      -6.689 -13.812  14.503  0.00  0.00    -0.237 NA
ATOM      5  N   UNL     1      -7.142 -13.278  12.197  0.00  0.00    -0.232 NA
ATOM     15  C   UNL     1      -6.594 -12.490  14.751  0.00  0.00    +0.050 A 
ATOM     16  C   UNL     1      -6.757 -11.515  13.790  0.00  0.00    +0.052 A 
ATOM     17  C   UNL     1      -7.031 -11.971  12.517  0.00  0.00    +0.075 A 
ATOM     18  C   UNL     1      -6.961 -14.131  13.223  0.00  0.00    +0.127 A 
ATOM     21  C   UNL     1      -7.074 -15.584  12.908  0.00  0.00    +0.088 C 
BRANCH  17  20
ATOM     20  C   UNL     1      -7.223 -11.053  11.420  0.00  0.00    +0.001 A 
ATOM     23  C   UNL     1      -6.923  -9.701  11.582  0.00  0.00    +0.012 A 
ATOM     24  C   UNL     1      -7.707 -11.519  10.197  0.00  0.00    +0.012 A 
ATOM     27  C   UNL     1      -7.108  -8.814  10.520  0.00  0.00    +0.024 A 
ATOM     28  C   UNL     1      -7.891 -10.633   9.136  0.00  0.00    +0.024 A 
ATOM     29  C   UNL     1      -7.592  -9.279   9.298  0.00  0.00    +0.029 A 
BRANCH  29   6
ATOM      6  N   UNL     1      -7.779  -8.383   8.226  0.00  0.00    -0.336 N 
ATOM     34  C   UNL     1      -7.495  -8.797   6.866  0.00  0.00    +0.129 C 
ATOM     35  C   UNL     1      -8.263  -7.039   8.469  0.00  0.00    +0.129 C 
ENDBRANCH  29   6
ENDBRANCH  17  20
ENDBRANCH   8  15
BRANCH   9  14
ATOM     14  C   UNL     1      -2.717 -10.417  15.947  0.00  0.00    +0.123 C 
BRANCH  14   3
ATOM      1  O   UNL     1      -1.749 -12.183  13.901  0.00  0.00    -0.270 OA
ATOM      3  N   UNL     1      -3.102 -10.420  14.570  0.00  0.00    -0.310 N 
ATOM     19  C   UNL     1      -2.580 -11.317  13.640  0.00  0.00    +0.244 C 
ATOM     36  H   UNL     1      -3.739  -9.690  14.273  0.00  0.00    +0.149 HD
BRANCH  19  22
ATOM     22  C   UNL     1      -3.063 -11.175  12.242  0.00  0.00    +0.037 A 
ATOM     25  C   UNL     1      -3.062  -9.924  11.627  0.00  0.00    +0.013 A 
ATOM     26  C   UNL     1      -3.519 -12.294  11.545  0.00  0.00    +0.013 A 
ATOM     30  C   UNL     1      -3.515  -9.791  10.315  0.00  0.00    +0.004 A 
ATOM     31  C   UNL     1      -3.973 -12.162  10.233  0.00  0.00    +0.004 A 
ATOM     32  C   UNL     1      -3.971 -10.910   9.618  0.00  0.00    -0.050 A 
ATOM     33  C   UNL     1      -4.458 -10.768   8.215  0.00  0.00    +0.044 C 
ENDBRANCH  19  22
ENDBRANCH  14   3
ENDBRANCH   9  14
TORSDOF 6
ENDMDL
MODEL 10
REMARK VINA RESULT:      -7.6      6.931     11.342
REMARK  Name = 26742480
REMARK  10 active torsions:
REMARK  status: ('A' for Active; 'I' for Inactive)
REMARK    1  A    between atoms: N_3  and  C_14
REMARK    2  A    between atoms: N_6  and  C_29
REMARK    3  A    between atoms: N_6  and  C_34
REMARK    4  A    between atoms: N_6  and  C_35
REMARK    5  A    between atoms: C_8  and  C_15
REMARK    6  A    between atoms: C_9  and  C_14
REMARK    7  A    between atoms: C_17  and  C_20
REMARK    8  A    between atoms: C_18  and  C_21
REMARK    9  A    between atoms: C_19  and  C_22
REMARK   10  A    between atoms: C_32  and  C_33
REMARK                            x       y       z     vdW  Elec       q    Type
REMARK                         _______ _______ _______ _____ _____    ______ ____
ROOT
ATOM      2  N   UNL     1      -9.792  11.194  16.944  0.00  0.00    -0.297 NA
ATOM      7  C   UNL     1     -12.294  11.701  16.429  0.00  0.00    +0.002 C 
ATOM      8  C   UNL     1     -11.958  12.063  17.902  0.00  0.00    +0.055 C 
ATOM      9  C   UNL     1     -10.428  10.014  16.302  0.00  0.00    +0.074 C 
ATOM     10  C   UNL     1     -11.953  10.217  16.177  0.00  0.00    +0.024 C 
ATOM     11  C   UNL     1     -11.352  12.539  15.539  0.00  0.00    +0.019 C 
ATOM     12  C   UNL     1     -10.518  11.549  18.189  0.00  0.00    +0.094 C 
ATOM     13  C   UNL     1      -9.900  12.336  16.005  0.00  0.00    +0.085 C 
ENDROOT
BRANCH   8  15
ATOM      4  N   UNL     1     -14.227  11.476  18.604  0.00  0.00    -0.237 NA
ATOM      5  N   UNL     1     -14.761  10.918  20.886  0.00  0.00    -0.232 NA
ATOM     15  C   UNL     1     -12.945  11.652  18.987  0.00  0.00    +0.050 A 
ATOM     16  C   UNL     1     -12.501  11.483  20.281  0.00  0.00    +0.052 A 
ATOM     17  C   UNL     1     -13.462  11.113  21.199  0.00  0.00    +0.075 A 
ATOM     18  C   UNL     1     -15.069  11.114  19.591  0.00  0.00    +0.127 A 
ATOM     21  C   UNL     1     -16.495  10.911  19.208  0.00  0.00    +0.088 C 
BRANCH  17  20
ATOM     20  C   UNL     1     -13.127  10.904  22.588  0.00  0.00    +0.001 A 
ATOM     23  C   UNL     1     -11.958  11.453  23.113  0.00  0.00    +0.012 A 
ATOM     24  C   UNL     1     -13.975  10.154  23.404  0.00  0.00    +0.012 A 
ATOM     27  C   UNL     1     -11.636  11.252  24.456  0.00  0.00    +0.024 A 
ATOM     28  C   UNL     1     -13.653   9.954  24.746  0.00  0.00    +0.024 A 
ATOM     29  C   UNL     1     -12.483  10.503  25.272  0.00  0.00    +0.029 A 
BRANCH  29   6
ATOM      6  N   UNL     1     -12.157  10.300  26.629  0.00  0.00    -0.336 N 
ATOM     34  C   UNL     1     -13.185  10.364  27.648  0.00  0.00    +0.129 C 
ATOM     35  C   UNL     1     -10.791  10.017  27.021  0.00  0.00    +0.129 C 
ENDBRANCH  29   6
ENDBRANCH  17  20
ENDBRANCH   8  15
BRANCH   9  14
ATOM     14  C   UNL     1     -10.083   8.705  17.016  0.00  0.00    +0.123 C 
BRANCH  14   3
ATOM      1  O   UNL     1     -10.313   8.630  19.877  0.00  0.00    -0.270 OA
ATOM      3  N   UNL     1     -11.200   8.225  17.771  0.00  0.00    -0.310 N 
ATOM     19  C   UNL     1     -11.228   8.226  19.164  0.00  0.00    +0.244 C 
ATOM     36  H   UNL     1     -11.965   7.820  17.244  0.00  0.00    +0.149 HD
BRANCH  19  22
ATOM     22  C   UNL     1     -12.451   7.671  19.799  0.00  0.00    +0.037 A 
ATOM     25  C   UNL     1     -12.358   6.971  21.001  0.00  0.00    +0.013 A 
ATOM     26  C   UNL     1     -13.694   7.850  19.191  0.00  0.00    +0.013 A 
ATOM     30  C   UNL     1     -13.506   6.450  21.596  0.00  0.00    +0.004 A 
ATOM     31  C   UNL     1     -14.843   7.329  19.786  0.00  0.00    +0.004 A 
ATOM     32  C   UNL     1     -14.749   6.628  20.989  0.00  0.00    -0.050 A 
ATOM     33  C   UNL     1     -15.978   6.070  21.625  0.00  0.00    +0.044 C 
ENDBRANCH  19  22
ENDBRANCH  14   3
ENDBRANCH   9  14
TORSDOF 6
ENDMDL
