MODEL 1
REMARK VINA RESULT:      -7.8      0.000      0.000
REMARK  Name = 11865732
REMARK  10 active torsions:
REMARK  status: ('A' for Active; 'I' for Inactive)
REMARK    1  A    between atoms: S_1  and  C_20
REMARK    2  A    between atoms: S_1  and  C_28
REMARK    3  A    between atoms: N_9  and  C_13
REMARK    4  A    between atoms: N_10  and  C_19
REMARK    5  A    between atoms: N_11  and  C_25
REMARK    6  A    between atoms: C_14  and  C_17
REMARK    7  A    between atoms: C_18  and  C_20
REMARK    8  A    between atoms: C_19  and  C_22
REMARK    9  A    between atoms: C_19  and  C_23
REMARK   10  A    between atoms: C_22  and  C_24
REMARK                            x       y       z     vdW  Elec       q    Type
REMARK                         _______ _______ _______ _____ _____    ______ ____
ROOT
ATOM      5  O   UNL     1      11.241  10.504  23.468  0.00  0.00    -0.275 OA
ATOM      8  N   UNL     1      13.399  11.164  22.950  0.00  0.00    -0.287 N 
ATOM     13  C   UNL     1      15.592  11.534  22.117  0.00  0.00    +0.094 C 
ATOM     14  C   UNL     1      13.422  10.597  21.611  0.00  0.00    +0.164 C 
ATOM     15  C   UNL     1      14.661  11.197  20.948  0.00  0.00    +0.055 C 
ATOM     16  C   UNL     1      14.630  11.898  23.242  0.00  0.00    +0.131 C 
ATOM     18  C   UNL     1      12.263  11.135  23.745  0.00  0.00    +0.226 C 
ENDROOT
BRANCH  13   9
ATOM      6  O   UNL     1      17.563  10.281  20.457  0.00  0.00    -0.252 OA
ATOM      9  N   UNL     1      16.434  10.418  22.470  0.00  0.00    -0.295 N 
ATOM     11  N   UNL     1      18.043   8.798  22.212  0.00  0.00    -0.267 N 
ATOM     21  C   UNL     1      17.377   9.862  21.598  0.00  0.00    +0.304 C 
ATOM     37  H   UNL     1      16.295   9.976  23.374  0.00  0.00    +0.151 HD
ATOM     39  H   UNL     1      17.770   8.575  23.166  0.00  0.00    +0.156 HD
BRANCH  11  25
ATOM      2  F   UNL     1      17.491   6.262  21.197  0.00  0.00    -0.203 F 
ATOM      3  F   UNL     1      22.042   5.600  20.088  0.00  0.00    -0.205 F 
ATOM     25  C   UNL     1      19.061   7.980  21.669  0.00  0.00    +0.070 A 
ATOM     29  C   UNL     1      18.752   6.715  21.170  0.00  0.00    +0.147 A 
ATOM     30  C   UNL     1      20.377   8.442  21.634  0.00  0.00    +0.029 A 
ATOM     34  C   UNL     1      19.759   5.911  20.637  0.00  0.00    +0.078 A 
ATOM     35  C   UNL     1      21.384   7.638  21.100  0.00  0.00    +0.040 A 
ATOM     36  C   UNL     1      21.075   6.372  20.602  0.00  0.00    +0.126 A 
ENDBRANCH  11  25
ENDBRANCH  13   9
BRANCH  14  17
ATOM      4  O   UNL     1      14.341   8.563  22.458  0.00  0.00    -0.274 OA
ATOM     10  N   UNL     1      12.626   8.457  20.888  0.00  0.00    -0.302 N 
ATOM     17  C   UNL     1      13.524   9.105  21.719  0.00  0.00    +0.234 C 
ATOM     38  H   UNL     1      11.977   9.008  20.332  0.00  0.00    +0.150 HD
BRANCH  10  19
ATOM     19  C   UNL     1      12.537   7.019  20.789  0.00  0.00    +0.163 C 
BRANCH  19  23
ATOM      7  O   UNL     1      10.469   7.381  22.012  0.00  0.00    -0.274 OA
ATOM     12  N   UNL     1      10.916   5.276  21.210  0.00  0.00    -0.328 N 
ATOM     23  C   UNL     1      11.215   6.606  21.418  0.00  0.00    +0.231 C 
ATOM     40  H   UNL     1      10.056   4.874  21.566  0.00  0.00    +0.145 HD
ATOM     41  H   UNL     1      11.531   4.652  20.696  0.00  0.00    +0.145 HD
ENDBRANCH  19  23
BRANCH  19  22
ATOM     22  C   UNL     1      12.612   6.532  19.337  0.00  0.00    +0.067 C 
BRANCH  22  24
ATOM     24  C   UNL     1      12.822   7.657  18.354  0.00  0.00    -0.045 A 
ATOM     26  C   UNL     1      14.098   8.192  18.169  0.00  0.00    +0.004 A 
ATOM     27  C   UNL     1      11.742   8.164  17.631  0.00  0.00    +0.004 A 
ATOM     31  C   UNL     1      14.292   9.232  17.260  0.00  0.00    +0.000 A 
ATOM     32  C   UNL     1      11.937   9.204  16.722  0.00  0.00    +0.000 A 
ATOM     33  C   UNL     1      13.212   9.739  16.537  0.00  0.00    +0.000 A 
ENDBRANCH  22  24
ENDBRANCH  19  22
ENDBRANCH  10  19
ENDBRANCH  14  17
BRANCH  18  20
ATOM     20  C   UNL     1      12.341  11.935  25.021  0.00  0.00    +0.164 C 
BRANCH  20   1
ATOM      1  S   UNL     1      10.857  12.946  25.124  0.00  0.00    -0.155 S 
ATOM     28  C   UNL     1      11.142  14.009  23.687  0.00  0.00    +0.085 C 
ENDBRANCH  20   1
ENDBRANCH  18  20
TORSDOF 9
ENDMDL
MODEL 2
REMARK VINA RESULT:      -6.9     27.360     30.507
REMARK  Name = 11865732
REMARK  10 active torsions:
REMARK  status: ('A' for Active; 'I' for Inactive)
REMARK    1  A    between atoms: S_1  and  C_20
REMARK    2  A    between atoms: S_1  and  C_28
REMARK    3  A    between atoms: N_9  and  C_13
REMARK    4  A    between atoms: N_10  and  C_19
REMARK    5  A    between atoms: N_11  and  C_25
REMARK    6  A    between atoms: C_14  and  C_17
REMARK    7  A    between atoms: C_18  and  C_20
REMARK    8  A    between atoms: C_19  and  C_22
REMARK    9  A    between atoms: C_19  and  C_23
REMARK   10  A    between atoms: C_22  and  C_24
REMARK                            x       y       z     vdW  Elec       q    Type
REMARK                         _______ _______ _______ _____ _____    ______ ____
ROOT
ATOM      5  O   UNL     1      -5.988 -10.024  16.783  0.00  0.00    -0.275 OA
ATOM      8  N   UNL     1      -7.341 -10.333  14.929  0.00  0.00    -0.287 N 
ATOM     13  C   UNL     1      -8.364 -10.774  12.832  0.00  0.00    +0.094 C 
ATOM     14  C   UNL     1      -6.434 -11.220  14.216  0.00  0.00    +0.164 C 
ATOM     15  C   UNL     1      -7.270 -11.815  13.085  0.00  0.00    +0.055 C 
ATOM     16  C   UNL     1      -8.605 -10.170  14.212  0.00  0.00    +0.131 C 
ATOM     18  C   UNL     1      -7.067  -9.868  16.207  0.00  0.00    +0.226 C 
ENDROOT
BRANCH  13   9
ATOM      6  O   UNL     1      -9.376 -10.420  10.175  0.00  0.00    -0.252 OA
ATOM      9  N   UNL     1      -7.947  -9.779  11.876  0.00  0.00    -0.295 N 
ATOM     11  N   UNL     1      -7.897  -8.619   9.893  0.00  0.00    -0.267 N 
ATOM     21  C   UNL     1      -8.494  -9.672  10.592  0.00  0.00    +0.304 C 
ATOM     37  H   UNL     1      -7.178  -9.163  12.124  0.00  0.00    +0.151 HD
ATOM     39  H   UNL     1      -7.178  -8.093  10.383  0.00  0.00    +0.156 HD
BRANCH  11  25
ATOM      2  F   UNL     1      -9.813  -6.665   9.365  0.00  0.00    -0.203 F 
ATOM      3  F   UNL     1      -8.956  -6.932   4.721  0.00  0.00    -0.205 F 
ATOM     25  C   UNL     1      -8.169  -8.186   8.574  0.00  0.00    +0.070 A 
ATOM     29  C   UNL     1      -9.135  -7.207   8.343  0.00  0.00    +0.147 A 
ATOM     30  C   UNL     1      -7.469  -8.742   7.503  0.00  0.00    +0.029 A 
ATOM     34  C   UNL     1      -9.401  -6.784   7.041  0.00  0.00    +0.078 A 
ATOM     35  C   UNL     1      -7.735  -8.318   6.202  0.00  0.00    +0.040 A 
ATOM     36  C   UNL     1      -8.701  -7.339   5.971  0.00  0.00    +0.126 A 
ENDBRANCH  11  25
ENDBRANCH  13   9
BRANCH  14  17
ATOM      4  O   UNL     1      -5.460  -9.351  13.093  0.00  0.00    -0.274 OA
ATOM     10  N   UNL     1      -4.065 -11.017  13.928  0.00  0.00    -0.302 N 
ATOM     17  C   UNL     1      -5.286 -10.413  13.687  0.00  0.00    +0.234 C 
ATOM     38  H   UNL     1      -4.037 -11.889  14.450  0.00  0.00    +0.150 HD
BRANCH  10  19
ATOM     19  C   UNL     1      -2.806 -10.454  13.500  0.00  0.00    +0.163 C 
BRANCH  19  23
ATOM      7  O   UNL     1      -1.056  -9.722  15.018  0.00  0.00    -0.274 OA
ATOM     12  N   UNL     1      -1.938 -11.825  15.292  0.00  0.00    -0.328 N 
ATOM     23  C   UNL     1      -1.829 -10.606  14.657  0.00  0.00    +0.231 C 
ATOM     40  H   UNL     1      -1.353 -12.050  16.089  0.00  0.00    +0.145 HD
ATOM     41  H   UNL     1      -2.598 -12.537  14.997  0.00  0.00    +0.145 HD
ENDBRANCH  19  23
BRANCH  19  22
ATOM     22  C   UNL     1      -2.258 -11.145  12.245  0.00  0.00    +0.067 C 
BRANCH  22  24
ATOM     24  C   UNL     1      -3.035 -10.796  11.000  0.00  0.00    -0.045 A 
ATOM     26  C   UNL     1      -3.076  -9.476  10.551  0.00  0.00    +0.004 A 
ATOM     27  C   UNL     1      -3.715 -11.793  10.299  0.00  0.00    +0.004 A 
ATOM     31  C   UNL     1      -3.795  -9.153   9.400  0.00  0.00    +0.000 A 
ATOM     32  C   UNL     1      -4.433 -11.470   9.148  0.00  0.00    +0.000 A 
ATOM     33  C   UNL     1      -4.474 -10.150   8.698  0.00  0.00    +0.000 A 
ENDBRANCH  22  24
ENDBRANCH  19  22
ENDBRANCH  10  19
ENDBRANCH  14  17
BRANCH  18  20
ATOM     20  C   UNL     1      -8.190  -9.124  16.884  0.00  0.00    +0.164 C 
BRANCH  20   1
ATOM      1  S   UNL     1      -8.990 -10.261  18.025  0.00  0.00    -0.155 S 
ATOM     28  C   UNL     1     -10.567  -9.398  18.222  0.00  0.00    +0.085 C 
ENDBRANCH  20   1
ENDBRANCH  18  20
TORSDOF 9
ENDMDL
MODEL 3
REMARK VINA RESULT:      -6.8      3.501      5.055
REMARK  Name = 11865732
REMARK  10 active torsions:
REMARK  status: ('A' for Active; 'I' for Inactive)
REMARK    1  A    between atoms: S_1  and  C_20
REMARK    2  A    between atoms: S_1  and  C_28
REMARK    3  A    between atoms: N_9  and  C_13
REMARK    4  A    between atoms: N_10  and  C_19
REMARK    5  A    between atoms: N_11  and  C_25
REMARK    6  A    between atoms: C_14  and  C_17
REMARK    7  A    between atoms: C_18  and  C_20
REMARK    8  A    between atoms: C_19  and  C_22
REMARK    9  A    between atoms: C_19  and  C_23
REMARK   10  A    between atoms: C_22  and  C_24
REMARK                            x       y       z     vdW  Elec       q    Type
REMARK                         _______ _______ _______ _____ _____    ______ ____
ROOT
ATOM      5  O   UNL     1      12.478  11.447  25.626  0.00  0.00    -0.275 OA
ATOM      8  N   UNL     1      12.585  12.613  23.629  0.00  0.00    -0.287 N 
ATOM     13  C   UNL     1      12.560  13.439  21.403  0.00  0.00    +0.094 C 
ATOM     14  C   UNL     1      11.711  11.725  22.879  0.00  0.00    +0.164 C 
ATOM     15  C   UNL     1      11.377  12.486  21.597  0.00  0.00    +0.055 C 
ATOM     16  C   UNL     1      12.988  13.769  22.829  0.00  0.00    +0.131 C 
ATOM     18  C   UNL     1      12.833  12.436  24.982  0.00  0.00    +0.226 C 
ENDROOT
BRANCH  13   9
ATOM      6  O   UNL     1      12.856  13.420  18.553  0.00  0.00    -0.252 OA
ATOM      9  N   UNL     1      13.626  12.825  20.651  0.00  0.00    -0.295 N 
ATOM     11  N   UNL     1      14.837  12.185  18.806  0.00  0.00    -0.267 N 
ATOM     21  C   UNL     1      13.698  12.861  19.253  0.00  0.00    +0.304 C 
ATOM     37  H   UNL     1      14.326  12.290  21.155  0.00  0.00    +0.151 HD
ATOM     39  H   UNL     1      15.436  11.775  19.518  0.00  0.00    +0.156 HD
BRANCH  11  25
ATOM      2  F   UNL     1      13.736  10.204  17.184  0.00  0.00    -0.203 F 
ATOM      3  F   UNL     1      16.533  11.454  13.580  0.00  0.00    -0.205 F 
ATOM     25  C   UNL     1      15.267  11.997  17.472  0.00  0.00    +0.070 A 
ATOM     29  C   UNL     1      14.697  10.995  16.687  0.00  0.00    +0.147 A 
ATOM     30  C   UNL     1      16.265  12.815  16.943  0.00  0.00    +0.029 A 
ATOM     34  C   UNL     1      15.125  10.811  15.372  0.00  0.00    +0.078 A 
ATOM     35  C   UNL     1      16.692  12.632  15.628  0.00  0.00    +0.040 A 
ATOM     36  C   UNL     1      16.123  11.630  14.843  0.00  0.00    +0.126 A 
ENDBRANCH  11  25
ENDBRANCH  13   9
BRANCH  14  17
ATOM      4  O   UNL     1      13.658  10.347  22.779  0.00  0.00    -0.274 OA
ATOM     10  N   UNL     1      11.621   9.471  22.071  0.00  0.00    -0.302 N 
ATOM     17  C   UNL     1      12.450  10.453  22.587  0.00  0.00    +0.234 C 
ATOM     38  H   UNL     1      10.627   9.662  21.973  0.00  0.00    +0.150 HD
BRANCH  10  19
ATOM     19  C   UNL     1      12.092   8.161  21.686  0.00  0.00    +0.163 C 
BRANCH  19  23
ATOM      7  O   UNL     1      10.936   6.043  21.402  0.00  0.00    -0.274 OA
ATOM     12  N   UNL     1       9.793   7.800  22.339  0.00  0.00    -0.328 N 
ATOM     23  C   UNL     1      10.902   7.216  21.767  0.00  0.00    +0.231 C 
ATOM     40  H   UNL     1       8.934   7.275  22.465  0.00  0.00    +0.145 HD
ATOM     41  H   UNL     1       9.786   8.764  22.658  0.00  0.00    +0.145 HD
ENDBRANCH  19  23
BRANCH  19  22
ATOM     22  C   UNL     1      12.688   8.150  20.274  0.00  0.00    +0.067 C 
BRANCH  22  24
ATOM     24  C   UNL     1      14.061   7.525  20.225  0.00  0.00    -0.045 A 
ATOM     26  C   UNL     1      14.775   7.318  21.405  0.00  0.00    +0.004 A 
ATOM     27  C   UNL     1      14.617   7.157  19.000  0.00  0.00    +0.004 A 
ATOM     31  C   UNL     1      16.044   6.740  21.360  0.00  0.00    +0.000 A 
ATOM     32  C   UNL     1      15.885   6.579  18.955  0.00  0.00    +0.000 A 
ATOM     33  C   UNL     1      16.599   6.371  20.134  0.00  0.00    +0.000 A 
ENDBRANCH  22  24
ENDBRANCH  19  22
ENDBRANCH  10  19
ENDBRANCH  14  17
BRANCH  18  20
ATOM     20  C   UNL     1      13.597  13.549  25.655  0.00  0.00    +0.164 C 
BRANCH  20   1
ATOM      1  S   UNL     1      15.240  12.928  26.042  0.00  0.00    -0.155 S 
ATOM     28  C   UNL     1      15.014  12.618  27.810  0.00  0.00    +0.085 C 
ENDBRANCH  20   1
ENDBRANCH  18  20
TORSDOF 9
ENDMDL
MODEL 4
REMARK VINA RESULT:      -6.7     27.797     30.053
REMARK  Name = 11865732
REMARK  10 active torsions:
REMARK  status: ('A' for Active; 'I' for Inactive)
REMARK    1  A    between atoms: S_1  and  C_20
REMARK    2  A    between atoms: S_1  and  C_28
REMARK    3  A    between atoms: N_9  and  C_13
REMARK    4  A    between atoms: N_10  and  C_19
REMARK    5  A    between atoms: N_11  and  C_25
REMARK    6  A    between atoms: C_14  and  C_17
REMARK    7  A    between atoms: C_18  and  C_20
REMARK    8  A    between atoms: C_19  and  C_22
REMARK    9  A    between atoms: C_19  and  C_23
REMARK   10  A    between atoms: C_22  and  C_24
REMARK                            x       y       z     vdW  Elec       q    Type
REMARK                         _______ _______ _______ _____ _____    ______ ____
ROOT
ATOM      5  O   UNL     1      -9.163 -11.017  19.641  0.00  0.00    -0.275 OA
ATOM      8  N   UNL     1      -7.076 -11.682  18.890  0.00  0.00    -0.287 N 
ATOM     13  C   UNL     1      -4.904 -11.961  17.972  0.00  0.00    +0.094 C 
ATOM     14  C   UNL     1      -6.524 -10.344  18.747  0.00  0.00    +0.164 C 
ATOM     15  C   UNL     1      -5.022 -10.553  18.561  0.00  0.00    +0.055 C 
ATOM     16  C   UNL     1      -6.075 -12.708  18.601  0.00  0.00    +0.131 C 
ATOM     18  C   UNL     1      -8.343 -11.907  19.409  0.00  0.00    +0.226 C 
ENDROOT
BRANCH  13   9
ATOM      6  O   UNL     1      -3.254 -10.460  16.174  0.00  0.00    -0.252 OA
ATOM      9  N   UNL     1      -4.987 -11.949  16.532  0.00  0.00    -0.295 N 
ATOM     11  N   UNL     1      -4.452 -11.373  14.373  0.00  0.00    -0.267 N 
ATOM     21  C   UNL     1      -4.139 -11.184  15.721  0.00  0.00    +0.304 C 
ATOM     37  H   UNL     1      -5.734 -12.472  16.087  0.00  0.00    +0.151 HD
ATOM     39  H   UNL     1      -5.218 -12.009  14.164  0.00  0.00    +0.156 HD
BRANCH  11  25
ATOM      2  F   UNL     1      -5.931 -10.028  12.431  0.00  0.00    -0.203 F 
ATOM      3  F   UNL     1      -2.013  -9.070   9.960  0.00  0.00    -0.205 F 
ATOM     25  C   UNL     1      -3.832 -10.784  13.246  0.00  0.00    +0.070 A 
ATOM     29  C   UNL     1      -4.601 -10.119  12.291  0.00  0.00    +0.147 A 
ATOM     30  C   UNL     1      -2.449 -10.870  13.091  0.00  0.00    +0.029 A 
ATOM     34  C   UNL     1      -3.987  -9.540  11.181  0.00  0.00    +0.078 A 
ATOM     35  C   UNL     1      -1.834 -10.291  11.981  0.00  0.00    +0.040 A 
ATOM     36  C   UNL     1      -2.603  -9.626  11.026  0.00  0.00    +0.126 A 
ENDBRANCH  11  25
ENDBRANCH  13   9
BRANCH  14  17
ATOM      4  O   UNL     1      -6.565  -9.653  16.462  0.00  0.00    -0.274 OA
ATOM     10  N   UNL     1      -8.383  -9.146  17.825  0.00  0.00    -0.302 N 
ATOM     17  C   UNL     1      -7.142  -9.693  17.546  0.00  0.00    +0.234 C 
ATOM     38  H   UNL     1      -8.775  -9.257  18.757  0.00  0.00    +0.150 HD
BRANCH  10  19
ATOM     19  C   UNL     1      -9.176  -8.443  16.845  0.00  0.00    +0.163 C 
BRANCH  19  23
ATOM      7  O   UNL     1     -10.317 -10.398  15.959  0.00  0.00    -0.274 OA
ATOM     12  N   UNL     1      -8.999  -9.160  14.543  0.00  0.00    -0.328 N 
ATOM     23  C   UNL     1      -9.558  -9.451  15.770  0.00  0.00    +0.231 C 
ATOM     40  H   UNL     1      -9.183  -9.745  13.735  0.00  0.00    +0.145 HD
ATOM     41  H   UNL     1      -8.392  -8.360  14.395  0.00  0.00    +0.145 HD
ENDBRANCH  19  23
BRANCH  19  22
ATOM     22  C   UNL     1     -10.433  -7.815  17.458  0.00  0.00    +0.067 C 
BRANCH  22  24
ATOM     24  C   UNL     1     -11.326  -7.170  16.426  0.00  0.00    -0.045 A 
ATOM     26  C   UNL     1     -10.817  -6.178  15.587  0.00  0.00    +0.004 A 
ATOM     27  C   UNL     1     -12.659  -7.564  16.311  0.00  0.00    +0.004 A 
ATOM     31  C   UNL     1     -11.642  -5.582  14.633  0.00  0.00    +0.000 A 
ATOM     32  C   UNL     1     -13.483  -6.968  15.357  0.00  0.00    +0.000 A 
ATOM     33  C   UNL     1     -12.976  -5.976  14.518  0.00  0.00    +0.000 A 
ENDBRANCH  22  24
ENDBRANCH  19  22
ENDBRANCH  10  19
ENDBRANCH  14  17
BRANCH  18  20
ATOM     20  C   UNL     1      -8.690 -13.350  19.676  0.00  0.00    +0.164 C 
BRANCH  20   1
ATOM      1  S   UNL     1     -10.380 -13.401  20.288  0.00  0.00    -0.155 S 
ATOM     28  C   UNL     1     -11.236 -13.699  18.722  0.00  0.00    +0.085 C 
ENDBRANCH  20   1
ENDBRANCH  18  20
TORSDOF 9
ENDMDL
MODEL 5
REMARK VINA RESULT:      -6.5     28.601     30.650
REMARK  Name = 11865732
REMARK  10 active torsions:
REMARK  status: ('A' for Active; 'I' for Inactive)
REMARK    1  A    between atoms: S_1  and  C_20
REMARK    2  A    between atoms: S_1  and  C_28
REMARK    3  A    between atoms: N_9  and  C_13
REMARK    4  A    between atoms: N_10  and  C_19
REMARK    5  A    between atoms: N_11  and  C_25
REMARK    6  A    between atoms: C_14  and  C_17
REMARK    7  A    between atoms: C_18  and  C_20
REMARK    8  A    between atoms: C_19  and  C_22
REMARK    9  A    between atoms: C_19  and  C_23
REMARK   10  A    between atoms: C_22  and  C_24
REMARK                            x       y       z     vdW  Elec       q    Type
REMARK                         _______ _______ _______ _____ _____    ______ ____
ROOT
ATOM      5  O   UNL     1      -7.603 -13.249  18.196  0.00  0.00    -0.275 OA
ATOM      8  N   UNL     1      -5.946 -12.126  17.034  0.00  0.00    -0.287 N 
ATOM     13  C   UNL     1      -4.473 -10.619  15.938  0.00  0.00    +0.094 C 
ATOM     14  C   UNL     1      -6.211 -10.814  17.605  0.00  0.00    +0.164 C 
ATOM     15  C   UNL     1      -5.008  -9.959  17.212  0.00  0.00    +0.055 C 
ATOM     16  C   UNL     1      -4.784 -12.097  16.147  0.00  0.00    +0.131 C 
ATOM     18  C   UNL     1      -6.626 -13.263  17.446  0.00  0.00    +0.226 C 
ENDROOT
BRANCH  13   9
ATOM      6  O   UNL     1      -3.687 -11.078  13.221  0.00  0.00    -0.252 OA
ATOM      9  N   UNL     1      -5.113 -10.098  14.756  0.00  0.00    -0.295 N 
ATOM     11  N   UNL     1      -5.477  -9.733  12.516  0.00  0.00    -0.267 N 
ATOM     21  C   UNL     1      -4.664 -10.371  13.457  0.00  0.00    +0.304 C 
ATOM     37  H   UNL     1      -5.889  -9.454  14.871  0.00  0.00    +0.151 HD
ATOM     39  H   UNL     1      -6.251  -9.181  12.878  0.00  0.00    +0.156 HD
BRANCH  11  25
ATOM      2  F   UNL     1      -7.081 -11.388  10.949  0.00  0.00    -0.203 F 
ATOM      3  F   UNL     1      -5.008  -9.828   6.994  0.00  0.00    -0.205 F 
ATOM     25  C   UNL     1      -5.360  -9.759  11.107  0.00  0.00    +0.070 A 
ATOM     29  C   UNL     1      -6.177 -10.600  10.351  0.00  0.00    +0.147 A 
ATOM     30  C   UNL     1      -4.424  -8.941  10.474  0.00  0.00    +0.029 A 
ATOM     34  C   UNL     1      -6.058 -10.623   8.962  0.00  0.00    +0.078 A 
ATOM     35  C   UNL     1      -4.306  -8.964   9.084  0.00  0.00    +0.040 A 
ATOM     36  C   UNL     1      -5.122  -9.806   8.328  0.00  0.00    +0.126 A 
ENDBRANCH  11  25
ENDBRANCH  13   9
BRANCH  14  17
ATOM      4  O   UNL     1      -7.614 -10.108  15.807  0.00  0.00    -0.274 OA
ATOM     10  N   UNL     1      -8.430  -9.996  17.984  0.00  0.00    -0.302 N 
ATOM     17  C   UNL     1      -7.482 -10.279  17.016  0.00  0.00    +0.234 C 
ATOM     38  H   UNL     1      -8.221 -10.198  18.959  0.00  0.00    +0.150 HD
BRANCH  10  19
ATOM     19  C   UNL     1      -9.732  -9.449  17.680  0.00  0.00    +0.163 C 
BRANCH  19  23
ATOM      7  O   UNL     1     -11.854  -9.620  18.850  0.00  0.00    -0.274 OA
ATOM     12  N   UNL     1      -9.936 -10.214  19.964  0.00  0.00    -0.328 N 
ATOM     23  C   UNL     1     -10.632  -9.744  18.871  0.00  0.00    +0.231 C 
ATOM     40  H   UNL     1     -10.418 -10.462  20.821  0.00  0.00    +0.145 HD
ATOM     41  H   UNL     1      -8.928 -10.334  19.959  0.00  0.00    +0.145 HD
ENDBRANCH  19  23
BRANCH  19  22
ATOM     22  C   UNL     1      -9.679  -7.940  17.412  0.00  0.00    +0.067 C 
BRANCH  22  24
ATOM     24  C   UNL     1     -10.566  -7.519  16.267  0.00  0.00    -0.045 A 
ATOM     26  C   UNL     1     -11.145  -6.250  16.262  0.00  0.00    +0.004 A 
ATOM     27  C   UNL     1     -10.810  -8.400  15.213  0.00  0.00    +0.004 A 
ATOM     31  C   UNL     1     -11.965  -5.861  15.203  0.00  0.00    +0.000 A 
ATOM     32  C   UNL     1     -11.630  -8.011  14.153  0.00  0.00    +0.000 A 
ATOM     33  C   UNL     1     -12.208  -6.742  14.148  0.00  0.00    +0.000 A 
ENDBRANCH  22  24
ENDBRANCH  19  22
ENDBRANCH  10  19
ENDBRANCH  14  17
BRANCH  18  20
ATOM     20  C   UNL     1      -6.100 -14.567  16.903  0.00  0.00    +0.164 C 
BRANCH  20   1
ATOM      1  S   UNL     1      -7.467 -15.416  16.100  0.00  0.00    -0.155 S 
ATOM     28  C   UNL     1      -7.665 -14.333  14.665  0.00  0.00    +0.085 C 
ENDBRANCH  20   1
ENDBRANCH  18  20
TORSDOF 9
ENDMDL
MODEL 6
REMARK VINA RESULT:      -6.4     27.658     31.321
REMARK  Name = 11865732
REMARK  10 active torsions:
REMARK  status: ('A' for Active; 'I' for Inactive)
REMARK    1  A    between atoms: S_1  and  C_20
REMARK    2  A    between atoms: S_1  and  C_28
REMARK    3  A    between atoms: N_9  and  C_13
REMARK    4  A    between atoms: N_10  and  C_19
REMARK    5  A    between atoms: N_11  and  C_25
REMARK    6  A    between atoms: C_14  and  C_17
REMARK    7  A    between atoms: C_18  and  C_20
REMARK    8  A    between atoms: C_19  and  C_22
REMARK    9  A    between atoms: C_19  and  C_23
REMARK   10  A    between atoms: C_22  and  C_24
REMARK                            x       y       z     vdW  Elec       q    Type
REMARK                         _______ _______ _______ _____ _____    ______ ____
ROOT
ATOM      5  O   UNL     1      -4.039 -12.268  10.568  0.00  0.00    -0.275 OA
ATOM      8  N   UNL     1      -5.960 -11.149  11.217  0.00  0.00    -0.287 N 
ATOM     13  C   UNL     1      -7.706  -9.906  12.240  0.00  0.00    +0.094 C 
ATOM     14  C   UNL     1      -5.323 -10.306  12.217  0.00  0.00    +0.164 C 
ATOM     15  C   UNL     1      -6.364  -9.242  12.560  0.00  0.00    +0.055 C 
ATOM     16  C   UNL     1      -7.377 -10.822  11.066  0.00  0.00    +0.131 C 
ATOM     18  C   UNL     1      -5.236 -12.016  10.411  0.00  0.00    +0.226 C 
ENDROOT
BRANCH  13   9
ATOM      6  O   UNL     1      -9.253  -8.854  14.409  0.00  0.00    -0.252 OA
ATOM      9  N   UNL     1      -8.222 -10.642  13.367  0.00  0.00    -0.295 N 
ATOM     11  N   UNL     1      -9.336 -11.006  15.343  0.00  0.00    -0.267 N 
ATOM     21  C   UNL     1      -8.974 -10.051  14.390  0.00  0.00    +0.304 C 
ATOM     37  H   UNL     1      -7.979 -11.624  13.454  0.00  0.00    +0.151 HD
ATOM     39  H   UNL     1      -9.023 -11.960  15.180  0.00  0.00    +0.156 HD
BRANCH  11  25
ATOM      2  F   UNL     1      -8.259  -9.733  17.576  0.00  0.00    -0.203 F 
ATOM      3  F   UNL     1     -12.311 -10.257  19.960  0.00  0.00    -0.205 F 
ATOM     25  C   UNL     1     -10.093 -10.814  16.522  0.00  0.00    +0.070 A 
ATOM     29  C   UNL     1      -9.524 -10.173  17.623  0.00  0.00    +0.147 A 
ATOM     30  C   UNL     1     -11.411 -11.265  16.583  0.00  0.00    +0.029 A 
ATOM     34  C   UNL     1     -10.273  -9.986  18.785  0.00  0.00    +0.078 A 
ATOM     35  C   UNL     1     -12.160 -11.077  17.744  0.00  0.00    +0.040 A 
ATOM     36  C   UNL     1     -11.591 -10.438  18.845  0.00  0.00    +0.126 A 
ENDBRANCH  11  25
ENDBRANCH  13   9
BRANCH  14  17
ATOM      4  O   UNL     1      -5.430 -12.281  13.555  0.00  0.00    -0.274 OA
ATOM     10  N   UNL     1      -4.149 -10.485  14.298  0.00  0.00    -0.302 N 
ATOM     17  C   UNL     1      -4.981 -11.146  13.411  0.00  0.00    +0.234 C 
ATOM     38  H   UNL     1      -3.820  -9.551  14.067  0.00  0.00    +0.150 HD
BRANCH  10  19
ATOM     19  C   UNL     1      -3.692 -11.067  15.537  0.00  0.00    +0.163 C 
BRANCH  19  23
ATOM      7  O   UNL     1      -1.530 -11.201  14.435  0.00  0.00    -0.274 OA
ATOM     12  N   UNL     1      -1.586 -10.987  16.721  0.00  0.00    -0.328 N 
ATOM     23  C   UNL     1      -2.172 -11.110  15.479  0.00  0.00    +0.231 C 
ATOM     40  H   UNL     1      -0.577 -10.987  16.823  0.00  0.00    +0.145 HD
ATOM     41  H   UNL     1      -2.128 -10.889  17.574  0.00  0.00    +0.145 HD
ENDBRANCH  19  23
BRANCH  19  22
ATOM     22  C   UNL     1      -4.156 -10.268  16.761  0.00  0.00    +0.067 C 
BRANCH  22  24
ATOM     24  C   UNL     1      -5.149 -11.023  17.609  0.00  0.00    -0.045 A 
ATOM     26  C   UNL     1      -5.339 -10.667  18.945  0.00  0.00    +0.004 A 
ATOM     27  C   UNL     1      -5.877 -12.079  17.059  0.00  0.00    +0.004 A 
ATOM     31  C   UNL     1      -6.257 -11.366  19.729  0.00  0.00    +0.000 A 
ATOM     32  C   UNL     1      -6.795 -12.777  17.843  0.00  0.00    +0.000 A 
ATOM     33  C   UNL     1      -6.985 -12.421  19.178  0.00  0.00    +0.000 A 
ENDBRANCH  22  24
ENDBRANCH  19  22
ENDBRANCH  10  19
ENDBRANCH  14  17
BRANCH  18  20
ATOM     20  C   UNL     1      -6.012 -12.669   9.296  0.00  0.00    +0.164 C 
BRANCH  20   1
ATOM      1  S   UNL     1      -5.454 -14.374   9.168  0.00  0.00    -0.155 S 
ATOM     28  C   UNL     1      -6.317 -15.060  10.603  0.00  0.00    +0.085 C 
ENDBRANCH  20   1
ENDBRANCH  18  20
TORSDOF 9
ENDMDL
MODEL 7
REMARK VINA RESULT:      -6.3     20.955     23.999
REMARK  Name = 11865732
REMARK  10 active torsions:
REMARK  status: ('A' for Active; 'I' for Inactive)
REMARK    1  A    between atoms: S_1  and  C_20
REMARK    2  A    between atoms: S_1  and  C_28
REMARK    3  A    between atoms: N_9  and  C_13
REMARK    4  A    between atoms: N_10  and  C_19
REMARK    5  A    between atoms: N_11  and  C_25
REMARK    6  A    between atoms: C_14  and  C_17
REMARK    7  A    between atoms: C_18  and  C_20
REMARK    8  A    between atoms: C_19  and  C_22
REMARK    9  A    between atoms: C_19  and  C_23
REMARK   10  A    between atoms: C_22  and  C_24
REMARK                            x       y       z     vdW  Elec       q    Type
REMARK                         _______ _______ _______ _____ _____    ______ ____
ROOT
ATOM      5  O   UNL     1       8.145  -2.304  38.149  0.00  0.00    -0.275 OA
ATOM      8  N   UNL     1       7.256  -4.342  38.793  0.00  0.00    -0.287 N 
ATOM     13  C   UNL     1       6.560  -6.589  39.116  0.00  0.00    +0.094 C 
ATOM     14  C   UNL     1       8.218  -5.168  38.081  0.00  0.00    +0.164 C 
ATOM     15  C   UNL     1       8.012  -6.579  38.630  0.00  0.00    +0.055 C 
ATOM     16  C   UNL     1       6.332  -5.155  39.583  0.00  0.00    +0.131 C 
ATOM     18  C   UNL     1       7.353  -2.958  38.829  0.00  0.00    +0.226 C 
ENDROOT
BRANCH  13   9
ATOM      6  O   UNL     1       5.966  -9.248  38.230  0.00  0.00    -0.252 OA
ATOM      9  N   UNL     1       5.646  -6.964  38.066  0.00  0.00    -0.295 N 
ATOM     11  N   UNL     1       4.479  -8.348  36.651  0.00  0.00    -0.267 N 
ATOM     21  C   UNL     1       5.410  -8.292  37.692  0.00  0.00    +0.304 C 
ATOM     37  H   UNL     1       5.196  -6.227  37.532  0.00  0.00    +0.151 HD
ATOM     39  H   UNL     1       4.112  -7.461  36.316  0.00  0.00    +0.156 HD
BRANCH  11  25
ATOM      2  F   UNL     1       6.058  -9.838  34.903  0.00  0.00    -0.203 F 
ATOM      3  F   UNL     1       2.500 -12.845  34.086  0.00  0.00    -0.205 F 
ATOM     25  C   UNL     1       3.977  -9.496  35.995  0.00  0.00    +0.070 A 
ATOM     29  C   UNL     1       4.792 -10.220  35.125  0.00  0.00    +0.147 A 
ATOM     30  C   UNL     1       2.662  -9.904  36.220  0.00  0.00    +0.029 A 
ATOM     34  C   UNL     1       4.293 -11.350  34.480  0.00  0.00    +0.078 A 
ATOM     35  C   UNL     1       2.163 -11.036  35.575  0.00  0.00    +0.040 A 
ATOM     36  C   UNL     1       2.979 -11.759  34.705  0.00  0.00    +0.126 A 
ENDBRANCH  11  25
ENDBRANCH  13   9
BRANCH  14  17
ATOM      4  O   UNL     1       6.869  -4.629  36.186  0.00  0.00    -0.274 OA
ATOM     10  N   UNL     1       8.938  -5.640  35.846  0.00  0.00    -0.302 N 
ATOM     17  C   UNL     1       7.921  -5.100  36.613  0.00  0.00    +0.234 C 
ATOM     38  H   UNL     1       9.778  -5.984  36.305  0.00  0.00    +0.150 HD
BRANCH  10  19
ATOM     19  C   UNL     1       8.887  -5.715  34.405  0.00  0.00    +0.163 C 
BRANCH  19  23
ATOM      7  O   UNL     1      11.029  -4.710  33.854  0.00  0.00    -0.274 OA
ATOM     12  N   UNL     1       9.110  -3.555  33.343  0.00  0.00    -0.328 N 
ATOM     23  C   UNL     1       9.803  -4.627  33.865  0.00  0.00    +0.231 C 
ATOM     40  H   UNL     1       9.601  -2.766  32.938  0.00  0.00    +0.145 HD
ATOM     41  H   UNL     1       8.096  -3.511  33.337  0.00  0.00    +0.145 HD
ENDBRANCH  19  23
BRANCH  19  22
ATOM     22  C   UNL     1       9.323  -7.089  33.879  0.00  0.00    +0.067 C 
BRANCH  22  24
ATOM     24  C   UNL     1       8.288  -7.727  32.986  0.00  0.00    -0.045 A 
ATOM     26  C   UNL     1       6.980  -7.240  32.976  0.00  0.00    +0.004 A 
ATOM     27  C   UNL     1       8.637  -8.804  32.171  0.00  0.00    +0.004 A 
ATOM     31  C   UNL     1       6.023  -7.830  32.150  0.00  0.00    +0.000 A 
ATOM     32  C   UNL     1       7.680  -9.393  31.345  0.00  0.00    +0.000 A 
ATOM     33  C   UNL     1       6.373  -8.907  31.335  0.00  0.00    +0.000 A 
ENDBRANCH  22  24
ENDBRANCH  19  22
ENDBRANCH  10  19
ENDBRANCH  14  17
BRANCH  18  20
ATOM     20  C   UNL     1       6.400  -2.263  39.768  0.00  0.00    +0.164 C 
BRANCH  20   1
ATOM      1  S   UNL     1       7.381  -1.437  41.029  0.00  0.00    -0.155 S 
ATOM     28  C   UNL     1       6.085  -0.413  41.767  0.00  0.00    +0.085 C 
ENDBRANCH  20   1
ENDBRANCH  18  20
TORSDOF 9
ENDMDL
MODEL 8
REMARK VINA RESULT:      -6.3     27.762     30.384
REMARK  Name = 11865732
REMARK  10 active torsions:
REMARK  status: ('A' for Active; 'I' for Inactive)
REMARK    1  A    between atoms: S_1  and  C_20
REMARK    2  A    between atoms: S_1  and  C_28
REMARK    3  A    between atoms: N_9  and  C_13
REMARK    4  A    between atoms: N_10  and  C_19
REMARK    5  A    between atoms: N_11  and  C_25
REMARK    6  A    between atoms: C_14  and  C_17
REMARK    7  A    between atoms: C_18  and  C_20
REMARK    8  A    between atoms: C_19  and  C_22
REMARK    9  A    between atoms: C_19  and  C_23
REMARK   10  A    between atoms: C_22  and  C_24
REMARK                            x       y       z     vdW  Elec       q    Type
REMARK                         _______ _______ _______ _____ _____    ______ ____
ROOT
ATOM      5  O   UNL     1      -2.527 -14.987  14.821  0.00  0.00    -0.275 OA
ATOM      8  N   UNL     1      -2.353 -12.996  13.652  0.00  0.00    -0.287 N 
ATOM     13  C   UNL     1      -2.313 -10.773  12.818  0.00  0.00    +0.094 C 
ATOM     14  C   UNL     1      -2.311 -12.129  14.818  0.00  0.00    +0.164 C 
ATOM     15  C   UNL     1      -1.871 -10.767  14.285  0.00  0.00    +0.055 C 
ATOM     16  C   UNL     1      -2.180 -12.237  12.414  0.00  0.00    +0.131 C 
ATOM     18  C   UNL     1      -2.378 -14.379  13.759  0.00  0.00    +0.226 C 
ENDROOT
BRANCH  13   9
ATOM      6  O   UNL     1      -3.754 -10.473  10.360  0.00  0.00    -0.252 OA
ATOM      9  N   UNL     1      -3.664 -10.294  12.664  0.00  0.00    -0.295 N 
ATOM     11  N   UNL     1      -5.599  -9.688  11.582  0.00  0.00    -0.267 N 
ATOM     21  C   UNL     1      -4.299 -10.177  11.421  0.00  0.00    +0.304 C 
ATOM     37  H   UNL     1      -4.159  -9.970  13.489  0.00  0.00    +0.151 HD
ATOM     39  H   UNL     1      -5.901  -9.491  12.533  0.00  0.00    +0.156 HD
BRANCH  11  25
ATOM      2  F   UNL     1      -5.294  -7.588   9.776  0.00  0.00    -0.203 F 
ATOM      3  F   UNL     1      -9.373  -8.685   7.648  0.00  0.00    -0.205 F 
ATOM     25  C   UNL     1      -6.560  -9.431  10.577  0.00  0.00    +0.070 A 
ATOM     29  C   UNL     1      -6.378  -8.370   9.689  0.00  0.00    +0.147 A 
ATOM     30  C   UNL     1      -7.692 -10.239  10.475  0.00  0.00    +0.029 A 
ATOM     34  C   UNL     1      -7.329  -8.118   8.700  0.00  0.00    +0.078 A 
ATOM     35  C   UNL     1      -8.642  -9.987   9.486  0.00  0.00    +0.040 A 
ATOM     36  C   UNL     1      -8.461  -8.927   8.599  0.00  0.00    +0.126 A 
ENDBRANCH  11  25
ENDBRANCH  13   9
BRANCH  14  17
ATOM      4  O   UNL     1      -4.693 -12.270  14.759  0.00  0.00    -0.274 OA
ATOM     10  N   UNL     1      -3.646 -11.737  16.768  0.00  0.00    -0.302 N 
ATOM     17  C   UNL     1      -3.681 -12.066  15.424  0.00  0.00    +0.234 C 
ATOM     38  H   UNL     1      -2.746 -11.611  17.225  0.00  0.00    +0.150 HD
BRANCH  10  19
ATOM     19  C   UNL     1      -4.833 -11.591  17.578  0.00  0.00    +0.163 C 
BRANCH  19  23
ATOM      7  O   UNL     1      -5.174 -11.625  19.983  0.00  0.00    -0.274 OA
ATOM     12  N   UNL     1      -3.081 -12.098  19.164  0.00  0.00    -0.328 N 
ATOM     23  C   UNL     1      -4.408 -11.750  19.030  0.00  0.00    +0.231 C 
ATOM     40  H   UNL     1      -2.672 -12.248  20.079  0.00  0.00    +0.145 HD
ATOM     41  H   UNL     1      -2.466 -12.221  18.366  0.00  0.00    +0.145 HD
ENDBRANCH  19  23
BRANCH  19  22
ATOM     22  C   UNL     1      -5.516 -10.234  17.367  0.00  0.00    +0.067 C 
BRANCH  22  24
ATOM     24  C   UNL     1      -7.008 -10.356  17.176  0.00  0.00    -0.045 A 
ATOM     26  C   UNL     1      -7.563 -11.573  16.777  0.00  0.00    +0.004 A 
ATOM     27  C   UNL     1      -7.832  -9.253  17.396  0.00  0.00    +0.004 A 
ATOM     31  C   UNL     1      -8.942 -11.686  16.601  0.00  0.00    +0.000 A 
ATOM     32  C   UNL     1      -9.212  -9.366  17.220  0.00  0.00    +0.000 A 
ATOM     33  C   UNL     1      -9.767 -10.581  16.822  0.00  0.00    +0.000 A 
ENDBRANCH  22  24
ENDBRANCH  19  22
ENDBRANCH  10  19
ENDBRANCH  14  17
BRANCH  18  20
ATOM     20  C   UNL     1      -2.221 -15.136  12.464  0.00  0.00    +0.164 C 
BRANCH  20   1
ATOM      1  S   UNL     1      -3.618 -16.258  12.315  0.00  0.00    -0.155 S 
ATOM     28  C   UNL     1      -4.943 -15.038  12.151  0.00  0.00    +0.085 C 
ENDBRANCH  20   1
ENDBRANCH  18  20
TORSDOF 9
ENDMDL
MODEL 9
REMARK VINA RESULT:      -6.3     32.907     35.172
REMARK  Name = 11865732
REMARK  10 active torsions:
REMARK  status: ('A' for Active; 'I' for Inactive)
REMARK    1  A    between atoms: S_1  and  C_20
REMARK    2  A    between atoms: S_1  and  C_28
REMARK    3  A    between atoms: N_9  and  C_13
REMARK    4  A    between atoms: N_10  and  C_19
REMARK    5  A    between atoms: N_11  and  C_25
REMARK    6  A    between atoms: C_14  and  C_17
REMARK    7  A    between atoms: C_18  and  C_20
REMARK    8  A    between atoms: C_19  and  C_22
REMARK    9  A    between atoms: C_19  and  C_23
REMARK   10  A    between atoms: C_22  and  C_24
REMARK                            x       y       z     vdW  Elec       q    Type
REMARK                         _______ _______ _______ _____ _____    ______ ____
ROOT
ATOM      5  O   UNL     1      -5.171 -14.572  35.864  0.00  0.00    -0.275 OA
ATOM      8  N   UNL     1      -5.330 -13.054  37.605  0.00  0.00    -0.287 N 
ATOM     13  C   UNL     1      -5.918 -11.567  39.361  0.00  0.00    +0.094 C 
ATOM     14  C   UNL     1      -6.658 -13.452  38.044  0.00  0.00    +0.164 C 
ATOM     15  C   UNL     1      -6.843 -12.786  39.406  0.00  0.00    +0.055 C 
ATOM     16  C   UNL     1      -4.761 -12.031  38.482  0.00  0.00    +0.131 C 
ATOM     18  C   UNL     1      -4.659 -13.713  36.586  0.00  0.00    +0.226 C 
ENDROOT
BRANCH  13   9
ATOM      6  O   UNL     1      -7.017  -9.361  40.822  0.00  0.00    -0.252 OA
ATOM      9  N   UNL     1      -6.580 -10.411  38.809  0.00  0.00    -0.295 N 
ATOM     11  N   UNL     1      -7.676  -8.391  38.788  0.00  0.00    -0.267 N 
ATOM     21  C   UNL     1      -7.092  -9.371  39.595  0.00  0.00    +0.304 C 
ATOM     37  H   UNL     1      -6.737 -10.377  37.806  0.00  0.00    +0.151 HD
ATOM     39  H   UNL     1      -7.655  -8.551  37.784  0.00  0.00    +0.156 HD
BRANCH  11  25
ATOM      2  F   UNL     1      -6.279  -5.981  38.880  0.00  0.00    -0.203 F 
ATOM      3  F   UNL     1     -10.130  -3.685  40.388  0.00  0.00    -0.205 F 
ATOM     25  C   UNL     1      -8.300  -7.189  39.196  0.00  0.00    +0.070 A 
ATOM     29  C   UNL     1      -7.572  -5.999  39.232  0.00  0.00    +0.147 A 
ATOM     30  C   UNL     1      -9.645  -7.195  39.562  0.00  0.00    +0.029 A 
ATOM     34  C   UNL     1      -8.190  -4.816  39.635  0.00  0.00    +0.078 A 
ATOM     35  C   UNL     1     -10.264  -6.011  39.964  0.00  0.00    +0.040 A 
ATOM     36  C   UNL     1      -9.536  -4.822  40.001  0.00  0.00    +0.126 A 
ENDBRANCH  11  25
ENDBRANCH  13   9
BRANCH  14  17
ATOM      4  O   UNL     1      -8.191 -11.852  37.154  0.00  0.00    -0.274 OA
ATOM     10  N   UNL     1      -7.923 -13.887  36.056  0.00  0.00    -0.302 N 
ATOM     17  C   UNL     1      -7.665 -12.957  37.048  0.00  0.00    +0.234 C 
ATOM     38  H   UNL     1      -7.411 -14.766  36.054  0.00  0.00    +0.150 HD
BRANCH  10  19
ATOM     19  C   UNL     1      -8.870 -13.663  34.989  0.00  0.00    +0.163 C 
BRANCH  19  23
ATOM      7  O   UNL     1      -8.824 -14.832  32.859  0.00  0.00    -0.274 OA
ATOM     12  N   UNL     1      -6.918 -13.764  33.567  0.00  0.00    -0.328 N 
ATOM     23  C   UNL     1      -8.229 -14.169  33.705  0.00  0.00    +0.231 C 
ATOM     40  H   UNL     1      -6.377 -14.021  32.749  0.00  0.00    +0.145 HD
ATOM     41  H   UNL     1      -6.446 -13.196  34.263  0.00  0.00    +0.145 HD
ENDBRANCH  19  23
BRANCH  19  22
ATOM     22  C   UNL     1     -10.203 -14.378  35.237  0.00  0.00    +0.067 C 
BRANCH  22  24
ATOM     24  C   UNL     1     -11.397 -13.485  35.005  0.00  0.00    -0.045 A 
ATOM     26  C   UNL     1     -12.312 -13.792  33.998  0.00  0.00    +0.004 A 
ATOM     27  C   UNL     1     -11.584 -12.351  35.796  0.00  0.00    +0.004 A 
ATOM     31  C   UNL     1     -13.416 -12.966  33.783  0.00  0.00    +0.000 A 
ATOM     32  C   UNL     1     -12.688 -11.525  35.581  0.00  0.00    +0.000 A 
ATOM     33  C   UNL     1     -13.603 -11.832  34.575  0.00  0.00    +0.000 A 
ENDBRANCH  22  24
ENDBRANCH  19  22
ENDBRANCH  10  19
ENDBRANCH  14  17
BRANCH  18  20
ATOM     20  C   UNL     1      -3.221 -13.309  36.385  0.00  0.00    +0.164 C 
BRANCH  20   1
ATOM      1  S   UNL     1      -2.186 -14.630  37.031  0.00  0.00    -0.155 S 
ATOM     28  C   UNL     1      -1.768 -15.448  35.472  0.00  0.00    +0.085 C 
ENDBRANCH  20   1
ENDBRANCH  18  20
TORSDOF 9
ENDMDL
MODEL 10
REMARK VINA RESULT:      -6.1     21.968     25.133
REMARK  Name = 11865732
REMARK  10 active torsions:
REMARK  status: ('A' for Active; 'I' for Inactive)
REMARK    1  A    between atoms: S_1  and  C_20
REMARK    2  A    between atoms: S_1  and  C_28
REMARK    3  A    between atoms: N_9  and  C_13
REMARK    4  A    between atoms: N_10  and  C_19
REMARK    5  A    between atoms: N_11  and  C_25
REMARK    6  A    between atoms: C_14  and  C_17
REMARK    7  A    between atoms: C_18  and  C_20
REMARK    8  A    between atoms: C_19  and  C_22
REMARK    9  A    between atoms: C_19  and  C_23
REMARK   10  A    between atoms: C_22  and  C_24
REMARK                            x       y       z     vdW  Elec       q    Type
REMARK                         _______ _______ _______ _____ _____    ______ ____
ROOT
ATOM      5  O   UNL     1       8.266  -7.144  36.489  0.00  0.00    -0.275 OA
ATOM      8  N   UNL     1       8.350  -7.648  34.231  0.00  0.00    -0.287 N 
ATOM     13  C   UNL     1       8.028  -8.295  31.969  0.00  0.00    +0.094 C 
ATOM     14  C   UNL     1       6.911  -7.673  34.019  0.00  0.00    +0.164 C 
ATOM     15  C   UNL     1       6.733  -7.675  32.502  0.00  0.00    +0.055 C 
ATOM     16  C   UNL     1       9.078  -7.845  32.978  0.00  0.00    +0.131 C 
ATOM     18  C   UNL     1       8.912  -7.302  35.451  0.00  0.00    +0.226 C 
ENDROOT
BRANCH  13   9
ATOM      6  O   UNL     1       6.701  -9.820  29.939  0.00  0.00    -0.252 OA
ATOM      9  N   UNL     1       7.941  -9.732  31.888  0.00  0.00    -0.295 N 
ATOM     11  N   UNL     1       7.355 -11.786  31.043  0.00  0.00    -0.267 N 
ATOM     21  C   UNL     1       7.271 -10.404  30.858  0.00  0.00    +0.304 C 
ATOM     37  H   UNL     1       8.334 -10.282  32.646  0.00  0.00    +0.151 HD
ATOM     39  H   UNL     1       7.866 -12.110  31.861  0.00  0.00    +0.156 HD
BRANCH  11  25
ATOM      2  F   UNL     1       4.857 -12.904  31.572  0.00  0.00    -0.203 F 
ATOM      3  F   UNL     1       5.238 -15.783  27.838  0.00  0.00    -0.205 F 
ATOM     25  C   UNL     1       6.812 -12.806  30.227  0.00  0.00    +0.070 A 
ATOM     29  C   UNL     1       5.560 -13.346  30.519  0.00  0.00    +0.147 A 
ATOM     30  C   UNL     1       7.533 -13.272  29.127  0.00  0.00    +0.029 A 
ATOM     34  C   UNL     1       5.028 -14.352  29.713  0.00  0.00    +0.078 A 
ATOM     35  C   UNL     1       7.001 -14.278  28.320  0.00  0.00    +0.040 A 
ATOM     36  C   UNL     1       5.749 -14.818  28.613  0.00  0.00    +0.126 A 
ENDBRANCH  11  25
ENDBRANCH  13   9
BRANCH  14  17
ATOM      4  O   UNL     1       6.868 -10.019  34.461  0.00  0.00    -0.274 OA
ATOM     10  N   UNL     1       5.215  -8.668  35.388  0.00  0.00    -0.302 N 
ATOM     17  C   UNL     1       6.353  -8.919  34.641  0.00  0.00    +0.234 C 
ATOM     38  H   UNL     1       4.887  -7.711  35.487  0.00  0.00    +0.150 HD
BRANCH  10  19
ATOM     19  C   UNL     1       4.474  -9.702  36.071  0.00  0.00    +0.163 C 
BRANCH  19  23
ATOM      7  O   UNL     1       3.413  -9.747  38.257  0.00  0.00    -0.274 OA
ATOM     12  N   UNL     1       4.129  -7.730  37.425  0.00  0.00    -0.328 N 
ATOM     23  C   UNL     1       3.932  -9.093  37.356  0.00  0.00    +0.231 C 
ATOM     40  H   UNL     1       3.826  -7.200  38.235  0.00  0.00    +0.145 HD
ATOM     41  H   UNL     1       4.581  -7.205  36.683  0.00  0.00    +0.145 HD
ENDBRANCH  19  23
BRANCH  19  22
ATOM     22  C   UNL     1       3.327 -10.255  35.217  0.00  0.00    +0.067 C 
BRANCH  22  24
ATOM     24  C   UNL     1       3.480 -11.725  34.915  0.00  0.00    -0.045 A 
ATOM     26  C   UNL     1       2.544 -12.372  34.106  0.00  0.00    +0.004 A 
ATOM     27  C   UNL     1       4.555 -12.438  35.445  0.00  0.00    +0.004 A 
ATOM     31  C   UNL     1       2.686 -13.731  33.826  0.00  0.00    +0.000 A 
ATOM     32  C   UNL     1       4.696 -13.798  35.165  0.00  0.00    +0.000 A 
ATOM     33  C   UNL     1       3.762 -14.444  34.356  0.00  0.00    +0.000 A 
ENDBRANCH  22  24
ENDBRANCH  19  22
ENDBRANCH  10  19
ENDBRANCH  14  17
BRANCH  18  20
ATOM     20  C   UNL     1      10.410  -7.131  35.453  0.00  0.00    +0.164 C 
BRANCH  20   1
ATOM      1  S   UNL     1      10.769  -5.462  36.017  0.00  0.00    -0.155 S 
ATOM     28  C   UNL     1      10.053  -4.538  34.636  0.00  0.00    +0.085 C 
ENDBRANCH  20   1
ENDBRANCH  18  20
TORSDOF 9
ENDMDL
