REMARK  Name = 11886265
REMARK  8 active torsions:
REMARK  status: ('A' for Active; 'I' for Inactive)
REMARK    1  A    between atoms: O_3  and  C_21
REMARK    2  A    between atoms: O_3  and  C_24
REMARK    3  A    between atoms: O_5  and  C_34
REMARK    4  A    between atoms: O_5  and  C_36
REMARK    5  A    between atoms: N_6  and  C_17
REMARK    6  A    between atoms: N_7  and  C_18
REMARK    7  A    between atoms: N_11  and  C_23
REMARK    8  A    between atoms: N_12  and  C_33
REMARK                            x       y       z     vdW  Elec       q    Type
REMARK                         _______ _______ _______ _____ _____    ______ ____
ROOT
ATOM      1  O   UNL     1       0.222  -2.684   1.984  0.00  0.00    -0.370 OA
ATOM      2  O   UNL     1       0.845  -3.048  -1.077  0.00  0.00    -0.370 OA
ATOM     15  C   UNL     1       0.895  -1.928  -0.174  0.00  0.00    +0.176 C 
ATOM     16  C   UNL     1      -0.272  -2.071   0.783  0.00  0.00    +0.172 C 
ATOM     17  C   UNL     1       2.128  -2.029   0.703  0.00  0.00    +0.171 C 
ATOM     18  C   UNL     1      -1.226  -3.005   0.073  0.00  0.00    +0.131 C 
ATOM     19  C   UNL     1       1.642  -2.863   1.883  0.00  0.00    +0.190 C 
ATOM     20  C   UNL     1      -0.283  -3.870  -0.745  0.00  0.00    +0.185 C 
ENDROOT
BRANCH  18   7
ATOM      4  O   UNL     1      -3.867  -2.127   0.747  0.00  0.00    -0.252 OA
ATOM      7  N   UNL     1      -2.135  -2.276  -0.777  0.00  0.00    -0.292 N 
ATOM     11  N   UNL     1      -4.064  -1.195  -1.399  0.00  0.00    -0.269 N 
ATOM     22  C   UNL     1      -3.416  -1.882  -0.369  0.00  0.00    +0.304 C 
ATOM     43  H   UNL     1      -1.809  -1.978  -1.691  0.00  0.00    +0.151 HD
ATOM     44  H   UNL     1      -3.547  -1.078  -2.266  0.00  0.00    +0.156 HD
BRANCH  11  23
ATOM     23  C   UNL     1      -5.364  -0.637  -1.385  0.00  0.00    +0.035 A 
ATOM     25  C   UNL     1      -5.853   0.019  -2.515  0.00  0.00    +0.027 A 
ATOM     26  C   UNL     1      -6.157  -0.744  -0.243  0.00  0.00    +0.027 A 
ATOM     31  C   UNL     1      -7.135   0.569  -2.502  0.00  0.00    +0.048 A 
ATOM     32  C   UNL     1      -7.439  -0.195  -0.230  0.00  0.00    +0.048 A 
ATOM     34  C   UNL     1      -7.928   0.462  -1.359  0.00  0.00    +0.129 A 
BRANCH  34   5
ATOM      5  O   UNL     1      -9.180   0.996  -1.348  0.00  0.00    -0.456 OA
BRANCH   5  36
ATOM     36  C   UNL     1      -9.559   1.724  -0.233  0.00  0.00    +0.128 A 
ATOM     38  C   UNL     1      -8.684   2.661   0.318  0.00  0.00    +0.046 A 
ATOM     39  C   UNL     1     -10.814   1.521   0.340  0.00  0.00    +0.046 A 
ATOM     40  C   UNL     1      -9.065   3.394   1.442  0.00  0.00    +0.004 A 
ATOM     41  C   UNL     1     -11.195   2.254   1.464  0.00  0.00    +0.004 A 
ATOM     42  C   UNL     1     -10.321   3.191   2.015  0.00  0.00    +0.000 A 
ENDBRANCH   5  36
ENDBRANCH  34   5
ENDBRANCH  11  23
ENDBRANCH  18   7
BRANCH  17   6
ATOM      6  N   UNL     1       2.676  -0.716   1.055  0.00  0.00    -0.187 N 
ATOM      8  N   UNL     1       1.934   0.195   1.701  0.00  0.00    -0.041 NA
ATOM      9  N   UNL     1       3.974   1.003   1.306  0.00  0.00    -0.071 NA
ATOM     10  N   UNL     1       2.734   1.244   1.852  0.00  0.00    -0.020 NA
ATOM     21  C   UNL     1       3.917  -0.215   0.819  0.00  0.00    +0.342 A 
BRANCH  21   3
ATOM      3  O   UNL     1       4.885  -0.864   0.200  0.00  0.00    -0.423 OA
BRANCH   3  24
ATOM     24  C   UNL     1       6.125  -0.231   0.017  0.00  0.00    +0.132 A 
ATOM     27  C   UNL     1       7.122  -0.358   0.984  0.00  0.00    +0.048 A 
ATOM     28  C   UNL     1       6.360   0.524  -1.132  0.00  0.00    +0.048 A 
ATOM     29  C   UNL     1       8.354   0.271   0.802  0.00  0.00    +0.031 A 
ATOM     30  C   UNL     1       7.592   1.153  -1.314  0.00  0.00    +0.031 A 
ATOM     33  C   UNL     1       8.589   1.026  -0.347  0.00  0.00    +0.067 A 
BRANCH  33  12
ATOM     12  N   UNL     1       9.810   1.649  -0.527  0.00  0.00    -0.220 N 
ATOM     13  N   UNL     1      10.795   1.550   0.379  0.00  0.00    -0.154 NA
ATOM     14  N   UNL     1      11.422   2.834  -1.407  0.00  0.00    -0.222 NA
ATOM     35  C   UNL     1      10.191   2.414  -1.586  0.00  0.00    +0.225 A 
ATOM     37  C   UNL     1      11.747   2.285  -0.200  0.00  0.00    +0.245 A 
ENDBRANCH  33  12
ENDBRANCH   3  24
ENDBRANCH  21   3
ENDBRANCH  17   6
TORSDOF 8
