MODEL 1
REMARK VINA RESULT:      -7.4      0.000      0.000
REMARK  Name = 26762945
REMARK  5 active torsions:
REMARK  status: ('A' for Active; 'I' for Inactive)
REMARK    1  A    between atoms: N_7  and  C_12
REMARK    2  A    between atoms: N_9  and  C_26
REMARK    3  A    between atoms: C_11  and  C_16
REMARK    4  A    between atoms: C_16  and  C_18
REMARK    5  A    between atoms: C_18  and  C_19
REMARK                            x       y       z     vdW  Elec       q    Type
REMARK                         _______ _______ _______ _____ _____    ______ ____
ROOT
ATOM      2  O   UNL     1      14.775   6.748  19.994  0.00  0.00    -0.274 OA
ATOM      5  N   UNL     1      11.660   8.163  19.698  0.00  0.00    -0.285 NA
ATOM      6  N   UNL     1      13.151   6.996  21.619  0.00  0.00    -0.313 N 
ATOM     10  C   UNL     1      12.465   7.009  19.306  0.00  0.00    +0.145 C 
ATOM     11  C   UNL     1      10.952   7.982  20.969  0.00  0.00    +0.075 C 
ATOM     12  C   UNL     1      11.805   8.335  17.385  0.00  0.00    +0.090 C 
ATOM     13  C   UNL     1      12.867   7.339  17.874  0.00  0.00    +0.052 C 
ATOM     14  C   UNL     1      10.818   8.466  18.545  0.00  0.00    +0.107 C 
ATOM     15  C   UNL     1      11.730   7.045  21.919  0.00  0.00    +0.123 C 
ATOM     17  C   UNL     1      13.601   6.915  20.307  0.00  0.00    +0.230 C 
ATOM     30  H   UNL     1      13.820   6.914  22.379  0.00  0.00    +0.149 HD
ENDROOT
BRANCH  12   7
ATOM      4  O   UNL     1      13.310   8.947  15.024  0.00  0.00    -0.253 OA
ATOM      7  N   UNL     1      12.398   9.607  17.045  0.00  0.00    -0.295 N 
ATOM      9  N   UNL     1      13.573  11.145  15.808  0.00  0.00    -0.269 N 
ATOM     20  C   UNL     1      13.121   9.823  15.866  0.00  0.00    +0.304 C 
ATOM     31  H   UNL     1      12.213  10.403  17.646  0.00  0.00    +0.151 HD
ATOM     32  H   UNL     1      13.337  11.755  16.586  0.00  0.00    +0.156 HD
BRANCH   9  26
ATOM      1  S   UNL     1      14.953  13.150  12.716  0.00  0.00    -0.103 S 
ATOM     26  C   UNL     1      14.334  11.758  14.785  0.00  0.00    +0.042 A 
ATOM     27  C   UNL     1      15.746  11.637  14.634  0.00  0.00    +0.031 A 
ATOM     28  C   UNL     1      13.776  12.554  13.808  0.00  0.00    +0.068 A 
ATOM     29  C   UNL     1      16.213  12.343  13.549  0.00  0.00    +0.047 A 
ENDBRANCH   9  26
ENDBRANCH  12   7
BRANCH  11  16
ATOM     16  C   UNL     1      10.756   9.354  21.619  0.00  0.00    +0.029 C 
BRANCH  16  18
ATOM     18  C   UNL     1      11.806  10.361  21.176  0.00  0.00    +0.097 C 
BRANCH  18  19
ATOM      3  O   UNL     1      13.742   9.963  22.482  0.00  0.00    -0.276 OA
ATOM      8  N   UNL     1      12.450  11.800  23.078  0.00  0.00    -0.301 N 
ATOM     19  C   UNL     1      12.757  10.684  22.300  0.00  0.00    +0.216 C 
ATOM     21  C   UNL     1      13.325  12.176  24.190  0.00  0.00    +0.108 C 
ATOM     22  C   UNL     1      11.312  12.701  22.858  0.00  0.00    +0.108 C 
ATOM     23  C   UNL     1      12.532  12.306  25.488  0.00  0.00    +0.019 C 
ATOM     24  C   UNL     1      10.480  12.843  24.131  0.00  0.00    +0.019 C 
ATOM     25  C   UNL     1      11.348  13.257  25.319  0.00  0.00    +0.003 C 
ENDBRANCH  18  19
ENDBRANCH  16  18
ENDBRANCH  11  16
TORSDOF 5
ENDMDL
MODEL 2
REMARK VINA RESULT:      -6.5     13.194     15.652
REMARK  Name = 26762945
REMARK  5 active torsions:
REMARK  status: ('A' for Active; 'I' for Inactive)
REMARK    1  A    between atoms: N_7  and  C_12
REMARK    2  A    between atoms: N_9  and  C_26
REMARK    3  A    between atoms: C_11  and  C_16
REMARK    4  A    between atoms: C_16  and  C_18
REMARK    5  A    between atoms: C_18  and  C_19
REMARK                            x       y       z     vdW  Elec       q    Type
REMARK                         _______ _______ _______ _____ _____    ______ ____
ROOT
ATOM      2  O   UNL     1       9.916   4.283   8.000  0.00  0.00    -0.274 OA
ATOM      5  N   UNL     1       9.968   6.874   5.745  0.00  0.00    -0.285 NA
ATOM      6  N   UNL     1       9.456   6.517   8.370  0.00  0.00    -0.313 N 
ATOM     10  C   UNL     1       9.242   5.664   6.124  0.00  0.00    +0.145 C 
ATOM     11  C   UNL     1       9.490   8.082   6.425  0.00  0.00    +0.075 C 
ATOM     12  C   UNL     1      10.234   5.462   3.919  0.00  0.00    +0.090 C 
ATOM     13  C   UNL     1       9.738   4.635   5.114  0.00  0.00    +0.052 C 
ATOM     14  C   UNL     1       9.933   6.916   4.287  0.00  0.00    +0.107 C 
ATOM     15  C   UNL     1       8.924   7.754   7.825  0.00  0.00    +0.123 C 
ATOM     17  C   UNL     1       9.591   5.386   7.574  0.00  0.00    +0.230 C 
ATOM     30  H   UNL     1       9.633   6.446   9.367  0.00  0.00    +0.149 HD
ENDROOT
BRANCH  12   7
ATOM      4  O   UNL     1      11.595   5.599   1.401  0.00  0.00    -0.253 OA
ATOM      7  N   UNL     1      11.644   5.254   3.687  0.00  0.00    -0.295 N 
ATOM      9  N   UNL     1      13.605   5.090   2.502  0.00  0.00    -0.269 N 
ATOM     20  C   UNL     1      12.232   5.339   2.420  0.00  0.00    +0.304 C 
ATOM     31  H   UNL     1      12.252   5.122   4.490  0.00  0.00    +0.151 HD
ATOM     32  H   UNL     1      13.990   4.888   3.422  0.00  0.00    +0.156 HD
BRANCH   9  26
ATOM      1  S   UNL     1      16.096   4.249  -0.424  0.00  0.00    -0.103 S 
ATOM     26  C   UNL     1      14.551   5.083   1.451  0.00  0.00    +0.042 A 
ATOM     27  C   UNL     1      15.207   6.238   0.935  0.00  0.00    +0.031 A 
ATOM     28  C   UNL     1      14.942   3.933   0.801  0.00  0.00    +0.068 A 
ATOM     29  C   UNL     1      16.075   5.928  -0.087  0.00  0.00    +0.047 A 
ENDBRANCH   9  26
ENDBRANCH  12   7
BRANCH  11  16
ATOM     16  C   UNL     1      10.653   9.070   6.541  0.00  0.00    +0.029 C 
BRANCH  16  18
ATOM     18  C   UNL     1      11.971   8.380   6.859  0.00  0.00    +0.097 C 
BRANCH  18  19
ATOM      3  O   UNL     1      12.915  10.539   7.105  0.00  0.00    -0.276 OA
ATOM      8  N   UNL     1      14.361   8.845   6.444  0.00  0.00    -0.301 N 
ATOM     19  C   UNL     1      13.119   9.357   6.817  0.00  0.00    +0.216 C 
ATOM     21  C   UNL     1      15.524   9.732   6.377  0.00  0.00    +0.108 C 
ATOM     22  C   UNL     1      14.644   7.437   6.140  0.00  0.00    +0.108 C 
ATOM     23  C   UNL     1      16.203   9.641   5.013  0.00  0.00    +0.019 C 
ATOM     24  C   UNL     1      15.307   7.301   4.771  0.00  0.00    +0.019 C 
ATOM     25  C   UNL     1      16.542   8.194   4.660  0.00  0.00    +0.003 C 
ENDBRANCH  18  19
ENDBRANCH  16  18
ENDBRANCH  11  16
TORSDOF 5
ENDMDL
MODEL 3
REMARK VINA RESULT:      -6.5     28.319     30.039
REMARK  Name = 26762945
REMARK  5 active torsions:
REMARK  status: ('A' for Active; 'I' for Inactive)
REMARK    1  A    between atoms: N_7  and  C_12
REMARK    2  A    between atoms: N_9  and  C_26
REMARK    3  A    between atoms: C_11  and  C_16
REMARK    4  A    between atoms: C_16  and  C_18
REMARK    5  A    between atoms: C_18  and  C_19
REMARK                            x       y       z     vdW  Elec       q    Type
REMARK                         _______ _______ _______ _____ _____    ______ ____
ROOT
ATOM      2  O   UNL     1     -14.314  -0.609  29.183  0.00  0.00    -0.274 OA
ATOM      5  N   UNL     1     -15.508   2.540  29.861  0.00  0.00    -0.285 NA
ATOM      6  N   UNL     1     -14.188   0.579  31.161  0.00  0.00    -0.313 N 
ATOM     10  C   UNL     1     -15.918   1.164  29.586  0.00  0.00    +0.145 C 
ATOM     11  C   UNL     1     -15.294   2.814  31.285  0.00  0.00    +0.075 C 
ATOM     12  C   UNL     1     -16.661   2.686  27.848  0.00  0.00    +0.090 C 
ATOM     13  C   UNL     1     -16.321   1.213  28.117  0.00  0.00    +0.052 C 
ATOM     14  C   UNL     1     -16.495   3.386  29.199  0.00  0.00    +0.107 C 
ATOM     15  C   UNL     1     -14.820   1.550  32.038  0.00  0.00    +0.123 C 
ATOM     17  C   UNL     1     -14.727   0.284  29.915  0.00  0.00    +0.230 C 
ATOM     30  H   UNL     1     -13.404   0.033  31.504  0.00  0.00    +0.149 HD
ENDROOT
BRANCH  12   7
ATOM      4  O   UNL     1     -17.426   3.687  25.274  0.00  0.00    -0.253 OA
ATOM      7  N   UNL     1     -15.787   3.251  26.847  0.00  0.00    -0.295 N 
ATOM      9  N   UNL     1     -15.175   4.207  24.849  0.00  0.00    -0.269 N 
ATOM     20  C   UNL     1     -16.243   3.719  25.609  0.00  0.00    +0.304 C 
ATOM     31  H   UNL     1     -14.809   3.392  27.082  0.00  0.00    +0.151 HD
ATOM     32  H   UNL     1     -14.248   4.165  25.264  0.00  0.00    +0.156 HD
BRANCH   9  26
ATOM      1  S   UNL     1     -16.081   5.480  21.238  0.00  0.00    -0.103 S 
ATOM     26  C   UNL     1     -15.218   4.764  23.550  0.00  0.00    +0.042 A 
ATOM     27  C   UNL     1     -14.133   5.431  22.912  0.00  0.00    +0.031 A 
ATOM     28  C   UNL     1     -16.340   4.720  22.751  0.00  0.00    +0.068 A 
ATOM     29  C   UNL     1     -14.465   5.870  21.650  0.00  0.00    +0.047 A 
ENDBRANCH   9  26
ENDBRANCH  12   7
BRANCH  11  16
ATOM     16  C   UNL     1     -14.254   3.930  31.416  0.00  0.00    +0.029 C 
BRANCH  16  18
ATOM     18  C   UNL     1     -14.566   4.882  32.560  0.00  0.00    +0.097 C 
BRANCH  18  19
ATOM      3  O   UNL     1     -16.207   6.133  31.396  0.00  0.00    -0.276 OA
ATOM      8  N   UNL     1     -14.467   7.342  32.350  0.00  0.00    -0.301 N 
ATOM     19  C   UNL     1     -15.160   6.170  32.048  0.00  0.00    +0.216 C 
ATOM     21  C   UNL     1     -14.979   8.632  31.884  0.00  0.00    +0.108 C 
ATOM     22  C   UNL     1     -13.245   7.421  33.160  0.00  0.00    +0.108 C 
ATOM     23  C   UNL     1     -13.911   9.395  31.105  0.00  0.00    +0.019 C 
ATOM     24  C   UNL     1     -12.143   8.162  32.405  0.00  0.00    +0.019 C 
ATOM     25  C   UNL     1     -12.624   9.527  31.917  0.00  0.00    +0.003 C 
ENDBRANCH  18  19
ENDBRANCH  16  18
ENDBRANCH  11  16
TORSDOF 5
ENDMDL
MODEL 4
REMARK VINA RESULT:      -6.4     13.164     16.871
REMARK  Name = 26762945
REMARK  5 active torsions:
REMARK  status: ('A' for Active; 'I' for Inactive)
REMARK    1  A    between atoms: N_7  and  C_12
REMARK    2  A    between atoms: N_9  and  C_26
REMARK    3  A    between atoms: C_11  and  C_16
REMARK    4  A    between atoms: C_16  and  C_18
REMARK    5  A    between atoms: C_18  and  C_19
REMARK                            x       y       z     vdW  Elec       q    Type
REMARK                         _______ _______ _______ _____ _____    ______ ____
ROOT
ATOM      2  O   UNL     1       9.551   5.458   8.482  0.00  0.00    -0.274 OA
ATOM      5  N   UNL     1      10.877   7.950   6.525  0.00  0.00    -0.285 NA
ATOM      6  N   UNL     1      11.700   5.641   7.652  0.00  0.00    -0.313 N 
ATOM     10  C   UNL     1      10.383   7.651   7.867  0.00  0.00    +0.145 C 
ATOM     11  C   UNL     1      12.308   7.685   6.353  0.00  0.00    +0.075 C 
ATOM     12  C   UNL     1       9.011   9.315   6.757  0.00  0.00    +0.090 C 
ATOM     13  C   UNL     1       8.980   8.245   7.858  0.00  0.00    +0.052 C 
ATOM     14  C   UNL     1      10.451   9.317   6.243  0.00  0.00    +0.107 C 
ATOM     15  C   UNL     1      12.782   6.531   7.266  0.00  0.00    +0.123 C 
ATOM     17  C   UNL     1      10.462   6.144   8.031  0.00  0.00    +0.230 C 
ATOM     30  H   UNL     1      11.881   4.647   7.747  0.00  0.00    +0.149 HD
ENDROOT
BRANCH  12   7
ATOM      4  O   UNL     1       8.000  11.130   4.783  0.00  0.00    -0.253 OA
ATOM      7  N   UNL     1       8.071   9.009   5.704  0.00  0.00    -0.295 N 
ATOM      9  N   UNL     1       6.724   9.378   3.879  0.00  0.00    -0.269 N 
ATOM     20  C   UNL     1       7.626   9.959   4.776  0.00  0.00    +0.304 C 
ATOM     31  H   UNL     1       7.783   8.044   5.578  0.00  0.00    +0.151 HD
ATOM     32  H   UNL     1       6.512   8.392   4.003  0.00  0.00    +0.156 HD
BRANCH   9  26
ATOM      1  S   UNL     1       4.205  11.091   1.390  0.00  0.00    -0.103 S 
ATOM     26  C   UNL     1       6.054   9.998   2.799  0.00  0.00    +0.042 A 
ATOM     27  C   UNL     1       6.650  10.319   1.546  0.00  0.00    +0.031 A 
ATOM     28  C   UNL     1       4.727  10.364   2.849  0.00  0.00    +0.068 A 
ATOM     29  C   UNL     1       5.757  10.917   0.686  0.00  0.00    +0.047 A 
ENDBRANCH   9  26
ENDBRANCH  12   7
BRANCH  11  16
ATOM     16  C   UNL     1      12.569   7.339   4.885  0.00  0.00    +0.029 C 
BRANCH  16  18
ATOM     18  C   UNL     1      11.287   7.031   4.125  0.00  0.00    +0.097 C 
BRANCH  18  19
ATOM      3  O   UNL     1      10.691   4.829   4.763  0.00  0.00    -0.276 OA
ATOM      8  N   UNL     1      11.559   5.089   2.623  0.00  0.00    -0.301 N 
ATOM     19  C   UNL     1      11.148   5.551   3.874  0.00  0.00    +0.216 C 
ATOM     21  C   UNL     1      11.457   3.663   2.305  0.00  0.00    +0.108 C 
ATOM     22  C   UNL     1      12.063   5.929   1.530  0.00  0.00    +0.108 C 
ATOM     23  C   UNL     1      12.799   3.113   1.830  0.00  0.00    +0.019 C 
ATOM     24  C   UNL     1      13.418   5.422   1.040  0.00  0.00    +0.019 C 
ATOM     25  C   UNL     1      13.358   3.940   0.673  0.00  0.00    +0.003 C 
ENDBRANCH  18  19
ENDBRANCH  16  18
ENDBRANCH  11  16
TORSDOF 5
ENDMDL
MODEL 5
REMARK VINA RESULT:      -6.4     28.876     30.517
REMARK  Name = 26762945
REMARK  5 active torsions:
REMARK  status: ('A' for Active; 'I' for Inactive)
REMARK    1  A    between atoms: N_7  and  C_12
REMARK    2  A    between atoms: N_9  and  C_26
REMARK    3  A    between atoms: C_11  and  C_16
REMARK    4  A    between atoms: C_16  and  C_18
REMARK    5  A    between atoms: C_18  and  C_19
REMARK                            x       y       z     vdW  Elec       q    Type
REMARK                         _______ _______ _______ _____ _____    ______ ____
ROOT
ATOM      2  O   UNL     1     -17.204  -0.158  24.583  0.00  0.00    -0.274 OA
ATOM      5  N   UNL     1     -18.114   2.758  26.154  0.00  0.00    -0.285 NA
ATOM      6  N   UNL     1     -18.032   0.122  26.722  0.00  0.00    -0.313 N 
ATOM     10  C   UNL     1     -18.491   1.835  25.086  0.00  0.00    +0.145 C 
ATOM     11  C   UNL     1     -18.690   2.415  27.458  0.00  0.00    +0.075 C 
ATOM     12  C   UNL     1     -17.918   4.026  24.216  0.00  0.00    +0.090 C 
ATOM     13  C   UNL     1     -17.998   2.541  23.830  0.00  0.00    +0.052 C 
ATOM     14  C   UNL     1     -18.434   4.091  25.655  0.00  0.00    +0.107 C 
ATOM     15  C   UNL     1     -18.900   0.891  27.598  0.00  0.00    +0.123 C 
ATOM     17  C   UNL     1     -17.823   0.510  25.405  0.00  0.00    +0.230 C 
ATOM     30  H   UNL     1     -17.657  -0.765  27.044  0.00  0.00    +0.149 HD
ENDROOT
BRANCH  12   7
ATOM      4  O   UNL     1     -16.817   5.566  22.065  0.00  0.00    -0.253 OA
ATOM      7  N   UNL     1     -16.566   4.522  24.114  0.00  0.00    -0.295 N 
ATOM      9  N   UNL     1     -14.761   5.610  23.200  0.00  0.00    -0.269 N 
ATOM     20  C   UNL     1     -16.106   5.270  23.024  0.00  0.00    +0.304 C 
ATOM     31  H   UNL     1     -15.943   4.393  24.905  0.00  0.00    +0.151 HD
ATOM     32  H   UNL     1     -14.305   5.289  24.050  0.00  0.00    +0.156 HD
BRANCH   9  26
ATOM      1  S   UNL     1     -12.950   8.328  21.005  0.00  0.00    -0.103 S 
ATOM     26  C   UNL     1     -13.934   6.358  22.330  0.00  0.00    +0.042 A 
ATOM     27  C   UNL     1     -12.839   5.829  21.589  0.00  0.00    +0.031 A 
ATOM     28  C   UNL     1     -14.107   7.707  22.105  0.00  0.00    +0.068 A 
ATOM     29  C   UNL     1     -12.216   6.791  20.827  0.00  0.00    +0.047 A 
ENDBRANCH   9  26
ENDBRANCH  12   7
BRANCH  11  16
ATOM     16  C   UNL     1     -17.753   2.925  28.556  0.00  0.00    +0.029 C 
BRANCH  16  18
ATOM     18  C   UNL     1     -16.287   2.798  28.171  0.00  0.00    +0.097 C 
BRANCH  18  19
ATOM      3  O   UNL     1     -15.722   0.546  28.642  0.00  0.00    -0.276 OA
ATOM      8  N   UNL     1     -14.872   2.152  30.091  0.00  0.00    -0.301 N 
ATOM     19  C   UNL     1     -15.604   1.726  28.982  0.00  0.00    +0.216 C 
ATOM     21  C   UNL     1     -14.183   1.169  30.929  0.00  0.00    +0.108 C 
ATOM     22  C   UNL     1     -14.677   3.550  30.494  0.00  0.00    +0.108 C 
ATOM     23  C   UNL     1     -14.581   1.327  32.394  0.00  0.00    +0.019 C 
ATOM     24  C   UNL     1     -15.084   3.754  31.952  0.00  0.00    +0.019 C 
ATOM     25  C   UNL     1     -14.373   2.763  32.872  0.00  0.00    +0.003 C 
ENDBRANCH  18  19
ENDBRANCH  16  18
ENDBRANCH  11  16
TORSDOF 5
ENDMDL
MODEL 6
REMARK VINA RESULT:      -6.3     26.894     29.135
REMARK  Name = 26762945
REMARK  5 active torsions:
REMARK  status: ('A' for Active; 'I' for Inactive)
REMARK    1  A    between atoms: N_7  and  C_12
REMARK    2  A    between atoms: N_9  and  C_26
REMARK    3  A    between atoms: C_11  and  C_16
REMARK    4  A    between atoms: C_16  and  C_18
REMARK    5  A    between atoms: C_18  and  C_19
REMARK                            x       y       z     vdW  Elec       q    Type
REMARK                         _______ _______ _______ _____ _____    ______ ____
ROOT
ATOM      2  O   UNL     1      -7.542 -14.001  16.757  0.00  0.00    -0.274 OA
ATOM      5  N   UNL     1      -5.884 -11.429  18.317  0.00  0.00    -0.285 NA
ATOM      6  N   UNL     1      -5.320 -13.896  17.382  0.00  0.00    -0.313 N 
ATOM     10  C   UNL     1      -6.895 -12.464  18.518  0.00  0.00    +0.145 C 
ATOM     11  C   UNL     1      -4.519 -11.875  18.611  0.00  0.00    +0.075 C 
ATOM     12  C   UNL     1      -7.836 -10.239  18.733  0.00  0.00    +0.090 C 
ATOM     13  C   UNL     1      -8.205 -11.693  18.407  0.00  0.00    +0.052 C 
ATOM     14  C   UNL     1      -6.346 -10.273  19.078  0.00  0.00    +0.107 C 
ATOM     15  C   UNL     1      -4.348 -13.386  18.335  0.00  0.00    +0.123 C 
ATOM     17  C   UNL     1      -6.654 -13.516  17.451  0.00  0.00    +0.230 C 
ATOM     30  H   UNL     1      -5.043 -14.617  16.724  0.00  0.00    +0.149 HD
ENDROOT
BRANCH  12   7
ATOM      4  O   UNL     1     -10.387  -9.206  17.936  0.00  0.00    -0.253 OA
ATOM      7  N   UNL     1      -8.103  -9.367  17.614  0.00  0.00    -0.295 N 
ATOM      9  N   UNL     1      -9.336  -8.082  16.162  0.00  0.00    -0.269 N 
ATOM     20  C   UNL     1      -9.384  -8.906  17.291  0.00  0.00    +0.304 C 
ATOM     31  H   UNL     1      -7.316  -9.004  17.085  0.00  0.00    +0.151 HD
ATOM     32  H   UNL     1      -8.427  -7.928  15.734  0.00  0.00    +0.156 HD
BRANCH   9  26
ATOM      1  S   UNL     1     -12.385  -6.955  13.947  0.00  0.00    -0.103 S 
ATOM     26  C   UNL     1     -10.411  -7.422  15.522  0.00  0.00    +0.042 A 
ATOM     27  C   UNL     1     -10.856  -6.104  15.826  0.00  0.00    +0.031 A 
ATOM     28  C   UNL     1     -11.156  -8.001  14.518  0.00  0.00    +0.068 A 
ATOM     29  C   UNL     1     -11.922  -5.724  15.044  0.00  0.00    +0.047 A 
ENDBRANCH   9  26
ENDBRANCH  12   7
BRANCH  11  16
ATOM     16  C   UNL     1      -3.544 -11.066  17.752  0.00  0.00    +0.029 C 
BRANCH  16  18
ATOM     18  C   UNL     1      -3.996 -10.964  16.303  0.00  0.00    +0.097 C 
BRANCH  18  19
ATOM      3  O   UNL     1      -1.685 -11.146  15.815  0.00  0.00    -0.276 OA
ATOM      8  N   UNL     1      -3.136 -11.231  14.002  0.00  0.00    -0.301 N 
ATOM     19  C   UNL     1      -2.830 -11.123  15.359  0.00  0.00    +0.216 C 
ATOM     21  C   UNL     1      -2.058 -11.385  13.023  0.00  0.00    +0.108 C 
ATOM     22  C   UNL     1      -4.489 -11.252  13.435  0.00  0.00    +0.108 C 
ATOM     23  C   UNL     1      -2.158 -10.325  11.930  0.00  0.00    +0.019 C 
ATOM     24  C   UNL     1      -4.637 -10.189  12.348  0.00  0.00    +0.019 C 
ATOM     25  C   UNL     1      -3.545 -10.322  11.288  0.00  0.00    +0.003 C 
ENDBRANCH  18  19
ENDBRANCH  16  18
ENDBRANCH  11  16
TORSDOF 5
ENDMDL
MODEL 7
REMARK VINA RESULT:      -6.3     27.627     29.991
REMARK  Name = 26762945
REMARK  5 active torsions:
REMARK  status: ('A' for Active; 'I' for Inactive)
REMARK    1  A    between atoms: N_7  and  C_12
REMARK    2  A    between atoms: N_9  and  C_26
REMARK    3  A    between atoms: C_11  and  C_16
REMARK    4  A    between atoms: C_16  and  C_18
REMARK    5  A    between atoms: C_18  and  C_19
REMARK                            x       y       z     vdW  Elec       q    Type
REMARK                         _______ _______ _______ _____ _____    ______ ____
ROOT
ATOM      2  O   UNL     1     -19.162   6.135  24.961  0.00  0.00    -0.274 OA
ATOM      5  N   UNL     1     -16.290   4.480  24.060  0.00  0.00    -0.285 NA
ATOM      6  N   UNL     1     -17.907   6.383  23.037  0.00  0.00    -0.313 N 
ATOM     10  C   UNL     1     -17.728   4.311  24.259  0.00  0.00    +0.145 C 
ATOM     11  C   UNL     1     -15.931   4.895  22.700  0.00  0.00    +0.075 C 
ATOM     12  C   UNL     1     -16.442   2.971  25.820  0.00  0.00    +0.090 C 
ATOM     13  C   UNL     1     -17.810   3.642  25.626  0.00  0.00    +0.052 C 
ATOM     14  C   UNL     1     -15.679   3.239  24.522  0.00  0.00    +0.107 C 
ATOM     15  C   UNL     1     -17.050   5.742  22.054  0.00  0.00    +0.123 C 
ATOM     17  C   UNL     1     -18.344   5.694  24.161  0.00  0.00    +0.230 C 
ATOM     30  H   UNL     1     -18.275   7.310  22.850  0.00  0.00    +0.149 HD
ENDROOT
BRANCH  12   7
ATOM      4  O   UNL     1     -16.183   1.753  28.401  0.00  0.00    -0.253 OA
ATOM      7  N   UNL     1     -15.750   3.514  26.965  0.00  0.00    -0.295 N 
ATOM      9  N   UNL     1     -14.942   3.615  29.114  0.00  0.00    -0.269 N 
ATOM     20  C   UNL     1     -15.670   2.852  28.196  0.00  0.00    +0.304 C 
ATOM     31  H   UNL     1     -15.228   4.377  26.850  0.00  0.00    +0.151 HD
ATOM     32  H   UNL     1     -14.580   4.510  28.795  0.00  0.00    +0.156 HD
BRANCH   9  26
ATOM      1  S   UNL     1     -14.853   3.044  33.005  0.00  0.00    -0.103 S 
ATOM     26  C   UNL     1     -14.637   3.298  30.458  0.00  0.00    +0.042 A 
ATOM     27  C   UNL     1     -13.422   2.702  30.900  0.00  0.00    +0.031 A 
ATOM     28  C   UNL     1     -15.505   3.537  31.501  0.00  0.00    +0.068 A 
ATOM     29  C   UNL     1     -13.405   2.508  32.262  0.00  0.00    +0.047 A 
ENDBRANCH   9  26
ENDBRANCH  12   7
BRANCH  11  16
ATOM     16  C   UNL     1     -14.628   5.696  22.762  0.00  0.00    +0.029 C 
BRANCH  16  18
ATOM     18  C   UNL     1     -14.267   6.320  21.423  0.00  0.00    +0.097 C 
BRANCH  18  19
ATOM      3  O   UNL     1     -14.853   8.534  22.028  0.00  0.00    -0.276 OA
ATOM      8  N   UNL     1     -12.718   8.227  21.166  0.00  0.00    -0.301 N 
ATOM     19  C   UNL     1     -13.980   7.793  21.570  0.00  0.00    +0.216 C 
ATOM     21  C   UNL     1     -12.365   9.644  21.275  0.00  0.00    +0.108 C 
ATOM     22  C   UNL     1     -11.644   7.364  20.660  0.00  0.00    +0.108 C 
ATOM     23  C   UNL     1     -11.873  10.189  19.937  0.00  0.00    +0.019 C 
ATOM     24  C   UNL     1     -11.137   7.866  19.309  0.00  0.00    +0.019 C 
ATOM     25  C   UNL     1     -10.734   9.337  19.378  0.00  0.00    +0.003 C 
ENDBRANCH  18  19
ENDBRANCH  16  18
ENDBRANCH  11  16
TORSDOF 5
ENDMDL
MODEL 8
REMARK VINA RESULT:      -6.3     26.542     28.750
REMARK  Name = 26762945
REMARK  5 active torsions:
REMARK  status: ('A' for Active; 'I' for Inactive)
REMARK    1  A    between atoms: N_7  and  C_12
REMARK    2  A    between atoms: N_9  and  C_26
REMARK    3  A    between atoms: C_11  and  C_16
REMARK    4  A    between atoms: C_16  and  C_18
REMARK    5  A    between atoms: C_18  and  C_19
REMARK                            x       y       z     vdW  Elec       q    Type
REMARK                         _______ _______ _______ _____ _____    ______ ____
ROOT
ATOM      2  O   UNL     1      -5.332 -14.062  14.415  0.00  0.00    -0.274 OA
ATOM      5  N   UNL     1      -3.586 -11.268  15.386  0.00  0.00    -0.285 NA
ATOM      6  N   UNL     1      -3.175 -13.452  13.856  0.00  0.00    -0.313 N 
ATOM     10  C   UNL     1      -4.137 -12.532  15.868  0.00  0.00    +0.145 C 
ATOM     11  C   UNL     1      -2.217 -11.382  14.872  0.00  0.00    +0.075 C 
ATOM     12  C   UNL     1      -5.198 -10.627  16.932  0.00  0.00    +0.090 C 
ATOM     13  C   UNL     1      -5.420 -12.103  16.570  0.00  0.00    +0.052 C 
ATOM     14  C   UNL     1      -3.772 -10.315  16.475  0.00  0.00    +0.107 C 
ATOM     15  C   UNL     1      -1.955 -12.782  14.274  0.00  0.00    +0.123 C 
ATOM     17  C   UNL     1      -4.314 -13.419  14.650  0.00  0.00    +0.230 C 
ATOM     30  H   UNL     1      -3.164 -14.038  13.028  0.00  0.00    +0.149 HD
ENDROOT
BRANCH  12   7
ATOM      4  O   UNL     1      -7.961 -10.321  17.629  0.00  0.00    -0.253 OA
ATOM      7  N   UNL     1      -6.164  -9.776  16.278  0.00  0.00    -0.295 N 
ATOM      9  N   UNL     1      -8.196  -8.787  15.866  0.00  0.00    -0.269 N 
ATOM     20  C   UNL     1      -7.501  -9.684  16.682  0.00  0.00    +0.304 C 
ATOM     31  H   UNL     1      -5.842  -9.154  15.543  0.00  0.00    +0.151 HD
ATOM     32  H   UNL     1      -7.676  -8.335  15.118  0.00  0.00    +0.156 HD
BRANCH   9  26
ATOM      1  S   UNL     1     -12.052  -8.176  15.373  0.00  0.00    -0.103 S 
ATOM     26  C   UNL     1      -9.559  -8.417  15.947  0.00  0.00    +0.042 A 
ATOM     27  C   UNL     1     -10.135  -7.650  17.000  0.00  0.00    +0.031 A 
ATOM     28  C   UNL     1     -10.491  -8.770  14.995  0.00  0.00    +0.068 A 
ATOM     29  C   UNL     1     -11.483  -7.444  16.814  0.00  0.00    +0.047 A 
ENDBRANCH   9  26
ENDBRANCH  12   7
BRANCH  11  16
ATOM     16  C   UNL     1      -2.003 -10.302  13.808  0.00  0.00    +0.029 C 
BRANCH  16  18
ATOM     18  C   UNL     1      -1.708 -10.890  12.437  0.00  0.00    +0.097 C 
BRANCH  18  19
ATOM      3  O   UNL     1      -1.195  -9.169  10.892  0.00  0.00    -0.276 OA
ATOM      8  N   UNL     1      -3.391  -9.930  10.904  0.00  0.00    -0.301 N 
ATOM     19  C   UNL     1      -2.066  -9.918  11.341  0.00  0.00    +0.216 C 
ATOM     21  C   UNL     1      -3.816  -9.012   9.845  0.00  0.00    +0.108 C 
ATOM     22  C   UNL     1      -4.437 -10.838  11.388  0.00  0.00    +0.108 C 
ATOM     23  C   UNL     1      -5.026  -8.193  10.286  0.00  0.00    +0.019 C 
ATOM     24  C   UNL     1      -5.660 -10.053  11.858  0.00  0.00    +0.019 C 
ATOM     25  C   UNL     1      -6.156  -9.096  10.777  0.00  0.00    +0.003 C 
ENDBRANCH  18  19
ENDBRANCH  16  18
ENDBRANCH  11  16
TORSDOF 5
ENDMDL
MODEL 9
REMARK VINA RESULT:      -6.3     29.192     31.013
REMARK  Name = 26762945
REMARK  5 active torsions:
REMARK  status: ('A' for Active; 'I' for Inactive)
REMARK    1  A    between atoms: N_7  and  C_12
REMARK    2  A    between atoms: N_9  and  C_26
REMARK    3  A    between atoms: C_11  and  C_16
REMARK    4  A    between atoms: C_16  and  C_18
REMARK    5  A    between atoms: C_18  and  C_19
REMARK                            x       y       z     vdW  Elec       q    Type
REMARK                         _______ _______ _______ _____ _____    ______ ____
ROOT
ATOM      2  O   UNL     1     -14.209  -0.661  29.088  0.00  0.00    -0.274 OA
ATOM      5  N   UNL     1     -15.492   2.418  29.906  0.00  0.00    -0.285 NA
ATOM      6  N   UNL     1     -14.087   0.453  31.108  0.00  0.00    -0.313 N 
ATOM     10  C   UNL     1     -15.862   1.041  29.584  0.00  0.00    +0.145 C 
ATOM     11  C   UNL     1     -15.262   2.644  31.336  0.00  0.00    +0.075 C 
ATOM     12  C   UNL     1     -16.683   2.604  27.919  0.00  0.00    +0.090 C 
ATOM     13  C   UNL     1     -16.292   1.133  28.125  0.00  0.00    +0.052 C 
ATOM     14  C   UNL     1     -16.517   3.256  29.293  0.00  0.00    +0.107 C 
ATOM     15  C   UNL     1     -14.735   1.369  32.032  0.00  0.00    +0.123 C 
ATOM     17  C   UNL     1     -14.638   0.189  29.860  0.00  0.00    +0.230 C 
ATOM     30  H   UNL     1     -13.280  -0.079  31.417  0.00  0.00    +0.149 HD
ENDROOT
BRANCH  12   7
ATOM      4  O   UNL     1     -17.549   3.854  25.490  0.00  0.00    -0.253 OA
ATOM      7  N   UNL     1     -15.845   3.235  26.927  0.00  0.00    -0.295 N 
ATOM      9  N   UNL     1     -15.309   4.353  24.993  0.00  0.00    -0.269 N 
ATOM     20  C   UNL     1     -16.350   3.825  25.762  0.00  0.00    +0.304 C 
ATOM     31  H   UNL     1     -14.853   3.329  27.121  0.00  0.00    +0.151 HD
ATOM     32  H   UNL     1     -14.363   4.249  25.352  0.00  0.00    +0.156 HD
BRANCH   9  26
ATOM      1  S   UNL     1     -16.101   6.721  21.953  0.00  0.00    -0.103 S 
ATOM     26  C   UNL     1     -15.402   5.027  23.753  0.00  0.00    +0.042 A 
ATOM     27  C   UNL     1     -14.693   4.664  22.572  0.00  0.00    +0.031 A 
ATOM     28  C   UNL     1     -16.204   6.130  23.556  0.00  0.00    +0.068 A 
ATOM     29  C   UNL     1     -14.980   5.501  21.518  0.00  0.00    +0.047 A 
ENDBRANCH   9  26
ENDBRANCH  12   7
BRANCH  11  16
ATOM     16  C   UNL     1     -14.256   3.788  31.494  0.00  0.00    +0.029 C 
BRANCH  16  18
ATOM     18  C   UNL     1     -14.527   4.632  32.730  0.00  0.00    +0.097 C 
BRANCH  18  19
ATOM      3  O   UNL     1     -14.866   6.761  31.748  0.00  0.00    -0.276 OA
ATOM      8  N   UNL     1     -16.689   5.823  32.841  0.00  0.00    -0.301 N 
ATOM     19  C   UNL     1     -15.369   5.836  32.391  0.00  0.00    +0.216 C 
ATOM     21  C   UNL     1     -17.568   6.958  32.554  0.00  0.00    +0.108 C 
ATOM     22  C   UNL     1     -17.327   4.719  33.569  0.00  0.00    +0.108 C 
ATOM     23  C   UNL     1     -18.196   7.500  33.835  0.00  0.00    +0.019 C 
ATOM     24  C   UNL     1     -17.952   5.218  34.870  0.00  0.00    +0.019 C 
ATOM     25  C   UNL     1     -18.898   6.392  34.619  0.00  0.00    +0.003 C 
ENDBRANCH  18  19
ENDBRANCH  16  18
ENDBRANCH  11  16
TORSDOF 5
ENDMDL
MODEL 10
REMARK VINA RESULT:      -6.1     27.624     30.367
REMARK  Name = 26762945
REMARK  5 active torsions:
REMARK  status: ('A' for Active; 'I' for Inactive)
REMARK    1  A    between atoms: N_7  and  C_12
REMARK    2  A    between atoms: N_9  and  C_26
REMARK    3  A    between atoms: C_11  and  C_16
REMARK    4  A    between atoms: C_16  and  C_18
REMARK    5  A    between atoms: C_18  and  C_19
REMARK                            x       y       z     vdW  Elec       q    Type
REMARK                         _______ _______ _______ _____ _____    ______ ____
ROOT
ATOM      2  O   UNL     1      -3.864 -12.086  19.585  0.00  0.00    -0.274 OA
ATOM      5  N   UNL     1      -5.874 -10.854  17.088  0.00  0.00    -0.285 NA
ATOM      6  N   UNL     1      -3.359 -11.797  17.349  0.00  0.00    -0.313 N 
ATOM     10  C   UNL     1      -5.145 -10.480  18.297  0.00  0.00    +0.145 C 
ATOM     11  C   UNL     1      -5.073 -10.751  15.864  0.00  0.00    +0.075 C 
ATOM     12  C   UNL     1      -7.538 -10.186  18.566  0.00  0.00    +0.090 C 
ATOM     13  C   UNL     1      -6.240 -10.418  19.355  0.00  0.00    +0.052 C 
ATOM     14  C   UNL     1      -7.100 -10.063  17.106  0.00  0.00    +0.107 C 
ATOM     15  C   UNL     1      -3.576 -11.010  16.147  0.00  0.00    +0.123 C 
ATOM     17  C   UNL     1      -4.083 -11.543  18.508  0.00  0.00    +0.230 C 
ATOM     30  H   UNL     1      -2.600 -12.470  17.376  0.00  0.00    +0.149 HD
ENDROOT
BRANCH  12   7
ATOM      4  O   UNL     1      -9.682 -10.305  20.463  0.00  0.00    -0.253 OA
ATOM      7  N   UNL     1      -8.466 -11.276  18.753  0.00  0.00    -0.295 N 
ATOM      9  N   UNL     1     -10.225 -12.443  19.658  0.00  0.00    -0.269 N 
ATOM     20  C   UNL     1      -9.490 -11.255  19.707  0.00  0.00    +0.304 C 
ATOM     31  H   UNL     1      -8.427 -12.060  18.108  0.00  0.00    +0.151 HD
ATOM     32  H   UNL     1      -9.943 -13.141  18.975  0.00  0.00    +0.156 HD
BRANCH   9  26
ATOM      1  S   UNL     1     -13.714 -12.882  21.423  0.00  0.00    -0.103 S 
ATOM     26  C   UNL     1     -11.336 -12.809  20.454  0.00  0.00    +0.042 A 
ATOM     27  C   UNL     1     -11.318 -13.807  21.470  0.00  0.00    +0.031 A 
ATOM     28  C   UNL     1     -12.578 -12.226  20.323  0.00  0.00    +0.068 A 
ATOM     29  C   UNL     1     -12.545 -13.949  22.078  0.00  0.00    +0.047 A 
ENDBRANCH   9  26
ENDBRANCH  12   7
BRANCH  11  16
ATOM     16  C   UNL     1      -5.603 -11.765  14.847  0.00  0.00    +0.029 C 
BRANCH  16  18
ATOM     18  C   UNL     1      -5.062 -11.519  13.447  0.00  0.00    +0.097 C 
BRANCH  18  19
ATOM      3  O   UNL     1      -6.891 -10.046  13.135  0.00  0.00    -0.276 OA
ATOM      8  N   UNL     1      -4.998  -9.632  11.853  0.00  0.00    -0.301 N 
ATOM     19  C   UNL     1      -5.738 -10.334  12.804  0.00  0.00    +0.216 C 
ATOM     21  C   UNL     1      -5.588  -8.472  11.183  0.00  0.00    +0.108 C 
ATOM     22  C   UNL     1      -3.611  -9.924  11.471  0.00  0.00    +0.108 C 
ATOM     23  C   UNL     1      -5.507  -8.618   9.666  0.00  0.00    +0.019 C 
ATOM     24  C   UNL     1      -3.492 -10.098   9.958  0.00  0.00    +0.019 C 
ATOM     25  C   UNL     1      -4.075  -8.899   9.213  0.00  0.00    +0.003 C 
ENDBRANCH  18  19
ENDBRANCH  16  18
ENDBRANCH  11  16
TORSDOF 5
ENDMDL
