REMARK  Name = 11884078
REMARK  9 active torsions:
REMARK  status: ('A' for Active; 'I' for Inactive)
REMARK    1  A    between atoms: S_1  and  N_9
REMARK    2  A    between atoms: S_1  and  C_17
REMARK    3  A    between atoms: O_4  and  C_14
REMARK    4  A    between atoms: O_4  and  C_18
REMARK    5  A    between atoms: O_8  and  C_30
REMARK    6  A    between atoms: O_8  and  C_31
REMARK    7  A    between atoms: N_9  and  C_13
REMARK    8  A    between atoms: N_10  and  C_22
REMARK    9  A    between atoms: C_17  and  C_19
REMARK                            x       y       z     vdW  Elec       q    Type
REMARK                         _______ _______ _______ _____ _____    ______ ____
ROOT
ATOM      2  O   UNL     1       0.027   0.476  -1.062  0.00  0.00    -0.369 OA
ATOM      3  O   UNL     1       0.959   2.613   0.946  0.00  0.00    -0.368 OA
ATOM     11  C   UNL     1       1.156   1.184   0.902  0.00  0.00    +0.171 C 
ATOM     12  C   UNL     1      -0.126   0.580   0.363  0.00  0.00    +0.191 C 
ATOM     13  C   UNL     1       2.188   0.839  -0.142  0.00  0.00    +0.133 C 
ATOM     14  C   UNL     1      -1.160   1.612   0.742  0.00  0.00    +0.235 C 
ATOM     15  C   UNL     1       1.376   0.811  -1.422  0.00  0.00    +0.183 C 
ATOM     16  C   UNL     1      -0.395   2.905   0.573  0.00  0.00    +0.207 C 
ENDROOT
BRANCH  13   9
ATOM      9  N   UNL     1       2.749  -0.507   0.126  0.00  0.00    -0.186 NA
ATOM     32  H   UNL     1       2.390  -1.010   0.947  0.00  0.00    +0.148 HD
BRANCH   9   1
ATOM      1  S   UNL     1       4.303  -0.883  -0.460  0.00  0.00    +0.034 S 
ATOM      5  O   UNL     1       4.562  -0.152  -1.685  0.00  0.00    -0.158 OA
ATOM      6  O   UNL     1       4.472  -2.323  -0.406  0.00  0.00    -0.158 OA
BRANCH   1  17
ATOM     17  C   UNL     1       5.316  -0.181   0.821  0.00  0.00    +0.220 C 
BRANCH  17  19
ATOM     19  C   UNL     1       6.748  -0.428   0.457  0.00  0.00    -0.025 A 
ATOM     20  C   UNL     1       7.443   0.507  -0.310  0.00  0.00    +0.005 A 
ATOM     21  C   UNL     1       7.386  -1.592   0.885  0.00  0.00    +0.005 A 
ATOM     23  C   UNL     1       8.777   0.277  -0.650  0.00  0.00    +0.000 A 
ATOM     24  C   UNL     1       8.720  -1.821   0.546  0.00  0.00    +0.000 A 
ATOM     25  C   UNL     1       9.415  -0.886  -0.222  0.00  0.00    +0.000 A 
ENDBRANCH  17  19
ENDBRANCH   1  17
ENDBRANCH   9   1
ENDBRANCH  13   9
BRANCH  14   4
ATOM      4  O   UNL     1      -2.317   1.571  -0.063  0.00  0.00    -0.442 OA
BRANCH   4  18
ATOM      7  O   UNL     1      -3.320   0.173   1.444  0.00  0.00    -0.226 OA
ATOM     10  N   UNL     1      -4.415   0.869  -0.505  0.00  0.00    -0.251 N 
ATOM     18  C   UNL     1      -3.367   0.801   0.393  0.00  0.00    +0.405 C 
ATOM     33  H   UNL     1      -4.264   1.448  -1.328  0.00  0.00    +0.158 HD
BRANCH  10  22
ATOM     22  C   UNL     1      -5.674   0.233  -0.423  0.00  0.00    +0.037 A 
ATOM     26  C   UNL     1      -6.617   0.420  -1.434  0.00  0.00    +0.027 A 
ATOM     27  C   UNL     1      -5.975  -0.581   0.669  0.00  0.00    +0.027 A 
ATOM     28  C   UNL     1      -7.860  -0.207  -1.353  0.00  0.00    +0.047 A 
ATOM     29  C   UNL     1      -7.218  -1.208   0.750  0.00  0.00    +0.047 A 
ATOM     30  C   UNL     1      -8.161  -1.021  -0.261  0.00  0.00    +0.120 A 
BRANCH  30   8
ATOM      8  O   UNL     1      -9.374  -1.632  -0.182  0.00  0.00    -0.495 OA
ATOM     31  C   UNL     1      -9.616  -2.450   0.962  0.00  0.00    +0.277 C 
ENDBRANCH  30   8
ENDBRANCH  10  22
ENDBRANCH   4  18
ENDBRANCH  14   4
TORSDOF 8
