MODEL 1
REMARK VINA RESULT:      -7.5      0.000      0.000
REMARK  Name = 11886249
REMARK  6 active torsions:
REMARK  status: ('A' for Active; 'I' for Inactive)
REMARK    1  A    between atoms: O_3  and  C_19
REMARK    2  A    between atoms: O_3  and  C_24
REMARK    3  A    between atoms: N_5  and  C_15
REMARK    4  A    between atoms: N_6  and  C_16
REMARK    5  A    between atoms: N_10  and  C_32
REMARK    6  A    between atoms: C_20  and  C_21
REMARK                            x       y       z     vdW  Elec       q    Type
REMARK                         _______ _______ _______ _____ _____    ______ ____
ROOT
ATOM      1  O   UNL     1      13.534   7.392  17.441  0.00  0.00    -0.370 OA
ATOM      2  O   UNL     1      13.436   8.495  20.360  0.00  0.00    -0.370 OA
ATOM     13  C   UNL     1      14.051   8.971  19.148  0.00  0.00    +0.176 C 
ATOM     14  C   UNL     1      14.548   7.753  18.395  0.00  0.00    +0.171 C 
ATOM     15  C   UNL     1      12.996   9.578  18.243  0.00  0.00    +0.171 C 
ATOM     16  C   UNL     1      14.672   6.681  19.456  0.00  0.00    +0.130 C 
ATOM     17  C   UNL     1      12.487   8.373  17.459  0.00  0.00    +0.190 C 
ATOM     18  C   UNL     1      13.564   7.067  20.421  0.00  0.00    +0.185 C 
ENDROOT
BRANCH  15   5
ATOM      5  N   UNL     1      13.522  10.676  17.427  0.00  0.00    -0.187 N 
ATOM      7  N   UNL     1      13.574  10.579  16.096  0.00  0.00    -0.041 NA
ATOM      8  N   UNL     1      14.367  12.552  16.765  0.00  0.00    -0.071 NA
ATOM      9  N   UNL     1      14.093  11.732  15.693  0.00  0.00    -0.020 NA
ATOM     19  C   UNL     1      14.003  11.876  17.831  0.00  0.00    +0.342 A 
BRANCH  19   3
ATOM      3  O   UNL     1      14.087  12.277  19.085  0.00  0.00    -0.423 OA
BRANCH   3  24
ATOM     24  C   UNL     1      13.014  12.839  19.764  0.00  0.00    +0.132 A 
ATOM     27  C   UNL     1      12.582  14.101  19.404  0.00  0.00    +0.048 A 
ATOM     28  C   UNL     1      12.411  12.121  20.777  0.00  0.00    +0.048 A 
ATOM     30  C   UNL     1      11.504  14.667  20.086  0.00  0.00    +0.031 A 
ATOM     31  C   UNL     1      11.332  12.687  21.459  0.00  0.00    +0.031 A 
ATOM     32  C   UNL     1      10.880  13.959  21.113  0.00  0.00    +0.067 A 
BRANCH  32  10
ATOM     10  N   UNL     1       9.811  14.519  21.788  0.00  0.00    -0.220 N 
ATOM     11  N   UNL     1       8.695  14.920  21.153  0.00  0.00    -0.154 NA
ATOM     12  N   UNL     1       8.546  15.291  23.405  0.00  0.00    -0.222 NA
ATOM     33  C   UNL     1       9.709  14.746  23.130  0.00  0.00    +0.225 A 
ATOM     34  C   UNL     1       7.965  15.377  22.172  0.00  0.00    +0.245 A 
ENDBRANCH  32  10
ENDBRANCH   3  24
ENDBRANCH  19   3
ENDBRANCH  15   5
BRANCH  16   6
ATOM      4  O   UNL     1      17.179   5.583  18.550  0.00  0.00    -0.270 OA
ATOM      6  N   UNL     1      15.966   6.774  20.129  0.00  0.00    -0.304 N 
ATOM     20  C   UNL     1      17.120   6.207  19.606  0.00  0.00    +0.244 C 
ATOM     35  H   UNL     1      15.969   7.176  21.059  0.00  0.00    +0.149 HD
BRANCH  20  21
ATOM     21  C   UNL     1      18.351   6.367  20.424  0.00  0.00    +0.037 A 
ATOM     22  C   UNL     1      19.391   5.479  20.241  0.00  0.00    +0.013 A 
ATOM     23  C   UNL     1      18.413   7.396  21.339  0.00  0.00    +0.013 A 
ATOM     25  C   UNL     1      20.547   5.629  21.008  0.00  0.00    +0.001 A 
ATOM     26  C   UNL     1      19.569   7.546  22.107  0.00  0.00    +0.001 A 
ATOM     29  C   UNL     1      20.636   6.663  21.941  0.00  0.00    +0.000 A 
ENDBRANCH  20  21
ENDBRANCH  16   6
TORSDOF 6
ENDMDL
MODEL 2
REMARK VINA RESULT:      -7.4     28.009     29.993
REMARK  Name = 11886249
REMARK  6 active torsions:
REMARK  status: ('A' for Active; 'I' for Inactive)
REMARK    1  A    between atoms: O_3  and  C_19
REMARK    2  A    between atoms: O_3  and  C_24
REMARK    3  A    between atoms: N_5  and  C_15
REMARK    4  A    between atoms: N_6  and  C_16
REMARK    5  A    between atoms: N_10  and  C_32
REMARK    6  A    between atoms: C_20  and  C_21
REMARK                            x       y       z     vdW  Elec       q    Type
REMARK                         _______ _______ _______ _____ _____    ______ ____
ROOT
ATOM      1  O   UNL     1      -4.609 -13.192  16.869  0.00  0.00    -0.370 OA
ATOM      2  O   UNL     1      -4.223 -10.095  16.938  0.00  0.00    -0.370 OA
ATOM     13  C   UNL     1      -5.383 -10.940  16.817  0.00  0.00    +0.176 C 
ATOM     14  C   UNL     1      -4.977 -12.131  15.971  0.00  0.00    +0.171 C 
ATOM     15  C   UNL     1      -5.729 -11.531  18.170  0.00  0.00    +0.171 C 
ATOM     16  C   UNL     1      -3.764 -11.650  15.204  0.00  0.00    +0.130 C 
ATOM     17  C   UNL     1      -4.871 -12.790  18.221  0.00  0.00    +0.190 C 
ATOM     18  C   UNL     1      -3.145 -10.668  16.183  0.00  0.00    +0.185 C 
ENDROOT
BRANCH  15   5
ATOM      5  N   UNL     1      -7.169 -11.749  18.335  0.00  0.00    -0.187 N 
ATOM      7  N   UNL     1      -7.646 -12.947  18.686  0.00  0.00    -0.041 NA
ATOM      8  N   UNL     1      -9.313 -11.489  18.426  0.00  0.00    -0.071 NA
ATOM      9  N   UNL     1      -8.962 -12.783  18.741  0.00  0.00    -0.020 NA
ATOM     19  C   UNL     1      -8.183 -10.866  18.178  0.00  0.00    +0.342 A 
BRANCH  19   3
ATOM      3  O   UNL     1      -8.041  -9.601  17.833  0.00  0.00    -0.423 OA
BRANCH   3  24
ATOM     24  C   UNL     1      -8.941  -8.946  17.004  0.00  0.00    +0.132 A 
ATOM     27  C   UNL     1      -9.766  -7.978  17.544  0.00  0.00    +0.048 A 
ATOM     28  C   UNL     1      -8.986  -9.280  15.665  0.00  0.00    +0.048 A 
ATOM     30  C   UNL     1     -10.672  -7.319  16.711  0.00  0.00    +0.031 A 
ATOM     31  C   UNL     1      -9.891  -8.621  14.832  0.00  0.00    +0.031 A 
ATOM     32  C   UNL     1     -10.733  -7.641  15.355  0.00  0.00    +0.067 A 
BRANCH  32  10
ATOM     10  N   UNL     1     -11.630  -6.988  14.530  0.00  0.00    -0.220 N 
ATOM     11  N   UNL     1     -12.241  -7.609  13.505  0.00  0.00    -0.154 NA
ATOM     12  N   UNL     1     -12.890  -5.421  13.656  0.00  0.00    -0.222 NA
ATOM     33  C   UNL     1     -12.026  -5.684  14.608  0.00  0.00    +0.225 A 
ATOM     34  C   UNL     1     -12.989  -6.620  13.011  0.00  0.00    +0.245 A 
ENDBRANCH  32  10
ENDBRANCH   3  24
ENDBRANCH  19   3
ENDBRANCH  15   5
BRANCH  16   6
ATOM      4  O   UNL     1      -2.163 -11.176  12.854  0.00  0.00    -0.270 OA
ATOM      6  N   UNL     1      -4.172 -10.946  13.990  0.00  0.00    -0.304 N 
ATOM     20  C   UNL     1      -3.321 -10.770  12.909  0.00  0.00    +0.244 C 
ATOM     35  H   UNL     1      -5.076 -10.487  14.011  0.00  0.00    +0.149 HD
BRANCH  20  21
ATOM     21  C   UNL     1      -3.878 -10.009  11.760  0.00  0.00    +0.037 A 
ATOM     22  C   UNL     1      -5.180  -9.558  11.830  0.00  0.00    +0.013 A 
ATOM     23  C   UNL     1      -3.076  -9.777  10.663  0.00  0.00    +0.013 A 
ATOM     25  C   UNL     1      -5.703  -8.842  10.752  0.00  0.00    +0.001 A 
ATOM     26  C   UNL     1      -3.599  -9.062   9.585  0.00  0.00    +0.001 A 
ATOM     29  C   UNL     1      -4.912  -8.594   9.630  0.00  0.00    +0.000 A 
ENDBRANCH  20  21
ENDBRANCH  16   6
TORSDOF 6
ENDMDL
MODEL 3
REMARK VINA RESULT:      -7.2     29.299     32.150
REMARK  Name = 11886249
REMARK  6 active torsions:
REMARK  status: ('A' for Active; 'I' for Inactive)
REMARK    1  A    between atoms: O_3  and  C_19
REMARK    2  A    between atoms: O_3  and  C_24
REMARK    3  A    between atoms: N_5  and  C_15
REMARK    4  A    between atoms: N_6  and  C_16
REMARK    5  A    between atoms: N_10  and  C_32
REMARK    6  A    between atoms: C_20  and  C_21
REMARK                            x       y       z     vdW  Elec       q    Type
REMARK                         _______ _______ _______ _____ _____    ______ ____
ROOT
ATOM      1  O   UNL     1     -13.948   2.516  33.716  0.00  0.00    -0.370 OA
ATOM      2  O   UNL     1     -16.268   4.098  32.352  0.00  0.00    -0.370 OA
ATOM     13  C   UNL     1     -15.164   3.331  31.836  0.00  0.00    +0.176 C 
ATOM     14  C   UNL     1     -13.983   3.583  32.753  0.00  0.00    +0.171 C 
ATOM     15  C   UNL     1     -15.455   1.850  31.986  0.00  0.00    +0.171 C 
ATOM     16  C   UNL     1     -14.311   4.894  33.435  0.00  0.00    +0.130 C 
ATOM     17  C   UNL     1     -14.954   1.545  33.394  0.00  0.00    +0.190 C 
ATOM     18  C   UNL     1     -15.828   4.841  33.499  0.00  0.00    +0.185 C 
ENDROOT
BRANCH  15   5
ATOM      5  N   UNL     1     -14.849   1.048  30.920  0.00  0.00    -0.187 N 
ATOM      7  N   UNL     1     -13.686   0.419  31.111  0.00  0.00    -0.041 NA
ATOM      8  N   UNL     1     -14.447   0.043  29.049  0.00  0.00    -0.071 NA
ATOM      9  N   UNL     1     -13.443  -0.197  29.961  0.00  0.00    -0.020 NA
ATOM     19  C   UNL     1     -15.309   0.817  29.668  0.00  0.00    +0.342 A 
BRANCH  19   3
ATOM      3  O   UNL     1     -16.433   1.299  29.172  0.00  0.00    -0.423 OA
BRANCH   3  24
ATOM     24  C   UNL     1     -16.521   1.821  27.888  0.00  0.00    +0.132 A 
ATOM     27  C   UNL     1     -16.154   3.135  27.673  0.00  0.00    +0.048 A 
ATOM     28  C   UNL     1     -16.972   1.011  26.864  0.00  0.00    +0.048 A 
ATOM     30  C   UNL     1     -16.242   3.660  26.383  0.00  0.00    +0.031 A 
ATOM     31  C   UNL     1     -17.060   1.536  25.574  0.00  0.00    +0.031 A 
ATOM     32  C   UNL     1     -16.694   2.860  25.334  0.00  0.00    +0.067 A 
BRANCH  32  10
ATOM     10  N   UNL     1     -16.781   3.379  24.056  0.00  0.00    -0.220 N 
ATOM     11  N   UNL     1     -16.173   4.528  23.709  0.00  0.00    -0.154 NA
ATOM     12  N   UNL     1     -17.307   3.622  21.941  0.00  0.00    -0.222 NA
ATOM     33  C   UNL     1     -17.453   2.850  22.992  0.00  0.00    +0.225 A 
ATOM     34  C   UNL     1     -16.522   4.629  22.425  0.00  0.00    +0.245 A 
ENDBRANCH  32  10
ENDBRANCH   3  24
ENDBRANCH  19   3
ENDBRANCH  15   5
BRANCH  16   6
ATOM      4  O   UNL     1     -13.325   7.443  34.351  0.00  0.00    -0.270 OA
ATOM      6  N   UNL     1     -13.890   6.021  32.607  0.00  0.00    -0.304 N 
ATOM     20  C   UNL     1     -13.428   7.213  33.149  0.00  0.00    +0.244 C 
ATOM     35  H   UNL     1     -14.056   5.943  31.610  0.00  0.00    +0.149 HD
BRANCH  20  21
ATOM     21  C   UNL     1     -13.065   8.273  32.173  0.00  0.00    +0.037 A 
ATOM     22  C   UNL     1     -14.074   8.979  31.551  0.00  0.00    +0.013 A 
ATOM     23  C   UNL     1     -11.732   8.517  31.920  0.00  0.00    +0.013 A 
ATOM     25  C   UNL     1     -13.734   9.974  30.635  0.00  0.00    +0.001 A 
ATOM     26  C   UNL     1     -11.391   9.513  31.004  0.00  0.00    +0.001 A 
ATOM     29  C   UNL     1     -12.392  10.242  30.362  0.00  0.00    +0.000 A 
ENDBRANCH  20  21
ENDBRANCH  16   6
TORSDOF 6
ENDMDL
MODEL 4
REMARK VINA RESULT:      -6.9     14.047     17.431
REMARK  Name = 11886249
REMARK  6 active torsions:
REMARK  status: ('A' for Active; 'I' for Inactive)
REMARK    1  A    between atoms: O_3  and  C_19
REMARK    2  A    between atoms: O_3  and  C_24
REMARK    3  A    between atoms: N_5  and  C_15
REMARK    4  A    between atoms: N_6  and  C_16
REMARK    5  A    between atoms: N_10  and  C_32
REMARK    6  A    between atoms: C_20  and  C_21
REMARK                            x       y       z     vdW  Elec       q    Type
REMARK                         _______ _______ _______ _____ _____    ______ ____
ROOT
ATOM      1  O   UNL     1      12.934   9.966   6.689  0.00  0.00    -0.370 OA
ATOM      2  O   UNL     1      13.845   8.671   3.999  0.00  0.00    -0.370 OA
ATOM     13  C   UNL     1      13.492   8.125   5.284  0.00  0.00    +0.176 C 
ATOM     14  C   UNL     1      14.015   9.088   6.332  0.00  0.00    +0.171 C 
ATOM     15  C   UNL     1      11.986   8.153   5.456  0.00  0.00    +0.171 C 
ATOM     16  C   UNL     1      15.104   9.862   5.621  0.00  0.00    +0.130 C 
ATOM     17  C   UNL     1      11.734   9.544   6.027  0.00  0.00    +0.190 C 
ATOM     18  C   UNL     1      14.589   9.883   4.192  0.00  0.00    +0.185 C 
ENDROOT
BRANCH  15   5
ATOM      5  N   UNL     1      11.495   7.043   6.278  0.00  0.00    -0.187 N 
ATOM      7  N   UNL     1      12.058   6.759   7.455  0.00  0.00    -0.041 NA
ATOM      8  N   UNL     1      10.387   5.346   7.029  0.00  0.00    -0.071 NA
ATOM      9  N   UNL     1      11.375   5.717   7.914  0.00  0.00    -0.020 NA
ATOM     19  C   UNL     1      10.480   6.183   6.022  0.00  0.00    +0.342 A 
BRANCH  19   3
ATOM      3  O   UNL     1       9.727   6.200   4.938  0.00  0.00    -0.423 OA
BRANCH   3  24
ATOM     24  C   UNL     1      10.142   5.654   3.731  0.00  0.00    +0.132 A 
ATOM     27  C   UNL     1      10.784   4.431   3.735  0.00  0.00    +0.048 A 
ATOM     28  C   UNL     1       9.900   6.349   2.562  0.00  0.00    +0.048 A 
ATOM     30  C   UNL     1      11.201   3.882   2.521  0.00  0.00    +0.031 A 
ATOM     31  C   UNL     1      10.317   5.800   1.349  0.00  0.00    +0.031 A 
ATOM     32  C   UNL     1      10.967   4.567   1.329  0.00  0.00    +0.067 A 
BRANCH  32  10
ATOM     10  N   UNL     1      11.379   4.023   0.127  0.00  0.00    -0.220 N 
ATOM     11  N   UNL     1      10.577   3.984  -0.952  0.00  0.00    -0.154 NA
ATOM     12  N   UNL     1      12.620   3.059  -1.402  0.00  0.00    -0.222 NA
ATOM     33  C   UNL     1      12.594   3.468  -0.155  0.00  0.00    +0.225 A 
ATOM     34  C   UNL     1      11.373   3.393  -1.846  0.00  0.00    +0.245 A 
ENDBRANCH  32  10
ENDBRANCH   3  24
ENDBRANCH  19   3
ENDBRANCH  15   5
BRANCH  16   6
ATOM      4  O   UNL     1      17.753  10.970   5.367  0.00  0.00    -0.270 OA
ATOM      6  N   UNL     1      16.370   9.134   5.679  0.00  0.00    -0.304 N 
ATOM     20  C   UNL     1      17.599   9.765   5.544  0.00  0.00    +0.244 C 
ATOM     35  H   UNL     1      16.315   8.122   5.709  0.00  0.00    +0.149 HD
BRANCH  20  21
ATOM     21  C   UNL     1      18.793   8.881   5.599  0.00  0.00    +0.037 A 
ATOM     22  C   UNL     1      19.553   8.860   6.751  0.00  0.00    +0.013 A 
ATOM     23  C   UNL     1      19.102   8.111   4.499  0.00  0.00    +0.013 A 
ATOM     25  C   UNL     1      20.673   8.030   6.803  0.00  0.00    +0.001 A 
ATOM     26  C   UNL     1      20.223   7.281   4.551  0.00  0.00    +0.001 A 
ATOM     29  C   UNL     1      21.008   7.240   5.703  0.00  0.00    +0.000 A 
ENDBRANCH  20  21
ENDBRANCH  16   6
TORSDOF 6
ENDMDL
MODEL 5
REMARK VINA RESULT:      -6.9      3.816      5.561
REMARK  Name = 11886249
REMARK  6 active torsions:
REMARK  status: ('A' for Active; 'I' for Inactive)
REMARK    1  A    between atoms: O_3  and  C_19
REMARK    2  A    between atoms: O_3  and  C_24
REMARK    3  A    between atoms: N_5  and  C_15
REMARK    4  A    between atoms: N_6  and  C_16
REMARK    5  A    between atoms: N_10  and  C_32
REMARK    6  A    between atoms: C_20  and  C_21
REMARK                            x       y       z     vdW  Elec       q    Type
REMARK                         _______ _______ _______ _____ _____    ______ ____
ROOT
ATOM      1  O   UNL     1      12.590   7.274  19.560  0.00  0.00    -0.370 OA
ATOM      2  O   UNL     1      13.963   9.822  20.731  0.00  0.00    -0.370 OA
ATOM     13  C   UNL     1      14.038   9.163  19.453  0.00  0.00    +0.176 C 
ATOM     14  C   UNL     1      13.963   7.672  19.718  0.00  0.00    +0.171 C 
ATOM     15  C   UNL     1      12.793   9.471  18.644  0.00  0.00    +0.171 C 
ATOM     16  C   UNL     1      14.387   7.526  21.164  0.00  0.00    +0.130 C 
ATOM     17  C   UNL     1      11.817   8.390  19.095  0.00  0.00    +0.190 C 
ATOM     18  C   UNL     1      13.893   8.830  21.767  0.00  0.00    +0.185 C 
ENDROOT
BRANCH  15   5
ATOM      5  N   UNL     1      13.056   9.513  17.203  0.00  0.00    -0.187 N 
ATOM      7  N   UNL     1      12.800   8.456  16.428  0.00  0.00    -0.041 NA
ATOM      8  N   UNL     1      13.627  10.132  15.213  0.00  0.00    -0.071 NA
ATOM      9  N   UNL     1      13.151   8.839  15.207  0.00  0.00    -0.020 NA
ATOM     19  C   UNL     1      13.557  10.529  16.462  0.00  0.00    +0.342 A 
BRANCH  19   3
ATOM      3  O   UNL     1      13.912  11.709  16.935  0.00  0.00    -0.423 OA
BRANCH   3  24
ATOM     24  C   UNL     1      15.240  12.082  17.095  0.00  0.00    +0.132 A 
ATOM     27  C   UNL     1      16.017  12.290  15.973  0.00  0.00    +0.048 A 
ATOM     28  C   UNL     1      15.744  12.235  18.372  0.00  0.00    +0.048 A 
ATOM     30  C   UNL     1      17.352  12.665  16.134  0.00  0.00    +0.031 A 
ATOM     31  C   UNL     1      17.078  12.609  18.533  0.00  0.00    +0.031 A 
ATOM     32  C   UNL     1      17.881  12.825  17.414  0.00  0.00    +0.067 A 
BRANCH  32  10
ATOM     10  N   UNL     1      19.204  13.197  17.574  0.00  0.00    -0.220 N 
ATOM     11  N   UNL     1      20.185  12.694  16.804  0.00  0.00    -0.154 NA
ATOM     12  N   UNL     1      21.009  14.184  18.332  0.00  0.00    -0.222 NA
ATOM     33  C   UNL     1      19.708  14.084  18.480  0.00  0.00    +0.225 A 
ATOM     34  C   UNL     1      21.253  13.321  17.302  0.00  0.00    +0.245 A 
ENDBRANCH  32  10
ENDBRANCH   3  24
ENDBRANCH  19   3
ENDBRANCH  15   5
BRANCH  16   6
ATOM      4  O   UNL     1      16.166   5.966  19.517  0.00  0.00    -0.270 OA
ATOM      6  N   UNL     1      15.843   7.456  21.265  0.00  0.00    -0.304 N 
ATOM     20  C   UNL     1      16.612   6.670  20.420  0.00  0.00    +0.244 C 
ATOM     35  H   UNL     1      16.269   7.922  22.059  0.00  0.00    +0.149 HD
BRANCH  20  21
ATOM     21  C   UNL     1      18.077   6.686  20.670  0.00  0.00    +0.037 A 
ATOM     22  C   UNL     1      18.838   5.619  20.239  0.00  0.00    +0.013 A 
ATOM     23  C   UNL     1      18.629   7.767  21.324  0.00  0.00    +0.013 A 
ATOM     25  C   UNL     1      20.213   5.634  20.473  0.00  0.00    +0.001 A 
ATOM     26  C   UNL     1      20.004   7.783  21.558  0.00  0.00    +0.001 A 
ATOM     29  C   UNL     1      20.797   6.717  21.133  0.00  0.00    +0.000 A 
ENDBRANCH  20  21
ENDBRANCH  16   6
TORSDOF 6
ENDMDL
MODEL 6
REMARK VINA RESULT:      -6.9     28.115     30.400
REMARK  Name = 11886249
REMARK  6 active torsions:
REMARK  status: ('A' for Active; 'I' for Inactive)
REMARK    1  A    between atoms: O_3  and  C_19
REMARK    2  A    between atoms: O_3  and  C_24
REMARK    3  A    between atoms: N_5  and  C_15
REMARK    4  A    between atoms: N_6  and  C_16
REMARK    5  A    between atoms: N_10  and  C_32
REMARK    6  A    between atoms: C_20  and  C_21
REMARK                            x       y       z     vdW  Elec       q    Type
REMARK                         _______ _______ _______ _____ _____    ______ ____
ROOT
ATOM      1  O   UNL     1      -4.869 -10.800  18.658  0.00  0.00    -0.370 OA
ATOM      2  O   UNL     1      -6.815 -12.237  16.684  0.00  0.00    -0.370 OA
ATOM     13  C   UNL     1      -5.791 -11.241  16.506  0.00  0.00    +0.176 C 
ATOM     14  C   UNL     1      -5.846 -10.327  17.714  0.00  0.00    +0.171 C 
ATOM     15  C   UNL     1      -4.423 -11.892  16.580  0.00  0.00    +0.171 C 
ATOM     16  C   UNL     1      -7.242 -10.519  18.266  0.00  0.00    +0.130 C 
ATOM     17  C   UNL     1      -4.119 -11.875  18.074  0.00  0.00    +0.190 C 
ATOM     18  C   UNL     1      -7.525 -11.967  17.902  0.00  0.00    +0.185 C 
ENDROOT
BRANCH  15   5
ATOM      5  N   UNL     1      -3.434 -11.220  15.734  0.00  0.00    -0.187 N 
ATOM      7  N   UNL     1      -2.414 -10.545  16.272  0.00  0.00    -0.041 NA
ATOM      8  N   UNL     1      -2.322 -10.453  14.047  0.00  0.00    -0.071 NA
ATOM      9  N   UNL     1      -1.734 -10.076  15.234  0.00  0.00    -0.020 NA
ATOM     19  C   UNL     1      -3.374 -11.162  14.382  0.00  0.00    +0.342 A 
BRANCH  19   3
ATOM      3  O   UNL     1      -4.239 -11.728  13.560  0.00  0.00    -0.423 OA
BRANCH   3  24
ATOM     24  C   UNL     1      -5.016 -10.995  12.674  0.00  0.00    +0.132 A 
ATOM     27  C   UNL     1      -5.009 -11.338  11.335  0.00  0.00    +0.048 A 
ATOM     28  C   UNL     1      -5.775  -9.946  13.155  0.00  0.00    +0.048 A 
ATOM     30  C   UNL     1      -5.791 -10.602  10.444  0.00  0.00    +0.031 A 
ATOM     31  C   UNL     1      -6.556  -9.210  12.264  0.00  0.00    +0.031 A 
ATOM     32  C   UNL     1      -6.564  -9.539  10.909  0.00  0.00    +0.067 A 
BRANCH  32  10
ATOM     10  N   UNL     1      -7.340  -8.810  10.026  0.00  0.00    -0.220 N 
ATOM     11  N   UNL     1      -6.798  -8.070   9.042  0.00  0.00    -0.154 NA
ATOM     12  N   UNL     1      -9.081  -7.939   9.018  0.00  0.00    -0.222 NA
ATOM     33  C   UNL     1      -8.702  -8.723  10.000  0.00  0.00    +0.225 A 
ATOM     34  C   UNL     1      -7.890  -7.566   8.464  0.00  0.00    +0.245 A 
ENDBRANCH  32  10
ENDBRANCH   3  24
ENDBRANCH  19   3
ENDBRANCH  15   5
BRANCH  16   6
ATOM      4  O   UNL     1      -9.998 -10.056  18.971  0.00  0.00    -0.270 OA
ATOM      6  N   UNL     1      -8.189  -9.644  17.580  0.00  0.00    -0.304 N 
ATOM     20  C   UNL     1      -9.502  -9.489  18.001  0.00  0.00    +0.244 C 
ATOM     35  H   UNL     1      -7.880  -9.233  16.705  0.00  0.00    +0.149 HD
BRANCH  20  21
ATOM     21  C   UNL     1     -10.346  -8.583  17.179  0.00  0.00    +0.037 A 
ATOM     22  C   UNL     1      -9.733  -7.603  16.426  0.00  0.00    +0.013 A 
ATOM     23  C   UNL     1     -11.714  -8.751  17.196  0.00  0.00    +0.013 A 
ATOM     25  C   UNL     1     -10.525  -6.753  15.655  0.00  0.00    +0.001 A 
ATOM     26  C   UNL     1     -12.507  -7.900  16.425  0.00  0.00    +0.001 A 
ATOM     29  C   UNL     1     -11.912  -6.901  15.653  0.00  0.00    +0.000 A 
ENDBRANCH  20  21
ENDBRANCH  16   6
TORSDOF 6
ENDMDL
MODEL 7
REMARK VINA RESULT:      -6.7     14.467     17.123
REMARK  Name = 11886249
REMARK  6 active torsions:
REMARK  status: ('A' for Active; 'I' for Inactive)
REMARK    1  A    between atoms: O_3  and  C_19
REMARK    2  A    between atoms: O_3  and  C_24
REMARK    3  A    between atoms: N_5  and  C_15
REMARK    4  A    between atoms: N_6  and  C_16
REMARK    5  A    between atoms: N_10  and  C_32
REMARK    6  A    between atoms: C_20  and  C_21
REMARK                            x       y       z     vdW  Elec       q    Type
REMARK                         _______ _______ _______ _____ _____    ______ ____
ROOT
ATOM      1  O   UNL     1      13.971   8.099   1.819  0.00  0.00    -0.370 OA
ATOM      2  O   UNL     1      16.525   7.357   0.184  0.00  0.00    -0.370 OA
ATOM     13  C   UNL     1      15.687   6.615   1.090  0.00  0.00    +0.176 C 
ATOM     14  C   UNL     1      15.260   7.575   2.183  0.00  0.00    +0.171 C 
ATOM     15  C   UNL     1      14.396   6.229   0.394  0.00  0.00    +0.171 C 
ATOM     16  C   UNL     1      16.300   8.673   2.147  0.00  0.00    +0.130 C 
ATOM     17  C   UNL     1      13.504   7.443   0.631  0.00  0.00    +0.190 C 
ATOM     18  C   UNL     1      16.676   8.697   0.675  0.00  0.00    +0.185 C 
ENDROOT
BRANCH  15   5
ATOM      5  N   UNL     1      13.857   4.955   0.877  0.00  0.00    -0.187 N 
ATOM      7  N   UNL     1      14.462   3.800   0.585  0.00  0.00    -0.041 NA
ATOM      8  N   UNL     1      12.649   3.438   1.831  0.00  0.00    -0.071 NA
ATOM      9  N   UNL     1      13.718   2.871   1.173  0.00  0.00    -0.020 NA
ATOM     19  C   UNL     1      12.758   4.732   1.635  0.00  0.00    +0.342 A 
BRANCH  19   3
ATOM      3  O   UNL     1      11.945   5.669   2.085  0.00  0.00    -0.423 OA
BRANCH   3  24
ATOM     24  C   UNL     1      11.428   5.654   3.374  0.00  0.00    +0.132 A 
ATOM     27  C   UNL     1      12.024   6.438   4.343  0.00  0.00    +0.048 A 
ATOM     28  C   UNL     1      10.334   4.858   3.649  0.00  0.00    +0.048 A 
ATOM     30  C   UNL     1      11.506   6.424   5.639  0.00  0.00    +0.031 A 
ATOM     31  C   UNL     1       9.815   4.843   4.945  0.00  0.00    +0.031 A 
ATOM     32  C   UNL     1      10.401   5.627   5.938  0.00  0.00    +0.067 A 
BRANCH  32  10
ATOM     10  N   UNL     1       9.886   5.613   7.222  0.00  0.00    -0.220 N 
ATOM     11  N   UNL     1       9.304   6.695   7.769  0.00  0.00    -0.154 NA
ATOM     12  N   UNL     1       9.303   4.927   9.221  0.00  0.00    -0.222 NA
ATOM     33  C   UNL     1       9.879   4.566   8.098  0.00  0.00    +0.225 A 
ATOM     34  C   UNL     1       8.970   6.228   8.974  0.00  0.00    +0.245 A 
ENDBRANCH  32  10
ENDBRANCH   3  24
ENDBRANCH  19   3
ENDBRANCH  15   5
BRANCH  16   6
ATOM      4  O   UNL     1      16.880   9.497   4.848  0.00  0.00    -0.270 OA
ATOM      6  N   UNL     1      17.464   8.301   2.948  0.00  0.00    -0.304 N 
ATOM     20  C   UNL     1      17.652   8.755   4.246  0.00  0.00    +0.244 C 
ATOM     35  H   UNL     1      18.198   7.784   2.476  0.00  0.00    +0.149 HD
BRANCH  20  21
ATOM     21  C   UNL     1      18.901   8.308   4.917  0.00  0.00    +0.037 A 
ATOM     22  C   UNL     1      19.787   7.518   4.215  0.00  0.00    +0.013 A 
ATOM     23  C   UNL     1      19.133   8.699   6.218  0.00  0.00    +0.013 A 
ATOM     25  C   UNL     1      20.959   7.099   4.844  0.00  0.00    +0.001 A 
ATOM     26  C   UNL     1      20.306   8.279   6.848  0.00  0.00    +0.001 A 
ATOM     29  C   UNL     1      21.220   7.480   6.161  0.00  0.00    +0.000 A 
ENDBRANCH  20  21
ENDBRANCH  16   6
TORSDOF 6
ENDMDL
MODEL 8
REMARK VINA RESULT:      -6.6     14.076     17.278
REMARK  Name = 11886249
REMARK  6 active torsions:
REMARK  status: ('A' for Active; 'I' for Inactive)
REMARK    1  A    between atoms: O_3  and  C_19
REMARK    2  A    between atoms: O_3  and  C_24
REMARK    3  A    between atoms: N_5  and  C_15
REMARK    4  A    between atoms: N_6  and  C_16
REMARK    5  A    between atoms: N_10  and  C_32
REMARK    6  A    between atoms: C_20  and  C_21
REMARK                            x       y       z     vdW  Elec       q    Type
REMARK                         _______ _______ _______ _____ _____    ______ ____
ROOT
ATOM      1  O   UNL     1      13.790   7.663   6.699  0.00  0.00    -0.370 OA
ATOM      2  O   UNL     1      11.716   8.475   4.511  0.00  0.00    -0.370 OA
ATOM     13  C   UNL     1      11.763   7.405   5.473  0.00  0.00    +0.176 C 
ATOM     14  C   UNL     1      13.211   6.969   5.580  0.00  0.00    +0.171 C 
ATOM     15  C   UNL     1      11.422   7.939   6.851  0.00  0.00    +0.171 C 
ATOM     16  C   UNL     1      13.842   7.442   4.288  0.00  0.00    +0.130 C 
ATOM     17  C   UNL     1      12.772   8.414   7.376  0.00  0.00    +0.190 C 
ATOM     18  C   UNL     1      13.034   8.693   3.987  0.00  0.00    +0.185 C 
ENDROOT
BRANCH  15   5
ATOM      5  N   UNL     1      10.741   6.946   7.685  0.00  0.00    -0.187 N 
ATOM      7  N   UNL     1      11.421   5.952   8.263  0.00  0.00    -0.041 NA
ATOM      8  N   UNL     1       9.255   5.812   8.771  0.00  0.00    -0.071 NA
ATOM      9  N   UNL     1      10.507   5.258   8.929  0.00  0.00    -0.020 NA
ATOM     19  C   UNL     1       9.426   6.858   7.996  0.00  0.00    +0.342 A 
BRANCH  19   3
ATOM      3  O   UNL     1       8.491   7.691   7.580  0.00  0.00    -0.423 OA
BRANCH   3  24
ATOM     24  C   UNL     1       8.329   8.025   6.242  0.00  0.00    +0.132 A 
ATOM     27  C   UNL     1       8.250   7.014   5.304  0.00  0.00    +0.048 A 
ATOM     28  C   UNL     1       8.251   9.358   5.888  0.00  0.00    +0.048 A 
ATOM     30  C   UNL     1       8.087   7.349   3.959  0.00  0.00    +0.031 A 
ATOM     31  C   UNL     1       8.088   9.693   4.543  0.00  0.00    +0.031 A 
ATOM     32  C   UNL     1       8.006   8.688   3.580  0.00  0.00    +0.067 A 
BRANCH  32  10
ATOM     10  N   UNL     1       7.844   9.020   2.247  0.00  0.00    -0.220 N 
ATOM     11  N   UNL     1       6.726   9.612   1.789  0.00  0.00    -0.154 NA
ATOM     12  N   UNL     1       8.232   9.266   0.103  0.00  0.00    -0.222 NA
ATOM     33  C   UNL     1       8.733   8.819   1.232  0.00  0.00    +0.225 A 
ATOM     34  C   UNL     1       7.012   9.738   0.492  0.00  0.00    +0.245 A 
ENDBRANCH  32  10
ENDBRANCH   3  24
ENDBRANCH  19   3
ENDBRANCH  15   5
BRANCH  16   6
ATOM      4  O   UNL     1      15.499   7.027   1.966  0.00  0.00    -0.270 OA
ATOM      6  N   UNL     1      13.639   6.456   3.229  0.00  0.00    -0.304 N 
ATOM     20  C   UNL     1      14.500   6.336   2.147  0.00  0.00    +0.244 C 
ATOM     35  H   UNL     1      12.772   5.930   3.254  0.00  0.00    +0.149 HD
BRANCH  20  21
ATOM     21  C   UNL     1      14.140   5.303   1.141  0.00  0.00    +0.037 A 
ATOM     22  C   UNL     1      13.268   4.297   1.503  0.00  0.00    +0.013 A 
ATOM     23  C   UNL     1      14.688   5.383  -0.121  0.00  0.00    +0.013 A 
ATOM     25  C   UNL     1      12.929   3.327   0.559  0.00  0.00    +0.001 A 
ATOM     26  C   UNL     1      14.350   4.413  -1.066  0.00  0.00    +0.001 A 
ATOM     29  C   UNL     1      13.470   3.385  -0.726  0.00  0.00    +0.000 A 
ENDBRANCH  20  21
ENDBRANCH  16   6
TORSDOF 6
ENDMDL
MODEL 9
REMARK VINA RESULT:      -6.6     27.547     30.332
REMARK  Name = 11886249
REMARK  6 active torsions:
REMARK  status: ('A' for Active; 'I' for Inactive)
REMARK    1  A    between atoms: O_3  and  C_19
REMARK    2  A    between atoms: O_3  and  C_24
REMARK    3  A    between atoms: N_5  and  C_15
REMARK    4  A    between atoms: N_6  and  C_16
REMARK    5  A    between atoms: N_10  and  C_32
REMARK    6  A    between atoms: C_20  and  C_21
REMARK                            x       y       z     vdW  Elec       q    Type
REMARK                         _______ _______ _______ _____ _____    ______ ____
ROOT
ATOM      1  O   UNL     1      -5.620 -10.294   9.320  0.00  0.00    -0.370 OA
ATOM      2  O   UNL     1      -4.664 -13.260   9.519  0.00  0.00    -0.370 OA
ATOM     13  C   UNL     1      -3.966 -12.002   9.469  0.00  0.00    +0.176 C 
ATOM     14  C   UNL     1      -4.738 -11.103   8.523  0.00  0.00    +0.171 C 
ATOM     15  C   UNL     1      -4.059 -11.310  10.816  0.00  0.00    +0.171 C 
ATOM     16  C   UNL     1      -5.537 -12.060   7.665  0.00  0.00    +0.130 C 
ATOM     17  C   UNL     1      -5.369 -10.537  10.712  0.00  0.00    +0.190 C 
ATOM     18  C   UNL     1      -5.790 -13.207   8.630  0.00  0.00    +0.185 C 
ENDROOT
BRANCH  15   5
ATOM      5  N   UNL     1      -2.876 -10.498  11.112  0.00  0.00    -0.187 N 
ATOM      7  N   UNL     1      -2.598  -9.404  10.398  0.00  0.00    -0.041 NA
ATOM      8  N   UNL     1      -1.055  -9.717  11.976  0.00  0.00    -0.071 NA
ATOM      9  N   UNL     1      -1.480  -8.927  10.931  0.00  0.00    -0.020 NA
ATOM     19  C   UNL     1      -1.938 -10.685  12.070  0.00  0.00    +0.342 A 
BRANCH  19   3
ATOM      3  O   UNL     1      -1.928 -11.679  12.939  0.00  0.00    -0.423 OA
BRANCH   3  24
ATOM     24  C   UNL     1      -2.553 -11.597  14.176  0.00  0.00    +0.132 A 
ATOM     27  C   UNL     1      -3.717 -12.310  14.387  0.00  0.00    +0.048 A 
ATOM     28  C   UNL     1      -1.992 -10.806  15.159  0.00  0.00    +0.048 A 
ATOM     30  C   UNL     1      -4.345 -12.228  15.630  0.00  0.00    +0.031 A 
ATOM     31  C   UNL     1      -2.620 -10.724  16.403  0.00  0.00    +0.031 A 
ATOM     32  C   UNL     1      -3.796 -11.435  16.638  0.00  0.00    +0.067 A 
BRANCH  32  10
ATOM     10  N   UNL     1      -4.418 -11.355  17.870  0.00  0.00    -0.220 N 
ATOM     11  N   UNL     1      -5.509 -10.596  18.071  0.00  0.00    -0.154 NA
ATOM     12  N   UNL     1      -4.883 -11.674  19.989  0.00  0.00    -0.222 NA
ATOM     33  C   UNL     1      -4.055 -11.992  19.021  0.00  0.00    +0.225 A 
ATOM     34  C   UNL     1      -5.750 -10.823  19.364  0.00  0.00    +0.245 A 
ENDBRANCH  32  10
ENDBRANCH   3  24
ENDBRANCH  19   3
ENDBRANCH  15   5
BRANCH  16   6
ATOM      4  O   UNL     1      -5.500 -10.980   4.993  0.00  0.00    -0.270 OA
ATOM      6  N   UNL     1      -4.734 -12.531   6.539  0.00  0.00    -0.304 N 
ATOM     20  C   UNL     1      -4.790 -11.939   5.285  0.00  0.00    +0.244 C 
ATOM     35  H   UNL     1      -4.211 -13.388   6.678  0.00  0.00    +0.149 HD
BRANCH  20  21
ATOM     21  C   UNL     1      -3.931 -12.552   4.238  0.00  0.00    +0.037 A 
ATOM     22  C   UNL     1      -4.386 -12.578   2.936  0.00  0.00    +0.013 A 
ATOM     23  C   UNL     1      -2.708 -13.074   4.601  0.00  0.00    +0.013 A 
ATOM     25  C   UNL     1      -3.581 -13.153   1.953  0.00  0.00    +0.001 A 
ATOM     26  C   UNL     1      -1.902 -13.649   3.618  0.00  0.00    +0.001 A 
ATOM     29  C   UNL     1      -2.338 -13.688   2.294  0.00  0.00    +0.000 A 
ENDBRANCH  20  21
ENDBRANCH  16   6
TORSDOF 6
ENDMDL
MODEL 10
REMARK VINA RESULT:      -6.6      3.673      6.499
REMARK  Name = 11886249
REMARK  6 active torsions:
REMARK  status: ('A' for Active; 'I' for Inactive)
REMARK    1  A    between atoms: O_3  and  C_19
REMARK    2  A    between atoms: O_3  and  C_24
REMARK    3  A    between atoms: N_5  and  C_15
REMARK    4  A    between atoms: N_6  and  C_16
REMARK    5  A    between atoms: N_10  and  C_32
REMARK    6  A    between atoms: C_20  and  C_21
REMARK                            x       y       z     vdW  Elec       q    Type
REMARK                         _______ _______ _______ _____ _____    ______ ____
ROOT
ATOM      1  O   UNL     1      19.539   7.171  22.948  0.00  0.00    -0.370 OA
ATOM      2  O   UNL     1      21.473   7.409  20.510  0.00  0.00    -0.370 OA
ATOM     13  C   UNL     1      20.277   6.644  20.746  0.00  0.00    +0.176 C 
ATOM     14  C   UNL     1      20.306   6.213  22.199  0.00  0.00    +0.171 C 
ATOM     15  C   UNL     1      19.062   7.545  20.638  0.00  0.00    +0.171 C 
ATOM     16  C   UNL     1      21.767   6.295  22.586  0.00  0.00    +0.130 C 
ATOM     17  C   UNL     1      18.929   8.107  22.049  0.00  0.00    +0.190 C 
ATOM     18  C   UNL     1      22.257   7.438  21.712  0.00  0.00    +0.185 C 
ENDROOT
BRANCH  15   5
ATOM      5  N   UNL     1      17.882   6.838  20.132  0.00  0.00    -0.187 N 
ATOM      7  N   UNL     1      17.973   6.010  19.087  0.00  0.00    -0.041 NA
ATOM      8  N   UNL     1      15.875   6.094  19.836  0.00  0.00    -0.071 NA
ATOM      9  N   UNL     1      16.739   5.555  18.909  0.00  0.00    -0.020 NA
ATOM     19  C   UNL     1      16.607   6.885  20.585  0.00  0.00    +0.342 A 
BRANCH  19   3
ATOM      3  O   UNL     1      16.191   7.612  21.605  0.00  0.00    -0.423 OA
BRANCH   3  24
ATOM     24  C   UNL     1      15.332   8.692  21.453  0.00  0.00    +0.132 A 
ATOM     27  C   UNL     1      14.117   8.679  22.110  0.00  0.00    +0.048 A 
ATOM     28  C   UNL     1      15.718   9.748  20.649  0.00  0.00    +0.048 A 
ATOM     30  C   UNL     1      13.253   9.765  21.957  0.00  0.00    +0.031 A 
ATOM     31  C   UNL     1      14.854  10.833  20.496  0.00  0.00    +0.031 A 
ATOM     32  C   UNL     1      13.622  10.841  21.150  0.00  0.00    +0.067 A 
BRANCH  32  10
ATOM     10  N   UNL     1      12.767  11.917  20.999  0.00  0.00    -0.220 N 
ATOM     11  N   UNL     1      11.722  12.119  21.821  0.00  0.00    -0.154 NA
ATOM     12  N   UNL     1      11.851  13.752  20.225  0.00  0.00    -0.222 NA
ATOM     33  C   UNL     1      12.833  12.898  20.052  0.00  0.00    +0.225 A 
ATOM     34  C   UNL     1      11.203  13.238  21.311  0.00  0.00    +0.245 A 
ENDBRANCH  32  10
ENDBRANCH   3  24
ENDBRANCH  19   3
ENDBRANCH  15   5
BRANCH  16   6
ATOM      4  O   UNL     1      22.217   3.998  24.268  0.00  0.00    -0.270 OA
ATOM      6  N   UNL     1      22.463   5.063  22.222  0.00  0.00    -0.304 N 
ATOM     20  C   UNL     1      22.628   4.010  23.110  0.00  0.00    +0.244 C 
ATOM     35  H   UNL     1      22.927   5.049  21.320  0.00  0.00    +0.149 HD
BRANCH  20  21
ATOM     21  C   UNL     1      23.382   2.837  22.596  0.00  0.00    +0.037 A 
ATOM     22  C   UNL     1      23.841   1.895  23.494  0.00  0.00    +0.013 A 
ATOM     23  C   UNL     1      23.600   2.728  21.239  0.00  0.00    +0.013 A 
ATOM     25  C   UNL     1      24.548   0.794  23.012  0.00  0.00    +0.001 A 
ATOM     26  C   UNL     1      24.308   1.627  20.756  0.00  0.00    +0.001 A 
ATOM     29  C   UNL     1      24.782   0.659  21.642  0.00  0.00    +0.000 A 
ENDBRANCH  20  21
ENDBRANCH  16   6
TORSDOF 6
ENDMDL
