MODEL 1
REMARK VINA RESULT:      -5.5      0.000      0.000
REMARK  Name = 56775611
REMARK  7 active torsions:
REMARK  status: ('A' for Active; 'I' for Inactive)
REMARK    1  A    between atoms: O_3  and  C_17
REMARK    2  A    between atoms: N_4  and  C_7
REMARK    3  A    between atoms: N_4  and  C_10
REMARK    4  A    between atoms: C_6  and  C_10
REMARK    5  A    between atoms: C_7  and  C_13
REMARK    6  A    between atoms: C_13  and  C_14
REMARK    7  A    between atoms: C_16  and  C_17
REMARK                            x       y       z     vdW  Elec       q    Type
REMARK                         _______ _______ _______ _____ _____    ______ ____
ROOT
ATOM      1  O   UNL     1      14.613  10.711  16.467  0.00  0.00    -0.376 OA
ATOM      7  C   UNL     1      13.635   9.180  17.587  0.00  0.00    +0.072 C 
ATOM     11  C   UNL     1      13.756  10.698  17.631  0.00  0.00    +0.184 C 
ATOM     12  C   UNL     1      14.463   9.281  16.311  0.00  0.00    +0.184 C 
ENDROOT
BRANCH   7   4
ATOM      4  N   UNL     1      14.469   8.608  18.648  0.00  0.00    -0.306 NA
ATOM     18  H   UNL     1      14.008   8.495  19.549  0.00  0.00    +0.123 HD
BRANCH   4  10
ATOM     10  C   UNL     1      15.006   7.327  18.206  0.00  0.00    +0.085 C 
BRANCH  10   6
ATOM      6  C   UNL     1      15.599   6.562  19.344  0.00  0.00    +0.003 C 
ATOM      8  C   UNL     1      16.626   7.224  20.215  0.00  0.00    +0.005 C 
ATOM      9  C   UNL     1      17.034   6.133  19.269  0.00  0.00    +0.005 C 
ENDBRANCH  10   6
ENDBRANCH   4  10
ENDBRANCH   7   4
BRANCH   7  13
ATOM     13  C   UNL     1      12.272   8.561  17.518  0.00  0.00    +0.085 C 
BRANCH  13  14
ATOM      2  O   UNL     1      11.518   6.629  20.477  0.00  0.00    -0.357 OA
ATOM      5  N   UNL     1      11.999   6.756  19.180  0.00  0.00    -0.083 NA
ATOM     14  C   UNL     1      11.845   8.048  18.878  0.00  0.00    +0.086 A 
ATOM     15  C   UNL     1      11.276   8.778  19.936  0.00  0.00    +0.073 A 
ATOM     16  C   UNL     1      11.090   7.840  20.916  0.00  0.00    +0.163 A 
BRANCH  16  17
ATOM     17  C   UNL     1      10.546   7.888  22.279  0.00  0.00    +0.232 C 
BRANCH  17   3
ATOM      3  O   UNL     1       9.339   7.125  22.358  0.00  0.00    -0.387 OA
ATOM     19  H   UNL     1       8.842   7.298  21.540  0.00  0.00    +0.210 HD
ENDBRANCH  17   3
ENDBRANCH  16  17
ENDBRANCH  13  14
ENDBRANCH   7  13
TORSDOF 7
ENDMDL
MODEL 2
REMARK VINA RESULT:      -5.4      3.056      6.015
REMARK  Name = 56775611
REMARK  7 active torsions:
REMARK  status: ('A' for Active; 'I' for Inactive)
REMARK    1  A    between atoms: O_3  and  C_17
REMARK    2  A    between atoms: N_4  and  C_7
REMARK    3  A    between atoms: N_4  and  C_10
REMARK    4  A    between atoms: C_6  and  C_10
REMARK    5  A    between atoms: C_7  and  C_13
REMARK    6  A    between atoms: C_13  and  C_14
REMARK    7  A    between atoms: C_16  and  C_17
REMARK                            x       y       z     vdW  Elec       q    Type
REMARK                         _______ _______ _______ _____ _____    ______ ____
ROOT
ATOM      1  O   UNL     1      11.020   6.969  20.788  0.00  0.00    -0.376 OA
ATOM      7  C   UNL     1      12.694   8.286  20.928  0.00  0.00    +0.072 C 
ATOM     11  C   UNL     1      12.428   6.792  21.067  0.00  0.00    +0.184 C 
ATOM     12  C   UNL     1      11.221   8.381  20.549  0.00  0.00    +0.184 C 
ENDROOT
BRANCH   7   4
ATOM      4  N   UNL     1      12.876   8.860  22.265  0.00  0.00    -0.306 NA
ATOM     18  H   UNL     1      13.554   8.380  22.855  0.00  0.00    +0.123 HD
BRANCH   4  10
ATOM     10  C   UNL     1      13.238  10.267  22.144  0.00  0.00    +0.085 C 
BRANCH  10   6
ATOM      6  C   UNL     1      12.352  11.131  22.981  0.00  0.00    +0.003 C 
ATOM      8  C   UNL     1      11.002  10.619  23.389  0.00  0.00    +0.005 C 
ATOM      9  C   UNL     1      11.112  11.716  22.372  0.00  0.00    +0.005 C 
ENDBRANCH  10   6
ENDBRANCH   4  10
ENDBRANCH   7   4
BRANCH   7  13
ATOM     13  C   UNL     1      13.727   8.752  19.948  0.00  0.00    +0.085 C 
BRANCH  13  14
ATOM      2  O   UNL     1      16.825   7.276  21.077  0.00  0.00    -0.357 OA
ATOM      5  N   UNL     1      15.723   8.105  21.247  0.00  0.00    -0.083 NA
ATOM     14  C   UNL     1      15.019   7.980  20.119  0.00  0.00    +0.086 A 
ATOM     15  C   UNL     1      15.622   7.095  19.209  0.00  0.00    +0.073 A 
ATOM     16  C   UNL     1      16.754   6.680  19.859  0.00  0.00    +0.163 A 
BRANCH  16  17
ATOM     17  C   UNL     1      17.847   5.765  19.512  0.00  0.00    +0.232 C 
BRANCH  17   3
ATOM      3  O   UNL     1      17.711   5.319  18.160  0.00  0.00    -0.387 OA
ATOM     19  H   UNL     1      17.029   5.876  17.747  0.00  0.00    +0.210 HD
ENDBRANCH  17   3
ENDBRANCH  16  17
ENDBRANCH  13  14
ENDBRANCH   7  13
TORSDOF 7
ENDMDL
MODEL 3
REMARK VINA RESULT:      -5.2      2.467      3.913
REMARK  Name = 56775611
REMARK  7 active torsions:
REMARK  status: ('A' for Active; 'I' for Inactive)
REMARK    1  A    between atoms: O_3  and  C_17
REMARK    2  A    between atoms: N_4  and  C_7
REMARK    3  A    between atoms: N_4  and  C_10
REMARK    4  A    between atoms: C_6  and  C_10
REMARK    5  A    between atoms: C_7  and  C_13
REMARK    6  A    between atoms: C_13  and  C_14
REMARK    7  A    between atoms: C_16  and  C_17
REMARK                            x       y       z     vdW  Elec       q    Type
REMARK                         _______ _______ _______ _____ _____    ______ ____
ROOT
ATOM      1  O   UNL     1      13.271   9.832  21.571  0.00  0.00    -0.376 OA
ATOM      7  C   UNL     1      14.111   8.006  20.853  0.00  0.00    +0.072 C 
ATOM     11  C   UNL     1      13.147   8.442  21.950  0.00  0.00    +0.184 C 
ATOM     12  C   UNL     1      14.116   9.477  20.453  0.00  0.00    +0.184 C 
ENDROOT
BRANCH   7   4
ATOM      4  N   UNL     1      15.403   7.677  21.463  0.00  0.00    -0.306 NA
ATOM     18  H   UNL     1      15.391   7.576  22.476  0.00  0.00    +0.123 HD
BRANCH   4  10
ATOM     10  C   UNL     1      15.933   6.464  20.852  0.00  0.00    +0.085 C 
BRANCH  10   6
ATOM      6  C   UNL     1      17.094   6.765  19.961  0.00  0.00    +0.003 C 
ATOM      8  C   UNL     1      17.528   5.743  18.953  0.00  0.00    +0.005 C 
ATOM      9  C   UNL     1      18.380   6.018  20.157  0.00  0.00    +0.005 C 
ENDBRANCH  10   6
ENDBRANCH   4  10
ENDBRANCH   7   4
BRANCH   7  13
ATOM     13  C   UNL     1      13.661   6.985  19.853  0.00  0.00    +0.085 C 
BRANCH  13  14
ATOM      2  O   UNL     1      11.045   8.349  17.767  0.00  0.00    -0.357 OA
ATOM      5  N   UNL     1      11.496   7.719  18.920  0.00  0.00    -0.083 NA
ATOM     14  C   UNL     1      12.821   7.628  18.769  0.00  0.00    +0.086 A 
ATOM     15  C   UNL     1      13.257   8.178  17.551  0.00  0.00    +0.073 A 
ATOM     16  C   UNL     1      12.103   8.618  16.960  0.00  0.00    +0.163 A 
BRANCH  16  17
ATOM     17  C   UNL     1      11.804   9.287  15.688  0.00  0.00    +0.232 C 
BRANCH  17   3
ATOM      3  O   UNL     1      10.408   9.588  15.602  0.00  0.00    -0.387 OA
ATOM     19  H   UNL     1      10.336  10.534  15.392  0.00  0.00    +0.210 HD
ENDBRANCH  17   3
ENDBRANCH  16  17
ENDBRANCH  13  14
ENDBRANCH   7  13
TORSDOF 7
ENDMDL
MODEL 4
REMARK VINA RESULT:      -5.1      3.025      5.556
REMARK  Name = 56775611
REMARK  7 active torsions:
REMARK  status: ('A' for Active; 'I' for Inactive)
REMARK    1  A    between atoms: O_3  and  C_17
REMARK    2  A    between atoms: N_4  and  C_7
REMARK    3  A    between atoms: N_4  and  C_10
REMARK    4  A    between atoms: C_6  and  C_10
REMARK    5  A    between atoms: C_7  and  C_13
REMARK    6  A    between atoms: C_13  and  C_14
REMARK    7  A    between atoms: C_16  and  C_17
REMARK                            x       y       z     vdW  Elec       q    Type
REMARK                         _______ _______ _______ _____ _____    ______ ____
ROOT
ATOM      1  O   UNL     1      12.311   9.398  20.273  0.00  0.00    -0.376 OA
ATOM      7  C   UNL     1      13.797   8.044  19.555  0.00  0.00    +0.072 C 
ATOM     11  C   UNL     1      13.697   9.146  20.603  0.00  0.00    +0.184 C 
ATOM     12  C   UNL     1      12.312   8.303  19.329  0.00  0.00    +0.184 C 
ENDROOT
BRANCH   7   4
ATOM      4  N   UNL     1      14.546   8.556  18.403  0.00  0.00    -0.306 NA
ATOM     18  H   UNL     1      15.559   8.464  18.468  0.00  0.00    +0.123 HD
BRANCH   4  10
ATOM     10  C   UNL     1      14.070   7.906  17.188  0.00  0.00    +0.085 C 
BRANCH  10   6
ATOM      6  C   UNL     1      13.942   8.882  16.064  0.00  0.00    +0.003 C 
ATOM      8  C   UNL     1      13.640  10.319  16.372  0.00  0.00    +0.005 C 
ATOM      9  C   UNL     1      12.592   9.452  15.739  0.00  0.00    +0.005 C 
ENDBRANCH  10   6
ENDBRANCH   4  10
ENDBRANCH   7   4
BRANCH   7  13
ATOM     13  C   UNL     1      14.239   6.677  19.978  0.00  0.00    +0.085 C 
BRANCH  13  14
ATOM      2  O   UNL     1      17.721   6.038  19.257  0.00  0.00    -0.357 OA
ATOM      5  N   UNL     1      16.367   5.953  18.958  0.00  0.00    -0.083 NA
ATOM     14  C   UNL     1      15.750   6.572  19.968  0.00  0.00    +0.086 A 
ATOM     15  C   UNL     1      16.655   7.063  20.925  0.00  0.00    +0.073 A 
ATOM     16  C   UNL     1      17.880   6.701  20.431  0.00  0.00    +0.163 A 
BRANCH  16  17
ATOM     17  C   UNL     1      19.259   6.882  20.900  0.00  0.00    +0.232 C 
BRANCH  17   3
ATOM      3  O   UNL     1      20.153   6.068  20.137  0.00  0.00    -0.387 OA
ATOM     19  H   UNL     1      19.604   5.507  19.562  0.00  0.00    +0.210 HD
ENDBRANCH  17   3
ENDBRANCH  16  17
ENDBRANCH  13  14
ENDBRANCH   7  13
TORSDOF 7
ENDMDL
MODEL 5
REMARK VINA RESULT:      -5.0     30.040     31.568
REMARK  Name = 56775611
REMARK  7 active torsions:
REMARK  status: ('A' for Active; 'I' for Inactive)
REMARK    1  A    between atoms: O_3  and  C_17
REMARK    2  A    between atoms: N_4  and  C_7
REMARK    3  A    between atoms: N_4  and  C_10
REMARK    4  A    between atoms: C_6  and  C_10
REMARK    5  A    between atoms: C_7  and  C_13
REMARK    6  A    between atoms: C_13  and  C_14
REMARK    7  A    between atoms: C_16  and  C_17
REMARK                            x       y       z     vdW  Elec       q    Type
REMARK                         _______ _______ _______ _____ _____    ______ ____
ROOT
ATOM      1  O   UNL     1     -15.964   5.745  33.557  0.00  0.00    -0.376 OA
ATOM      7  C   UNL     1     -15.185   4.261  32.234  0.00  0.00    +0.072 C 
ATOM     11  C   UNL     1     -15.232   5.783  32.310  0.00  0.00    +0.184 C 
ATOM     12  C   UNL     1     -15.872   4.303  33.594  0.00  0.00    +0.184 C 
ENDROOT
BRANCH   7   4
ATOM      4  N   UNL     1     -16.152   3.808  31.230  0.00  0.00    -0.306 NA
ATOM     18  H   UNL     1     -17.127   4.012  31.443  0.00  0.00    +0.123 HD
BRANCH   4  10
ATOM     10  C   UNL     1     -15.803   4.372  29.932  0.00  0.00    +0.085 C 
BRANCH  10   6
ATOM      6  C   UNL     1     -16.603   3.748  28.835  0.00  0.00    +0.003 C 
ATOM      8  C   UNL     1     -17.890   3.054  29.170  0.00  0.00    +0.005 C 
ATOM      9  C   UNL     1     -16.692   2.253  28.752  0.00  0.00    +0.005 C 
ENDBRANCH  10   6
ENDBRANCH   4  10
ENDBRANCH   7   4
BRANCH   7  13
ATOM     13  C   UNL     1     -13.856   3.580  32.114  0.00  0.00    +0.085 C 
BRANCH  13  14
ATOM      2  O   UNL     1     -14.708   0.129  31.472  0.00  0.00    -0.357 OA
ATOM      5  N   UNL     1     -14.771   1.291  32.230  0.00  0.00    -0.083 NA
ATOM     14  C   UNL     1     -14.018   2.176  31.571  0.00  0.00    +0.086 A 
ATOM     15  C   UNL     1     -13.458   1.633  30.401  0.00  0.00    +0.073 A 
ATOM     16  C   UNL     1     -13.923   0.345  30.385  0.00  0.00    +0.163 A 
BRANCH  16  17
ATOM     17  C   UNL     1     -13.745  -0.788  29.469  0.00  0.00    +0.232 C 
BRANCH  17   3
ATOM      3  O   UNL     1     -12.471  -1.403  29.682  0.00  0.00    -0.387 OA
ATOM     19  H   UNL     1     -12.182  -1.758  28.824  0.00  0.00    +0.210 HD
ENDBRANCH  17   3
ENDBRANCH  16  17
ENDBRANCH  13  14
ENDBRANCH   7  13
TORSDOF 7
ENDMDL
MODEL 6
REMARK VINA RESULT:      -5.0     12.668     14.172
REMARK  Name = 56775611
REMARK  7 active torsions:
REMARK  status: ('A' for Active; 'I' for Inactive)
REMARK    1  A    between atoms: O_3  and  C_17
REMARK    2  A    between atoms: N_4  and  C_7
REMARK    3  A    between atoms: N_4  and  C_10
REMARK    4  A    between atoms: C_6  and  C_10
REMARK    5  A    between atoms: C_7  and  C_13
REMARK    6  A    between atoms: C_13  and  C_14
REMARK    7  A    between atoms: C_16  and  C_17
REMARK                            x       y       z     vdW  Elec       q    Type
REMARK                         _______ _______ _______ _____ _____    ______ ____
ROOT
ATOM      1  O   UNL     1      11.237   8.873   4.597  0.00  0.00    -0.376 OA
ATOM      7  C   UNL     1      10.509   6.890   4.901  0.00  0.00    +0.072 C 
ATOM     11  C   UNL     1      11.211   7.965   5.722  0.00  0.00    +0.184 C 
ATOM     12  C   UNL     1      10.488   7.935   3.792  0.00  0.00    +0.184 C 
ENDROOT
BRANCH   7   4
ATOM      4  N   UNL     1      11.482   5.850   4.552  0.00  0.00    -0.306 NA
ATOM     18  H   UNL     1      11.820   5.292   5.335  0.00  0.00    +0.123 HD
BRANCH   4  10
ATOM     10  C   UNL     1      10.914   4.976   3.533  0.00  0.00    +0.085 C 
BRANCH  10   6
ATOM      6  C   UNL     1      11.866   4.771   2.400  0.00  0.00    +0.003 C 
ATOM      8  C   UNL     1      11.337   4.318   1.071  0.00  0.00    +0.005 C 
ATOM      9  C   UNL     1      12.142   3.377   1.919  0.00  0.00    +0.005 C 
ENDBRANCH  10   6
ENDBRANCH   4  10
ENDBRANCH   7   4
BRANCH   7  13
ATOM     13  C   UNL     1       9.209   6.331   5.395  0.00  0.00    +0.085 C 
BRANCH  13  14
ATOM      2  O   UNL     1       9.892   3.954   8.029  0.00  0.00    -0.357 OA
ATOM      5  N   UNL     1       9.817   4.320   6.691  0.00  0.00    -0.083 NA
ATOM     14  C   UNL     1       9.405   5.590   6.702  0.00  0.00    +0.086 A 
ATOM     15  C   UNL     1       9.204   6.074   8.006  0.00  0.00    +0.073 A 
ATOM     16  C   UNL     1       9.524   5.007   8.803  0.00  0.00    +0.163 A 
BRANCH  16  17
ATOM     17  C   UNL     1       9.546   4.793  10.255  0.00  0.00    +0.232 C 
BRANCH  17   3
ATOM      3  O   UNL     1       8.212   4.770  10.772  0.00  0.00    -0.387 OA
ATOM     19  H   UNL     1       7.715   4.123  10.243  0.00  0.00    +0.210 HD
ENDBRANCH  17   3
ENDBRANCH  16  17
ENDBRANCH  13  14
ENDBRANCH   7  13
TORSDOF 7
ENDMDL
MODEL 7
REMARK VINA RESULT:      -4.9     25.185     26.871
REMARK  Name = 56775611
REMARK  7 active torsions:
REMARK  status: ('A' for Active; 'I' for Inactive)
REMARK    1  A    between atoms: O_3  and  C_17
REMARK    2  A    between atoms: N_4  and  C_7
REMARK    3  A    between atoms: N_4  and  C_10
REMARK    4  A    between atoms: C_6  and  C_10
REMARK    5  A    between atoms: C_7  and  C_13
REMARK    6  A    between atoms: C_13  and  C_14
REMARK    7  A    between atoms: C_16  and  C_17
REMARK                            x       y       z     vdW  Elec       q    Type
REMARK                         _______ _______ _______ _____ _____    ______ ____
ROOT
ATOM      1  O   UNL     1      -6.442  -9.973  14.543  0.00  0.00    -0.376 OA
ATOM      7  C   UNL     1      -5.154 -10.687  16.089  0.00  0.00    +0.072 C 
ATOM     11  C   UNL     1      -6.311  -9.703  15.958  0.00  0.00    +0.184 C 
ATOM     12  C   UNL     1      -5.415 -10.988  14.617  0.00  0.00    +0.184 C 
ENDROOT
BRANCH   7   4
ATOM      4  N   UNL     1      -3.902  -9.931  16.202  0.00  0.00    -0.306 NA
ATOM     18  H   UNL     1      -3.965  -9.064  16.733  0.00  0.00    +0.123 HD
BRANCH   4  10
ATOM     10  C   UNL     1      -2.870 -10.786  16.774  0.00  0.00    +0.085 C 
BRANCH  10   6
ATOM      6  C   UNL     1      -1.665 -10.850  15.893  0.00  0.00    +0.003 C 
ATOM      8  C   UNL     1      -1.705 -10.185  14.549  0.00  0.00    +0.005 C 
ATOM      9  C   UNL     1      -1.713 -11.682  14.645  0.00  0.00    +0.005 C 
ENDBRANCH  10   6
ENDBRANCH   4  10
ENDBRANCH   7   4
BRANCH   7  13
ATOM     13  C   UNL     1      -5.256 -11.800  17.086  0.00  0.00    +0.085 C 
BRANCH  13  14
ATOM      2  O   UNL     1      -7.242 -10.687  19.892  0.00  0.00    -0.357 OA
ATOM      5  N   UNL     1      -6.053 -10.755  19.175  0.00  0.00    -0.083 NA
ATOM     14  C   UNL     1      -6.335 -11.509  18.109  0.00  0.00    +0.086 A 
ATOM     15  C   UNL     1      -7.672 -11.942  18.100  0.00  0.00    +0.073 A 
ATOM     16  C   UNL     1      -8.198 -11.399  19.241  0.00  0.00    +0.163 A 
BRANCH  16  17
ATOM     17  C   UNL     1      -9.526 -11.435  19.865  0.00  0.00    +0.232 C 
BRANCH  17   3
ATOM      3  O   UNL     1      -9.765 -10.227  20.593  0.00  0.00    -0.387 OA
ATOM     19  H   UNL     1      -9.286 -10.307  21.436  0.00  0.00    +0.210 HD
ENDBRANCH  17   3
ENDBRANCH  16  17
ENDBRANCH  13  14
ENDBRANCH   7  13
TORSDOF 7
ENDMDL
MODEL 8
REMARK VINA RESULT:      -4.8     25.171     26.402
REMARK  Name = 56775611
REMARK  7 active torsions:
REMARK  status: ('A' for Active; 'I' for Inactive)
REMARK    1  A    between atoms: O_3  and  C_17
REMARK    2  A    between atoms: N_4  and  C_7
REMARK    3  A    between atoms: N_4  and  C_10
REMARK    4  A    between atoms: C_6  and  C_10
REMARK    5  A    between atoms: C_7  and  C_13
REMARK    6  A    between atoms: C_13  and  C_14
REMARK    7  A    between atoms: C_16  and  C_17
REMARK                            x       y       z     vdW  Elec       q    Type
REMARK                         _______ _______ _______ _____ _____    ______ ____
ROOT
ATOM      1  O   UNL     1      -2.956 -14.351  14.480  0.00  0.00    -0.376 OA
ATOM      7  C   UNL     1      -3.214 -12.238  14.641  0.00  0.00    +0.072 C 
ATOM     11  C   UNL     1      -3.946 -13.495  15.097  0.00  0.00    +0.184 C 
ATOM     12  C   UNL     1      -2.165 -13.202  14.100  0.00  0.00    +0.184 C 
ENDROOT
BRANCH   7   4
ATOM      4  N   UNL     1      -3.943 -11.650  13.513  0.00  0.00    -0.306 NA
ATOM     18  H   UNL     1      -4.926 -11.446  13.691  0.00  0.00    +0.123 HD
BRANCH   4  10
ATOM     10  C   UNL     1      -3.261 -10.440  13.072  0.00  0.00    +0.085 C 
BRANCH  10   6
ATOM      6  C   UNL     1      -2.757 -10.579  11.672  0.00  0.00    +0.003 C 
ATOM      8  C   UNL     1      -1.826  -9.539  11.122  0.00  0.00    +0.005 C 
ATOM      9  C   UNL     1      -3.239  -9.623  10.622  0.00  0.00    +0.005 C 
ENDBRANCH  10   6
ENDBRANCH   4  10
ENDBRANCH   7   4
BRANCH   7  13
ATOM     13  C   UNL     1      -2.806 -11.223  15.665  0.00  0.00    +0.085 C 
BRANCH  13  14
ATOM      2  O   UNL     1      -5.781 -10.224  17.456  0.00  0.00    -0.357 OA
ATOM      5  N   UNL     1      -4.963 -10.225  16.333  0.00  0.00    -0.083 NA
ATOM     14  C   UNL     1      -3.919 -10.990  16.666  0.00  0.00    +0.086 A 
ATOM     15  C   UNL     1      -4.022 -11.493  17.974  0.00  0.00    +0.073 A 
ATOM     16  C   UNL     1      -5.210 -10.983  18.427  0.00  0.00    +0.163 A 
BRANCH  16  17
ATOM     17  C   UNL     1      -5.946 -11.091  19.692  0.00  0.00    +0.232 C 
BRANCH  17   3
ATOM      3  O   UNL     1      -6.795  -9.954  19.871  0.00  0.00    -0.387 OA
ATOM     19  H   UNL     1      -6.315  -9.331  20.444  0.00  0.00    +0.210 HD
ENDBRANCH  17   3
ENDBRANCH  16  17
ENDBRANCH  13  14
ENDBRANCH   7  13
TORSDOF 7
ENDMDL
MODEL 9
REMARK VINA RESULT:      -4.7     25.039     26.496
REMARK  Name = 56775611
REMARK  7 active torsions:
REMARK  status: ('A' for Active; 'I' for Inactive)
REMARK    1  A    between atoms: O_3  and  C_17
REMARK    2  A    between atoms: N_4  and  C_7
REMARK    3  A    between atoms: N_4  and  C_10
REMARK    4  A    between atoms: C_6  and  C_10
REMARK    5  A    between atoms: C_7  and  C_13
REMARK    6  A    between atoms: C_13  and  C_14
REMARK    7  A    between atoms: C_16  and  C_17
REMARK                            x       y       z     vdW  Elec       q    Type
REMARK                         _______ _______ _______ _____ _____    ______ ____
ROOT
ATOM      1  O   UNL     1      -1.033  -9.886  15.181  0.00  0.00    -0.376 OA
ATOM      7  C   UNL     1      -2.710 -11.205  15.104  0.00  0.00    +0.072 C 
ATOM     11  C   UNL     1      -1.802 -10.606  16.172  0.00  0.00    +0.184 C 
ATOM     12  C   UNL     1      -1.915 -10.343  14.130  0.00  0.00    +0.184 C 
ENDROOT
BRANCH   7   4
ATOM      4  N   UNL     1      -2.340 -12.609  14.903  0.00  0.00    -0.306 NA
ATOM     18  H   UNL     1      -2.373 -13.191  15.739  0.00  0.00    +0.123 HD
BRANCH   4  10
ATOM     10  C   UNL     1      -3.183 -13.189  13.866  0.00  0.00    +0.085 C 
BRANCH  10   6
ATOM      6  C   UNL     1      -2.371 -13.652  12.700  0.00  0.00    +0.003 C 
ATOM      8  C   UNL     1      -3.001 -14.554  11.680  0.00  0.00    +0.005 C 
ATOM      9  C   UNL     1      -1.961 -15.093  12.618  0.00  0.00    +0.005 C 
ENDBRANCH  10   6
ENDBRANCH   4  10
ENDBRANCH   7   4
BRANCH   7  13
ATOM     13  C   UNL     1      -4.190 -11.001  15.211  0.00  0.00    +0.085 C 
BRANCH  13  14
ATOM      2  O   UNL     1      -5.175 -12.542  18.327  0.00  0.00    -0.357 OA
ATOM      5  N   UNL     1      -4.676 -12.596  17.032  0.00  0.00    -0.083 NA
ATOM     14  C   UNL     1      -4.679 -11.329  16.607  0.00  0.00    +0.086 A 
ATOM     15  C   UNL     1      -5.165 -10.441  17.582  0.00  0.00    +0.073 A 
ATOM     16  C   UNL     1      -5.462 -11.253  18.644  0.00  0.00    +0.163 A 
BRANCH  16  17
ATOM     17  C   UNL     1      -6.003 -11.013  19.987  0.00  0.00    +0.232 C 
BRANCH  17   3
ATOM      3  O   UNL     1      -7.312 -10.442  19.899  0.00  0.00    -0.387 OA
ATOM     19  H   UNL     1      -7.552 -10.149  20.795  0.00  0.00    +0.210 HD
ENDBRANCH  17   3
ENDBRANCH  16  17
ENDBRANCH  13  14
ENDBRANCH   7  13
TORSDOF 7
ENDMDL
MODEL 10
REMARK VINA RESULT:      -4.6     25.129     27.392
REMARK  Name = 56775611
REMARK  7 active torsions:
REMARK  status: ('A' for Active; 'I' for Inactive)
REMARK    1  A    between atoms: O_3  and  C_17
REMARK    2  A    between atoms: N_4  and  C_7
REMARK    3  A    between atoms: N_4  and  C_10
REMARK    4  A    between atoms: C_6  and  C_10
REMARK    5  A    between atoms: C_7  and  C_13
REMARK    6  A    between atoms: C_13  and  C_14
REMARK    7  A    between atoms: C_16  and  C_17
REMARK                            x       y       z     vdW  Elec       q    Type
REMARK                         _______ _______ _______ _____ _____    ______ ____
ROOT
ATOM      1  O   UNL     1      -7.272 -10.863  20.109  0.00  0.00    -0.376 OA
ATOM      7  C   UNL     1      -6.828 -10.803  18.022  0.00  0.00    +0.072 C 
ATOM     11  C   UNL     1      -6.085 -10.579  19.333  0.00  0.00    +0.184 C 
ATOM     12  C   UNL     1      -8.010 -11.182  18.907  0.00  0.00    +0.184 C 
ENDROOT
BRANCH   7   4
ATOM      4  N   UNL     1      -7.099  -9.502  17.404  0.00  0.00    -0.306 NA
ATOM     18  H   UNL     1      -6.297  -9.058  16.959  0.00  0.00    +0.123 HD
BRANCH   4  10
ATOM     10  C   UNL     1      -8.184  -9.638  16.440  0.00  0.00    +0.085 C 
BRANCH  10   6
ATOM      6  C   UNL     1      -9.143  -8.496  16.534  0.00  0.00    +0.003 C 
ATOM      8  C   UNL     1     -10.220  -8.527  17.578  0.00  0.00    +0.005 C 
ATOM      9  C   UNL     1     -10.573  -8.704  16.130  0.00  0.00    +0.005 C 
ENDBRANCH  10   6
ENDBRANCH   4  10
ENDBRANCH   7   4
BRANCH   7  13
ATOM     13  C   UNL     1      -6.299 -11.812  17.049  0.00  0.00    +0.085 C 
BRANCH  13  14
ATOM      2  O   UNL     1      -3.684 -10.496  14.932  0.00  0.00    -0.357 OA
ATOM      5  N   UNL     1      -5.006 -10.837  15.186  0.00  0.00    -0.083 NA
ATOM     14  C   UNL     1      -5.004 -11.332  16.427  0.00  0.00    +0.086 A 
ATOM     15  C   UNL     1      -3.721 -11.329  17.000  0.00  0.00    +0.073 A 
ATOM     16  C   UNL     1      -2.928 -10.794  16.020  0.00  0.00    +0.163 A 
BRANCH  16  17
ATOM     17  C   UNL     1      -1.494 -10.497  15.922  0.00  0.00    +0.232 C 
BRANCH  17   3
ATOM      3  O   UNL     1      -1.278  -9.366  15.073  0.00  0.00    -0.387 OA
ATOM     19  H   UNL     1      -0.409  -8.999  15.307  0.00  0.00    +0.210 HD
ENDBRANCH  17   3
ENDBRANCH  16  17
ENDBRANCH  13  14
ENDBRANCH   7  13
TORSDOF 7
ENDMDL
