MODEL 1
REMARK VINA RESULT:      -8.0      0.000      0.000
REMARK  Name = 28991350
REMARK  8 active torsions:
REMARK  status: ('A' for Active; 'I' for Inactive)
REMARK    1  A    between atoms: O_2  and  C_21
REMARK    2  A    between atoms: O_2  and  C_34
REMARK    3  A    between atoms: N_5  and  C_12
REMARK    4  A    between atoms: N_5  and  C_22
REMARK    5  A    between atoms: C_10  and  C_18
REMARK    6  A    between atoms: C_14  and  C_21
REMARK    7  A    between atoms: C_22  and  C_27
REMARK    8  A    between atoms: C_27  and  C_33
REMARK                            x       y       z     vdW  Elec       q    Type
REMARK                         _______ _______ _______ _____ _____    ______ ____
ROOT
ATOM      4  N   UNL     1      15.505   8.842  19.793  0.00  0.00    -0.274 NA
ATOM      6  N   UNL     1      18.246   8.154  22.268  0.00  0.00    -0.356 N 
ATOM      9  C   UNL     1      16.078   8.961  21.169  0.00  0.00    +0.106 C 
ATOM     10  C   UNL     1      14.266   9.646  19.638  0.00  0.00    +0.090 C 
ATOM     11  C   UNL     1      16.385  10.428  21.507  0.00  0.00    +0.044 C 
ATOM     12  C   UNL     1      15.118  11.277  21.402  0.00  0.00    +0.057 C 
ATOM     13  C   UNL     1      14.517  11.129  20.005  0.00  0.00    +0.042 C 
ATOM     14  C   UNL     1      15.394   7.432  19.331  0.00  0.00    +0.172 C 
ATOM     15  C   UNL     1      17.301   8.099  21.282  0.00  0.00    +0.038 A 
ATOM     16  C   UNL     1      16.770   6.719  19.265  0.00  0.00    +0.068 C 
ATOM     17  C   UNL     1      17.624   7.061  20.435  0.00  0.00    -0.016 A 
ATOM     19  C   UNL     1      18.834   6.481  20.901  0.00  0.00    +0.003 A 
ATOM     20  C   UNL     1      19.203   7.186  22.051  0.00  0.00    +0.047 A 
ATOM     25  C   UNL     1      19.654   5.421  20.464  0.00  0.00    +0.010 A 
ATOM     26  C   UNL     1      20.356   6.881  22.784  0.00  0.00    +0.026 A 
ATOM     28  C   UNL     1      20.810   5.108  21.187  0.00  0.00    +0.001 A 
ATOM     31  C   UNL     1      21.154   5.827  22.329  0.00  0.00    +0.002 A 
ATOM     38  H   UNL     1      18.250   8.805  23.041  0.00  0.00    +0.166 HD
ENDROOT
BRANCH  10  18
ATOM      1 CL   UNL     1      10.266   8.454  16.487  0.00  0.00    -0.084 Cl
ATOM     18  C   UNL     1      13.674   9.614  18.231  0.00  0.00    -0.029 A 
ATOM     23  C   UNL     1      12.390   9.108  18.025  0.00  0.00    +0.025 A 
ATOM     24  C   UNL     1      14.416  10.090  17.151  0.00  0.00    +0.005 A 
ATOM     29  C   UNL     1      11.848   9.079  16.740  0.00  0.00    +0.041 A 
ATOM     30  C   UNL     1      13.876  10.062  15.865  0.00  0.00    +0.002 A 
ATOM     32  C   UNL     1      12.591   9.557  15.660  0.00  0.00    +0.020 A 
ENDBRANCH  10  18
BRANCH  14  21
ATOM      3  O   UNL     1      14.724   6.203  21.294  0.00  0.00    -0.249 OA
ATOM     21  C   UNL     1      14.436   6.666  20.198  0.00  0.00    +0.325 C 
BRANCH  21   2
ATOM      2  O   UNL     1      13.227   6.578  19.575  0.00  0.00    -0.467 OA
ATOM     34  C   UNL     1      12.087   6.578  20.441  0.00  0.00    +0.280 C 
ENDBRANCH  21   2
ENDBRANCH  14  21
BRANCH  12   5
ATOM      5  N   UNL     1      15.426  12.676  21.692  0.00  0.00    -0.313 NA
ATOM     37  H   UNL     1      16.381  12.754  22.038  0.00  0.00    +0.122 HD
BRANCH   5  22
ATOM     22  C   UNL     1      14.519  13.205  22.700  0.00  0.00    +0.087 C 
BRANCH  22  27
ATOM     27  C   UNL     1      14.273  12.179  23.807  0.00  0.00    +0.070 C 
BRANCH  27  33
ATOM      7  N   UNL     1      12.255  10.685  23.555  0.00  0.00    -0.348 N 
ATOM      8  N   UNL     1      10.581  11.880  24.392  0.00  0.00    -0.244 NA
ATOM     33  C   UNL     1      12.805  11.868  23.958  0.00  0.00    +0.037 A 
ATOM     35  C   UNL     1      11.753  12.591  24.471  0.00  0.00    +0.133 A 
ATOM     36  C   UNL     1      10.918  10.738  23.836  0.00  0.00    +0.196 A 
ATOM     39  H   UNL     1      12.744   9.910  23.129  0.00  0.00    +0.166 HD
ENDBRANCH  27  33
ENDBRANCH  22  27
ENDBRANCH   5  22
ENDBRANCH  12   5
TORSDOF 7
ENDMDL
MODEL 2
REMARK VINA RESULT:      -7.3     14.340     17.661
REMARK  Name = 28991350
REMARK  8 active torsions:
REMARK  status: ('A' for Active; 'I' for Inactive)
REMARK    1  A    between atoms: O_2  and  C_21
REMARK    2  A    between atoms: O_2  and  C_34
REMARK    3  A    between atoms: N_5  and  C_12
REMARK    4  A    between atoms: N_5  and  C_22
REMARK    5  A    between atoms: C_10  and  C_18
REMARK    6  A    between atoms: C_14  and  C_21
REMARK    7  A    between atoms: C_22  and  C_27
REMARK    8  A    between atoms: C_27  and  C_33
REMARK                            x       y       z     vdW  Elec       q    Type
REMARK                         _______ _______ _______ _____ _____    ______ ____
ROOT
ATOM      4  N   UNL     1      12.861   7.580   5.060  0.00  0.00    -0.274 NA
ATOM      6  N   UNL     1      16.192   7.898   3.353  0.00  0.00    -0.356 N 
ATOM      9  C   UNL     1      13.678   7.776   3.823  0.00  0.00    +0.106 C 
ATOM     10  C   UNL     1      11.417   7.421   4.752  0.00  0.00    +0.090 C 
ATOM     11  C   UNL     1      13.496   6.594   2.858  0.00  0.00    +0.044 C 
ATOM     12  C   UNL     1      12.024   6.431   2.482  0.00  0.00    +0.057 C 
ATOM     13  C   UNL     1      11.187   6.264   3.750  0.00  0.00    +0.042 C 
ATOM     14  C   UNL     1      13.165   8.580   6.120  0.00  0.00    +0.172 C 
ATOM     15  C   UNL     1      15.117   7.971   4.195  0.00  0.00    +0.038 A 
ATOM     16  C   UNL     1      14.642   8.517   6.589  0.00  0.00    +0.068 C 
ATOM     17  C   UNL     1      15.575   8.327   5.445  0.00  0.00    -0.016 A 
ATOM     19  C   UNL     1      16.990   8.441   5.374  0.00  0.00    +0.003 A 
ATOM     20  C   UNL     1      17.351   8.166   4.051  0.00  0.00    +0.047 A 
ATOM     25  C   UNL     1      18.003   8.756   6.301  0.00  0.00    +0.010 A 
ATOM     26  C   UNL     1      18.680   8.191   3.612  0.00  0.00    +0.026 A 
ATOM     28  C   UNL     1      19.336   8.782   5.875  0.00  0.00    +0.001 A 
ATOM     31  C   UNL     1      19.667   8.504   4.551  0.00  0.00    +0.002 A 
ATOM     38  H   UNL     1      16.152   7.679   2.368  0.00  0.00    +0.166 HD
ENDROOT
BRANCH  10  18
ATOM      1 CL   UNL     1       9.823   4.118   8.480  0.00  0.00    -0.084 Cl
ATOM     18  C   UNL     1      10.544   7.153   5.975  0.00  0.00    -0.029 A 
ATOM     23  C   UNL     1      10.578   5.904   6.597  0.00  0.00    +0.025 A 
ATOM     24  C   UNL     1       9.713   8.156   6.472  0.00  0.00    +0.005 A 
ATOM     29  C   UNL     1       9.782   5.659   7.716  0.00  0.00    +0.041 A 
ATOM     30  C   UNL     1       8.915   7.912   7.591  0.00  0.00    +0.002 A 
ATOM     32  C   UNL     1       8.951   6.663   8.213  0.00  0.00    +0.020 A 
ENDBRANCH  10  18
BRANCH  14  21
ATOM      3  O   UNL     1      12.493  10.241   4.507  0.00  0.00    -0.249 OA
ATOM     21  C   UNL     1      12.810   9.965   5.656  0.00  0.00    +0.325 C 
BRANCH  21   2
ATOM      2  O   UNL     1      12.896  10.832   6.704  0.00  0.00    -0.467 OA
ATOM     34  C   UNL     1      12.021  10.559   7.802  0.00  0.00    +0.280 C 
ENDBRANCH  21   2
ENDBRANCH  14  21
BRANCH  12   5
ATOM      5  N   UNL     1      11.856   5.285   1.591  0.00  0.00    -0.313 NA
ATOM     37  H   UNL     1      10.992   5.385   1.060  0.00  0.00    +0.122 HD
BRANCH   5  22
ATOM     22  C   UNL     1      11.797   4.046   2.351  0.00  0.00    +0.087 C 
BRANCH  22  27
ATOM     27  C   UNL     1      12.532   2.920   1.621  0.00  0.00    +0.070 C 
BRANCH  27  33
ATOM      7  N   UNL     1      13.813   3.804  -0.365  0.00  0.00    -0.348 N 
ATOM      8  N   UNL     1      15.878   4.092   0.399  0.00  0.00    -0.244 NA
ATOM     33  C   UNL     1      13.783   3.422   0.946  0.00  0.00    +0.037 A 
ATOM     35  C   UNL     1      15.069   3.607   1.397  0.00  0.00    +0.133 A 
ATOM     36  C   UNL     1      15.091   4.200  -0.647  0.00  0.00    +0.196 A 
ATOM     39  H   UNL     1      13.034   3.800  -1.010  0.00  0.00    +0.166 HD
ENDBRANCH  27  33
ENDBRANCH  22  27
ENDBRANCH   5  22
ENDBRANCH  12   5
TORSDOF 7
ENDMDL
MODEL 3
REMARK VINA RESULT:      -7.0     14.813     19.396
REMARK  Name = 28991350
REMARK  8 active torsions:
REMARK  status: ('A' for Active; 'I' for Inactive)
REMARK    1  A    between atoms: O_2  and  C_21
REMARK    2  A    between atoms: O_2  and  C_34
REMARK    3  A    between atoms: N_5  and  C_12
REMARK    4  A    between atoms: N_5  and  C_22
REMARK    5  A    between atoms: C_10  and  C_18
REMARK    6  A    between atoms: C_14  and  C_21
REMARK    7  A    between atoms: C_22  and  C_27
REMARK    8  A    between atoms: C_27  and  C_33
REMARK                            x       y       z     vdW  Elec       q    Type
REMARK                         _______ _______ _______ _____ _____    ______ ____
ROOT
ATOM      4  N   UNL     1       9.857   7.555   3.191  0.00  0.00    -0.274 NA
ATOM      6  N   UNL     1      10.387   4.800   5.689  0.00  0.00    -0.356 N 
ATOM      9  C   UNL     1      10.557   6.307   3.625  0.00  0.00    +0.106 C 
ATOM     10  C   UNL     1      10.222   7.940   1.804  0.00  0.00    +0.090 C 
ATOM     11  C   UNL     1      10.233   5.142   2.677  0.00  0.00    +0.044 C 
ATOM     12  C   UNL     1      10.640   5.489   1.245  0.00  0.00    +0.057 C 
ATOM     13  C   UNL     1       9.949   6.781   0.815  0.00  0.00    +0.042 C 
ATOM     14  C   UNL     1       9.956   8.653   4.190  0.00  0.00    +0.172 C 
ATOM     15  C   UNL     1      10.183   5.987   5.043  0.00  0.00    +0.038 A 
ATOM     16  C   UNL     1       9.317   8.277   5.551  0.00  0.00    +0.068 C 
ATOM     17  C   UNL     1       9.635   6.877   5.941  0.00  0.00    -0.016 A 
ATOM     19  C   UNL     1       9.463   6.195   7.176  0.00  0.00    +0.003 A 
ATOM     20  C   UNL     1       9.942   4.895   6.990  0.00  0.00    +0.047 A 
ATOM     25  C   UNL     1       8.951   6.555   8.439  0.00  0.00    +0.010 A 
ATOM     26  C   UNL     1       9.932   3.936   8.010  0.00  0.00    +0.026 A 
ATOM     28  C   UNL     1       8.934   5.605   9.466  0.00  0.00    +0.001 A 
ATOM     31  C   UNL     1       9.418   4.316   9.253  0.00  0.00    +0.002 A 
ATOM     38  H   UNL     1      10.799   3.973   5.281  0.00  0.00    +0.166 HD
ENDROOT
BRANCH  10  18
ATOM      1 CL   UNL     1      10.405  12.877   0.089  0.00  0.00    -0.084 Cl
ATOM     18  C   UNL     1       9.485   9.173   1.285  0.00  0.00    -0.029 A 
ATOM     23  C   UNL     1      10.198  10.328   0.961  0.00  0.00    +0.025 A 
ATOM     24  C   UNL     1       8.100   9.144   1.133  0.00  0.00    +0.005 A 
ATOM     29  C   UNL     1       9.525  11.453   0.486  0.00  0.00    +0.041 A 
ATOM     30  C   UNL     1       7.425  10.270   0.659  0.00  0.00    +0.002 A 
ATOM     32  C   UNL     1       8.139  11.424   0.334  0.00  0.00    +0.020 A 
ENDBRANCH  10  18
BRANCH  14  21
ATOM      3  O   UNL     1      12.269   8.872   3.545  0.00  0.00    -0.249 OA
ATOM     21  C   UNL     1      11.388   9.075   4.369  0.00  0.00    +0.325 C 
BRANCH  21   2
ATOM      2  O   UNL     1      11.531   9.704   5.570  0.00  0.00    -0.467 OA
ATOM     34  C   UNL     1      11.622  11.131   5.509  0.00  0.00    +0.280 C 
ENDBRANCH  21   2
ENDBRANCH  14  21
BRANCH  12   5
ATOM      5  N   UNL     1      10.298   4.389   0.345  0.00  0.00    -0.313 NA
ATOM     37  H   UNL     1      10.451   3.498   0.816  0.00  0.00    +0.122 HD
BRANCH   5  22
ATOM     22  C   UNL     1      11.119   4.431  -0.855  0.00  0.00    +0.087 C 
BRANCH  22  27
ATOM     27  C   UNL     1      12.069   3.233  -0.911  0.00  0.00    +0.070 C 
BRANCH  27  33
ATOM      7  N   UNL     1      13.358   3.200   1.259  0.00  0.00    -0.348 N 
ATOM      8  N   UNL     1      15.364   3.982   0.715  0.00  0.00    -0.244 NA
ATOM     33  C   UNL     1      13.305   3.466  -0.080  0.00  0.00    +0.037 A 
ATOM     35  C   UNL     1      14.555   3.949  -0.394  0.00  0.00    +0.133 A 
ATOM     36  C   UNL     1      14.614   3.525   1.692  0.00  0.00    +0.196 A 
ATOM     39  H   UNL     1      12.609   2.829   1.827  0.00  0.00    +0.166 HD
ENDBRANCH  27  33
ENDBRANCH  22  27
ENDBRANCH   5  22
ENDBRANCH  12   5
TORSDOF 7
ENDMDL
MODEL 4
REMARK VINA RESULT:      -6.9      1.899      3.097
REMARK  Name = 28991350
REMARK  8 active torsions:
REMARK  status: ('A' for Active; 'I' for Inactive)
REMARK    1  A    between atoms: O_2  and  C_21
REMARK    2  A    between atoms: O_2  and  C_34
REMARK    3  A    between atoms: N_5  and  C_12
REMARK    4  A    between atoms: N_5  and  C_22
REMARK    5  A    between atoms: C_10  and  C_18
REMARK    6  A    between atoms: C_14  and  C_21
REMARK    7  A    between atoms: C_22  and  C_27
REMARK    8  A    between atoms: C_27  and  C_33
REMARK                            x       y       z     vdW  Elec       q    Type
REMARK                         _______ _______ _______ _____ _____    ______ ____
ROOT
ATOM      4  N   UNL     1      15.623   8.797  19.746  0.00  0.00    -0.274 NA
ATOM      6  N   UNL     1      18.397   8.053  22.166  0.00  0.00    -0.356 N 
ATOM      9  C   UNL     1      16.238   8.927  21.102  0.00  0.00    +0.106 C 
ATOM     10  C   UNL     1      14.417   9.652  19.599  0.00  0.00    +0.090 C 
ATOM     11  C   UNL     1      16.619  10.387  21.389  0.00  0.00    +0.044 C 
ATOM     12  C   UNL     1      15.389  11.290  21.293  0.00  0.00    +0.057 C 
ATOM     13  C   UNL     1      14.744  11.131  19.918  0.00  0.00    +0.042 C 
ATOM     14  C   UNL     1      15.437   7.381  19.327  0.00  0.00    +0.172 C 
ATOM     15  C   UNL     1      17.424   8.014  21.207  0.00  0.00    +0.038 A 
ATOM     16  C   UNL     1      16.776   6.605  19.246  0.00  0.00    +0.068 C 
ATOM     17  C   UNL     1      17.677   6.940  20.383  0.00  0.00    -0.016 A 
ATOM     19  C   UNL     1      18.872   6.318  20.834  0.00  0.00    +0.003 A 
ATOM     20  C   UNL     1      19.304   7.037  21.953  0.00  0.00    +0.047 A 
ATOM     25  C   UNL     1      19.631   5.211  20.406  0.00  0.00    +0.010 A 
ATOM     26  C   UNL     1      20.461   6.700  22.664  0.00  0.00    +0.026 A 
ATOM     28  C   UNL     1      20.792   4.865  21.107  0.00  0.00    +0.001 A 
ATOM     31  C   UNL     1      21.198   5.599  22.219  0.00  0.00    +0.002 A 
ATOM     38  H   UNL     1      18.452   8.724  22.920  0.00  0.00    +0.166 HD
ENDROOT
BRANCH  10  18
ATOM      1 CL   UNL     1      10.305   8.497  16.582  0.00  0.00    -0.084 Cl
ATOM     18  C   UNL     1      13.786   9.607  18.210  0.00  0.00    -0.029 A 
ATOM     23  C   UNL     1      12.485   9.128  18.049  0.00  0.00    +0.025 A 
ATOM     24  C   UNL     1      14.509  10.046  17.101  0.00  0.00    +0.005 A 
ATOM     29  C   UNL     1      11.908   9.089  16.780  0.00  0.00    +0.041 A 
ATOM     30  C   UNL     1      13.933  10.007  15.831  0.00  0.00    +0.002 A 
ATOM     32  C   UNL     1      12.632   9.529  15.671  0.00  0.00    +0.020 A 
ENDBRANCH  10  18
BRANCH  14  21
ATOM      3  O   UNL     1      14.760   6.260  21.352  0.00  0.00    -0.249 OA
ATOM     21  C   UNL     1      14.469   6.683  20.241  0.00  0.00    +0.325 C 
BRANCH  21   2
ATOM      2  O   UNL     1      13.248   6.607  19.640  0.00  0.00    -0.467 OA
ATOM     34  C   UNL     1      12.125   6.608  20.527  0.00  0.00    +0.280 C 
ENDBRANCH  21   2
ENDBRANCH  14  21
BRANCH  12   5
ATOM      5  N   UNL     1      15.767  12.681  21.535  0.00  0.00    -0.313 NA
ATOM     37  H   UNL     1      16.485  12.964  20.868  0.00  0.00    +0.122 HD
BRANCH   5  22
ATOM     22  C   UNL     1      16.290  12.847  22.882  0.00  0.00    +0.087 C 
BRANCH  22  27
ATOM     27  C   UNL     1      17.651  13.543  22.860  0.00  0.00    +0.070 C 
BRANCH  27  33
ATOM      7  N   UNL     1      19.891  12.405  23.100  0.00  0.00    -0.348 N 
ATOM      8  N   UNL     1      19.881  11.608  25.173  0.00  0.00    -0.244 NA
ATOM     33  C   UNL     1      18.685  12.763  23.632  0.00  0.00    +0.037 A 
ATOM     35  C   UNL     1      18.701  12.260  24.912  0.00  0.00    +0.133 A 
ATOM     36  C   UNL     1      20.575  11.715  24.062  0.00  0.00    +0.196 A 
ATOM     39  H   UNL     1      20.221  12.614  22.167  0.00  0.00    +0.166 HD
ENDBRANCH  27  33
ENDBRANCH  22  27
ENDBRANCH   5  22
ENDBRANCH  12   5
TORSDOF 7
ENDMDL
MODEL 5
REMARK VINA RESULT:      -6.8     26.749     30.211
REMARK  Name = 28991350
REMARK  8 active torsions:
REMARK  status: ('A' for Active; 'I' for Inactive)
REMARK    1  A    between atoms: O_2  and  C_21
REMARK    2  A    between atoms: O_2  and  C_34
REMARK    3  A    between atoms: N_5  and  C_12
REMARK    4  A    between atoms: N_5  and  C_22
REMARK    5  A    between atoms: C_10  and  C_18
REMARK    6  A    between atoms: C_14  and  C_21
REMARK    7  A    between atoms: C_22  and  C_27
REMARK    8  A    between atoms: C_27  and  C_33
REMARK                            x       y       z     vdW  Elec       q    Type
REMARK                         _______ _______ _______ _____ _____    ______ ____
ROOT
ATOM      4  N   UNL     1     -14.858   7.202  21.956  0.00  0.00    -0.274 NA
ATOM      6  N   UNL     1     -16.914   6.256  24.954  0.00  0.00    -0.356 N 
ATOM      9  C   UNL     1     -15.978   7.478  22.907  0.00  0.00    +0.106 C 
ATOM     10  C   UNL     1     -14.630   8.336  21.025  0.00  0.00    +0.090 C 
ATOM     11  C   UNL     1     -15.701   8.750  23.722  0.00  0.00    +0.044 C 
ATOM     12  C   UNL     1     -15.508   9.949  22.793  0.00  0.00    +0.057 C 
ATOM     13  C   UNL     1     -14.384   9.652  21.802  0.00  0.00    +0.042 C 
ATOM     14  C   UNL     1     -14.967   5.870  21.302  0.00  0.00    +0.172 C 
ATOM     15  C   UNL     1     -16.190   6.287  23.795  0.00  0.00    +0.038 A 
ATOM     16  C   UNL     1     -14.935   4.703  22.322  0.00  0.00    +0.068 C 
ATOM     17  C   UNL     1     -15.738   5.011  23.536  0.00  0.00    -0.016 A 
ATOM     19  C   UNL     1     -16.173   4.173  24.598  0.00  0.00    +0.003 A 
ATOM     20  C   UNL     1     -16.908   4.979  25.474  0.00  0.00    +0.047 A 
ATOM     25  C   UNL     1     -16.021   2.805  24.902  0.00  0.00    +0.010 A 
ATOM     26  C   UNL     1     -17.496   4.480  26.642  0.00  0.00    +0.026 A 
ATOM     28  C   UNL     1     -16.603   2.295  26.068  0.00  0.00    +0.001 A 
ATOM     31  C   UNL     1     -17.329   3.121  26.923  0.00  0.00    +0.002 A 
ATOM     38  H   UNL     1     -17.384   7.045  25.374  0.00  0.00    +0.166 HD
ENDROOT
BRANCH  10  18
ATOM      1 CL   UNL     1     -12.773   8.322  16.136  0.00  0.00    -0.084 Cl
ATOM     18  C   UNL     1     -13.453   8.135  20.074  0.00  0.00    -0.029 A 
ATOM     23  C   UNL     1     -13.629   8.301  18.699  0.00  0.00    +0.025 A 
ATOM     24  C   UNL     1     -12.201   7.786  20.578  0.00  0.00    +0.005 A 
ATOM     29  C   UNL     1     -12.554   8.119  17.830  0.00  0.00    +0.041 A 
ATOM     30  C   UNL     1     -11.124   7.603  19.710  0.00  0.00    +0.002 A 
ATOM     32  C   UNL     1     -11.301   7.770  18.335  0.00  0.00    +0.020 A 
ENDBRANCH  10  18
BRANCH  14  21
ATOM      3  O   UNL     1     -16.613   6.729  19.764  0.00  0.00    -0.249 OA
ATOM     21  C   UNL     1     -16.202   5.802  20.448  0.00  0.00    +0.325 C 
BRANCH  21   2
ATOM      2  O   UNL     1     -16.767   4.566  20.562  0.00  0.00    -0.467 OA
ATOM     34  C   UNL     1     -17.937   4.350  19.768  0.00  0.00    +0.280 C 
ENDBRANCH  21   2
ENDBRANCH  14  21
BRANCH  12   5
ATOM      5  N   UNL     1     -15.212  11.148  23.574  0.00  0.00    -0.313 NA
ATOM     37  H   UNL     1     -14.632  11.782  23.026  0.00  0.00    +0.122 HD
BRANCH   5  22
ATOM     22  C   UNL     1     -14.502  10.805  24.796  0.00  0.00    +0.087 C 
BRANCH  22  27
ATOM     27  C   UNL     1     -13.057  11.304  24.750  0.00  0.00    +0.070 C 
BRANCH  27  33
ATOM      7  N   UNL     1     -10.874  10.637  25.826  0.00  0.00    -0.348 N 
ATOM      8  N   UNL     1     -11.468   9.805  27.798  0.00  0.00    -0.244 NA
ATOM     33  C   UNL     1     -12.236  10.731  25.877  0.00  0.00    +0.037 A 
ATOM     35  C   UNL     1     -12.581  10.211  27.103  0.00  0.00    +0.133 A 
ATOM     36  C   UNL     1     -10.458  10.076  27.002  0.00  0.00    +0.196 A 
ATOM     39  H   UNL     1     -10.280  10.930  25.062  0.00  0.00    +0.166 HD
ENDBRANCH  27  33
ENDBRANCH  22  27
ENDBRANCH   5  22
ENDBRANCH  12   5
TORSDOF 7
ENDMDL
MODEL 6
REMARK VINA RESULT:      -6.8     18.745     23.104
REMARK  Name = 28991350
REMARK  8 active torsions:
REMARK  status: ('A' for Active; 'I' for Inactive)
REMARK    1  A    between atoms: O_2  and  C_21
REMARK    2  A    between atoms: O_2  and  C_34
REMARK    3  A    between atoms: N_5  and  C_12
REMARK    4  A    between atoms: N_5  and  C_22
REMARK    5  A    between atoms: C_10  and  C_18
REMARK    6  A    between atoms: C_14  and  C_21
REMARK    7  A    between atoms: C_22  and  C_27
REMARK    8  A    between atoms: C_27  and  C_33
REMARK                            x       y       z     vdW  Elec       q    Type
REMARK                         _______ _______ _______ _____ _____    ______ ____
ROOT
ATOM      4  N   UNL     1      -0.963  10.777   4.722  0.00  0.00    -0.274 NA
ATOM      6  N   UNL     1       2.176  12.772   5.247  0.00  0.00    -0.356 N 
ATOM      9  C   UNL     1       0.069  11.738   4.224  0.00  0.00    +0.106 C 
ATOM     10  C   UNL     1      -1.906  10.371   3.649  0.00  0.00    +0.090 C 
ATOM     11  C   UNL     1       0.863  11.129   3.058  0.00  0.00    +0.044 C 
ATOM     12  C   UNL     1      -0.076  10.743   1.915  0.00  0.00    +0.057 C 
ATOM     13  C   UNL     1      -1.147   9.786   2.434  0.00  0.00    +0.042 C 
ATOM     14  C   UNL     1      -1.610  11.223   5.986  0.00  0.00    +0.172 C 
ATOM     15  C   UNL     1       0.967  12.143   5.355  0.00  0.00    +0.038 A 
ATOM     16  C   UNL     1      -0.597  11.378   7.149  0.00  0.00    +0.068 C 
ATOM     17  C   UNL     1       0.674  12.004   6.694  0.00  0.00    -0.016 A 
ATOM     19  C   UNL     1       1.763  12.537   7.435  0.00  0.00    +0.003 A 
ATOM     20  C   UNL     1       2.692  13.011   6.503  0.00  0.00    +0.047 A 
ATOM     25  C   UNL     1       2.053  12.669   8.808  0.00  0.00    +0.010 A 
ATOM     26  C   UNL     1       3.899  13.610   6.881  0.00  0.00    +0.026 A 
ATOM     28  C   UNL     1       3.257  13.265   9.198  0.00  0.00    +0.001 A 
ATOM     31  C   UNL     1       4.165  13.728   8.248  0.00  0.00    +0.002 A 
ATOM     38  H   UNL     1       2.631  13.025   4.381  0.00  0.00    +0.166 HD
ENDROOT
BRANCH  10  18
ATOM      1 CL   UNL     1      -6.826   8.606   3.471  0.00  0.00    -0.084 Cl
ATOM     18  C   UNL     1      -2.942   9.339   4.088  0.00  0.00    -0.029 A 
ATOM     23  C   UNL     1      -4.258   9.432   3.632  0.00  0.00    +0.025 A 
ATOM     24  C   UNL     1      -2.573   8.300   4.942  0.00  0.00    +0.005 A 
ATOM     29  C   UNL     1      -5.204   8.488   4.031  0.00  0.00    +0.041 A 
ATOM     30  C   UNL     1      -3.518   7.355   5.342  0.00  0.00    +0.002 A 
ATOM     32  C   UNL     1      -4.834   7.450   4.886  0.00  0.00    +0.020 A 
ENDBRANCH  10  18
BRANCH  14  21
ATOM      3  O   UNL     1      -1.846  13.569   5.479  0.00  0.00    -0.249 OA
ATOM     21  C   UNL     1      -2.370  12.501   5.765  0.00  0.00    +0.325 C 
BRANCH  21   2
ATOM      2  O   UNL     1      -3.704  12.273   5.933  0.00  0.00    -0.467 OA
ATOM     34  C   UNL     1      -4.039  11.264   6.891  0.00  0.00    +0.280 C 
ENDBRANCH  21   2
ENDBRANCH  14  21
BRANCH  12   5
ATOM      5  N   UNL     1       0.684  10.135   0.825  0.00  0.00    -0.313 NA
ATOM     37  H   UNL     1       1.456   9.590   1.206  0.00  0.00    +0.122 HD
BRANCH   5  22
ATOM     22  C   UNL     1       1.224  11.156  -0.059  0.00  0.00    +0.087 C 
BRANCH  22  27
ATOM     27  C   UNL     1       2.624  10.776  -0.545  0.00  0.00    +0.070 C 
BRANCH  27  33
ATOM      7  N   UNL     1       3.759   9.680   1.425  0.00  0.00    -0.348 N 
ATOM      8  N   UNL     1       5.223  11.195   2.125  0.00  0.00    -0.244 NA
ATOM     33  C   UNL     1       3.616  10.752   0.590  0.00  0.00    +0.037 A 
ATOM     35  C   UNL     1       4.531  11.675   1.042  0.00  0.00    +0.133 A 
ATOM     36  C   UNL     1       4.735   9.993   2.330  0.00  0.00    +0.196 A 
ATOM     39  H   UNL     1       3.240   8.814   1.383  0.00  0.00    +0.166 HD
ENDBRANCH  27  33
ENDBRANCH  22  27
ENDBRANCH   5  22
ENDBRANCH  12   5
TORSDOF 7
ENDMDL
MODEL 7
REMARK VINA RESULT:      -6.7     28.631     31.878
REMARK  Name = 28991350
REMARK  8 active torsions:
REMARK  status: ('A' for Active; 'I' for Inactive)
REMARK    1  A    between atoms: O_2  and  C_21
REMARK    2  A    between atoms: O_2  and  C_34
REMARK    3  A    between atoms: N_5  and  C_12
REMARK    4  A    between atoms: N_5  and  C_22
REMARK    5  A    between atoms: C_10  and  C_18
REMARK    6  A    between atoms: C_14  and  C_21
REMARK    7  A    between atoms: C_22  and  C_27
REMARK    8  A    between atoms: C_27  and  C_33
REMARK                            x       y       z     vdW  Elec       q    Type
REMARK                         _______ _______ _______ _____ _____    ______ ____
ROOT
ATOM      4  N   UNL     1      -9.655  -9.645  17.278  0.00  0.00    -0.274 NA
ATOM      6  N   UNL     1      -7.080 -11.697  19.085  0.00  0.00    -0.356 N 
ATOM      9  C   UNL     1      -9.291 -10.801  18.154  0.00  0.00    +0.106 C 
ATOM     10  C   UNL     1     -11.127  -9.472  17.173  0.00  0.00    +0.090 C 
ATOM     11  C   UNL     1      -9.879 -10.624  19.562  0.00  0.00    +0.044 C 
ATOM     12  C   UNL     1     -11.400 -10.490  19.494  0.00  0.00    +0.057 C 
ATOM     13  C   UNL     1     -11.771  -9.329  18.573  0.00  0.00    +0.042 C 
ATOM     14  C   UNL     1      -8.934  -9.653  15.977  0.00  0.00    +0.172 C 
ATOM     15  C   UNL     1      -7.799 -10.953  18.192  0.00  0.00    +0.038 A 
ATOM     16  C   UNL     1      -7.395  -9.567  16.150  0.00  0.00    +0.068 C 
ATOM     17  C   UNL     1      -6.920 -10.414  17.278  0.00  0.00    -0.016 A 
ATOM     19  C   UNL     1      -5.608 -10.815  17.648  0.00  0.00    +0.003 A 
ATOM     20  C   UNL     1      -5.737 -11.619  18.785  0.00  0.00    +0.047 A 
ATOM     25  C   UNL     1      -4.320 -10.581  17.126  0.00  0.00    +0.010 A 
ATOM     26  C   UNL     1      -4.636 -12.198  19.426  0.00  0.00    +0.026 A 
ATOM     28  C   UNL     1      -3.211 -11.153  17.760  0.00  0.00    +0.001 A 
ATOM     31  C   UNL     1      -3.369 -11.949  18.892  0.00  0.00    +0.002 A 
ATOM     38  H   UNL     1      -7.468 -12.227  19.854  0.00  0.00    +0.166 HD
ENDROOT
BRANCH  10  18
ATOM      1 CL   UNL     1     -13.921  -7.530  13.202  0.00  0.00    -0.084 Cl
ATOM     18  C   UNL     1     -11.555  -8.265  16.342  0.00  0.00    -0.029 A 
ATOM     23  C   UNL     1     -12.439  -8.429  15.276  0.00  0.00    +0.025 A 
ATOM     24  C   UNL     1     -11.063  -6.997  16.651  0.00  0.00    +0.005 A 
ATOM     29  C   UNL     1     -12.832  -7.326  14.518  0.00  0.00    +0.041 A 
ATOM     30  C   UNL     1     -11.454  -5.893  15.893  0.00  0.00    +0.002 A 
ATOM     32  C   UNL     1     -12.339  -6.058  14.827  0.00  0.00    +0.020 A 
ENDBRANCH  10  18
BRANCH  14  21
ATOM      3  O   UNL     1     -10.404 -11.415  15.238  0.00  0.00    -0.249 OA
ATOM     21  C   UNL     1      -9.315 -10.863  15.171  0.00  0.00    +0.325 C 
BRANCH  21   2
ATOM      2  O   UNL     1      -8.270 -11.227  14.374  0.00  0.00    -0.467 OA
ATOM     34  C   UNL     1      -8.136 -12.633  14.142  0.00  0.00    +0.280 C 
ENDBRANCH  21   2
ENDBRANCH  14  21
BRANCH  12   5
ATOM      5  N   UNL     1     -11.948 -10.290  20.834  0.00  0.00    -0.313 NA
ATOM     37  H   UNL     1     -11.837 -11.142  21.382  0.00  0.00    +0.122 HD
BRANCH   5  22
ATOM     22  C   UNL     1     -13.362  -9.957  20.768  0.00  0.00    +0.087 C 
BRANCH  22  27
ATOM     27  C   UNL     1     -14.228 -11.205  20.947  0.00  0.00    +0.070 C 
BRANCH  27  33
ATOM      7  N   UNL     1     -12.669 -13.056  21.661  0.00  0.00    -0.348 N 
ATOM      8  N   UNL     1     -13.089 -13.321  23.826  0.00  0.00    -0.244 NA
ATOM     33  C   UNL     1     -13.640 -12.146  21.967  0.00  0.00    +0.037 A 
ATOM     35  C   UNL     1     -13.884 -12.328  23.309  0.00  0.00    +0.133 A 
ATOM     36  C   UNL     1     -12.370 -13.738  22.808  0.00  0.00    +0.196 A 
ATOM     39  H   UNL     1     -12.246 -13.200  20.754  0.00  0.00    +0.166 HD
ENDBRANCH  27  33
ENDBRANCH  22  27
ENDBRANCH   5  22
ENDBRANCH  12   5
TORSDOF 7
ENDMDL
MODEL 8
REMARK VINA RESULT:      -6.7     14.765     18.169
REMARK  Name = 28991350
REMARK  8 active torsions:
REMARK  status: ('A' for Active; 'I' for Inactive)
REMARK    1  A    between atoms: O_2  and  C_21
REMARK    2  A    between atoms: O_2  and  C_34
REMARK    3  A    between atoms: N_5  and  C_12
REMARK    4  A    between atoms: N_5  and  C_22
REMARK    5  A    between atoms: C_10  and  C_18
REMARK    6  A    between atoms: C_14  and  C_21
REMARK    7  A    between atoms: C_22  and  C_27
REMARK    8  A    between atoms: C_27  and  C_33
REMARK                            x       y       z     vdW  Elec       q    Type
REMARK                         _______ _______ _______ _____ _____    ______ ____
ROOT
ATOM      4  N   UNL     1      12.852   7.481   5.033  0.00  0.00    -0.274 NA
ATOM      6  N   UNL     1      16.196   7.708   3.336  0.00  0.00    -0.356 N 
ATOM      9  C   UNL     1      13.679   7.586   3.791  0.00  0.00    +0.106 C 
ATOM     10  C   UNL     1      11.414   7.275   4.725  0.00  0.00    +0.090 C 
ATOM     11  C   UNL     1      13.524   6.327   2.925  0.00  0.00    +0.044 C 
ATOM     12  C   UNL     1      12.058   6.111   2.551  0.00  0.00    +0.057 C 
ATOM     13  C   UNL     1      11.211   6.036   3.820  0.00  0.00    +0.042 C 
ATOM     14  C   UNL     1      13.131   8.569   6.009  0.00  0.00    +0.172 C 
ATOM     15  C   UNL     1      15.112   7.833   4.159  0.00  0.00    +0.038 A 
ATOM     16  C   UNL     1      14.604   8.567   6.495  0.00  0.00    +0.068 C 
ATOM     17  C   UNL     1      15.551   8.297   5.380  0.00  0.00    -0.016 A 
ATOM     19  C   UNL     1      16.965   8.427   5.312  0.00  0.00    +0.003 A 
ATOM     20  C   UNL     1      17.343   8.050   4.019  0.00  0.00    +0.047 A 
ATOM     25  C   UNL     1      17.964   8.833   6.219  0.00  0.00    +0.010 A 
ATOM     26  C   UNL     1      18.676   8.058   3.592  0.00  0.00    +0.026 A 
ATOM     28  C   UNL     1      19.300   8.843   5.805  0.00  0.00    +0.001 A 
ATOM     31  C   UNL     1      19.649   8.462   4.511  0.00  0.00    +0.002 A 
ATOM     38  H   UNL     1      16.169   7.408   2.371  0.00  0.00    +0.166 HD
ENDROOT
BRANCH  10  18
ATOM      1 CL   UNL     1       9.759   4.232   8.643  0.00  0.00    -0.084 Cl
ATOM     18  C   UNL     1      10.532   7.095   5.958  0.00  0.00    -0.029 A 
ATOM     23  C   UNL     1      10.546   5.887   6.657  0.00  0.00    +0.025 A 
ATOM     24  C   UNL     1       9.714   8.138   6.389  0.00  0.00    +0.005 A 
ATOM     29  C   UNL     1       9.742   5.723   7.784  0.00  0.00    +0.041 A 
ATOM     30  C   UNL     1       8.908   7.975   7.516  0.00  0.00    +0.002 A 
ATOM     32  C   UNL     1       8.923   6.767   8.214  0.00  0.00    +0.020 A 
ENDBRANCH  10  18
BRANCH  14  21
ATOM      3  O   UNL     1      12.005  10.053   4.479  0.00  0.00    -0.249 OA
ATOM     21  C   UNL     1      12.761   9.905   5.430  0.00  0.00    +0.325 C 
BRANCH  21   2
ATOM      2  O   UNL     1      13.389  10.894   6.126  0.00  0.00    -0.467 OA
ATOM     34  C   UNL     1      12.963  12.226   5.823  0.00  0.00    +0.280 C 
ENDBRANCH  21   2
ENDBRANCH  14  21
BRANCH  12   5
ATOM      5  N   UNL     1      11.916   4.893   1.755  0.00  0.00    -0.313 NA
ATOM     37  H   UNL     1      11.379   4.202   2.277  0.00  0.00    +0.122 HD
BRANCH   5  22
ATOM     22  C   UNL     1      13.219   4.330   1.438  0.00  0.00    +0.087 C 
BRANCH  22  27
ATOM     27  C   UNL     1      13.085   3.140   0.488  0.00  0.00    +0.070 C 
BRANCH  27  33
ATOM      7  N   UNL     1      11.046   3.804  -0.842  0.00  0.00    -0.348 N 
ATOM      8  N   UNL     1      11.801   4.050  -2.916  0.00  0.00    -0.244 NA
ATOM     33  C   UNL     1      12.382   3.526  -0.789  0.00  0.00    +0.037 A 
ATOM     35  C   UNL     1      12.827   3.684  -2.081  0.00  0.00    +0.133 A 
ATOM     36  C   UNL     1      10.743   4.113  -2.139  0.00  0.00    +0.196 A 
ATOM     39  H   UNL     1      10.398   3.787  -0.067  0.00  0.00    +0.166 HD
ENDBRANCH  27  33
ENDBRANCH  22  27
ENDBRANCH   5  22
ENDBRANCH  12   5
TORSDOF 7
ENDMDL
MODEL 9
REMARK VINA RESULT:      -6.7     14.117     17.137
REMARK  Name = 28991350
REMARK  8 active torsions:
REMARK  status: ('A' for Active; 'I' for Inactive)
REMARK    1  A    between atoms: O_2  and  C_21
REMARK    2  A    between atoms: O_2  and  C_34
REMARK    3  A    between atoms: N_5  and  C_12
REMARK    4  A    between atoms: N_5  and  C_22
REMARK    5  A    between atoms: C_10  and  C_18
REMARK    6  A    between atoms: C_14  and  C_21
REMARK    7  A    between atoms: C_22  and  C_27
REMARK    8  A    between atoms: C_27  and  C_33
REMARK                            x       y       z     vdW  Elec       q    Type
REMARK                         _______ _______ _______ _____ _____    ______ ____
ROOT
ATOM      4  N   UNL     1      17.132  -7.044  25.998  0.00  0.00    -0.274 NA
ATOM      6  N   UNL     1      17.671  -3.333  26.202  0.00  0.00    -0.356 N 
ATOM      9  C   UNL     1      17.657  -5.842  26.714  0.00  0.00    +0.106 C 
ATOM     10  C   UNL     1      17.242  -8.273  26.824  0.00  0.00    +0.090 C 
ATOM     11  C   UNL     1      16.909  -5.626  28.038  0.00  0.00    +0.044 C 
ATOM     12  C   UNL     1      17.041  -6.858  28.934  0.00  0.00    +0.057 C 
ATOM     13  C   UNL     1      16.534  -8.090  28.189  0.00  0.00    +0.042 C 
ATOM     14  C   UNL     1      17.665  -7.174  24.614  0.00  0.00    +0.172 C 
ATOM     15  C   UNL     1      17.560  -4.641  25.821  0.00  0.00    +0.038 A 
ATOM     16  C   UNL     1      17.290  -5.966  23.718  0.00  0.00    +0.068 C 
ATOM     17  C   UNL     1      17.410  -4.677  24.451  0.00  0.00    -0.016 A 
ATOM     19  C   UNL     1      17.394  -3.336  23.980  0.00  0.00    +0.003 A 
ATOM     20  C   UNL     1      17.558  -2.514  25.099  0.00  0.00    +0.047 A 
ATOM     25  C   UNL     1      17.260  -2.738  22.712  0.00  0.00    +0.010 A 
ATOM     26  C   UNL     1      17.594  -1.117  25.008  0.00  0.00    +0.026 A 
ATOM     28  C   UNL     1      17.292  -1.342  22.608  0.00  0.00    +0.001 A 
ATOM     31  C   UNL     1      17.457  -0.547  23.739  0.00  0.00    +0.002 A 
ATOM     38  H   UNL     1      17.812  -3.007  27.148  0.00  0.00    +0.166 HD
ENDROOT
BRANCH  10  18
ATOM      1 CL   UNL     1      13.168 -10.672  24.589  0.00  0.00    -0.084 Cl
ATOM     18  C   UNL     1      16.659  -9.522  26.166  0.00  0.00    -0.029 A 
ATOM     23  C   UNL     1      15.334  -9.527  25.728  0.00  0.00    +0.025 A 
ATOM     24  C   UNL     1      17.452 -10.657  26.000  0.00  0.00    +0.005 A 
ATOM     29  C   UNL     1      14.802 -10.666  25.126  0.00  0.00    +0.041 A 
ATOM     30  C   UNL     1      16.921 -11.798  25.397  0.00  0.00    +0.002 A 
ATOM     32  C   UNL     1      15.596 -11.802  24.960  0.00  0.00    +0.020 A 
ENDBRANCH  10  18
BRANCH  14  21
ATOM      3  O   UNL     1      19.729  -8.119  25.427  0.00  0.00    -0.249 OA
ATOM     21  C   UNL     1      19.154  -7.379  24.640  0.00  0.00    +0.325 C 
BRANCH  21   2
ATOM      2  O   UNL     1      19.735  -6.624  23.665  0.00  0.00    -0.467 OA
ATOM     34  C   UNL     1      20.684  -7.309  22.841  0.00  0.00    +0.280 C 
ENDBRANCH  21   2
ENDBRANCH  14  21
BRANCH  12   5
ATOM      5  N   UNL     1      16.299  -6.657  30.177  0.00  0.00    -0.313 NA
ATOM     37  H   UNL     1      16.228  -7.539  30.682  0.00  0.00    +0.122 HD
BRANCH   5  22
ATOM     22  C   UNL     1      14.957  -6.167  29.903  0.00  0.00    +0.087 C 
BRANCH  22  27
ATOM     27  C   UNL     1      14.373  -5.455  31.124  0.00  0.00    +0.070 C 
BRANCH  27  33
ATOM      7  N   UNL     1      15.793  -3.457  30.521  0.00  0.00    -0.348 N 
ATOM      8  N   UNL     1      16.175  -2.451  32.464  0.00  0.00    -0.244 NA
ATOM     33  C   UNL     1      15.151  -4.209  31.464  0.00  0.00    +0.037 A 
ATOM     35  C   UNL     1      15.402  -3.569  32.656  0.00  0.00    +0.133 A 
ATOM     36  C   UNL     1      16.392  -2.412  31.168  0.00  0.00    +0.196 A 
ATOM     39  H   UNL     1      15.819  -3.636  29.527  0.00  0.00    +0.166 HD
ENDBRANCH  27  33
ENDBRANCH  22  27
ENDBRANCH   5  22
ENDBRANCH  12   5
TORSDOF 7
ENDMDL
MODEL 10
REMARK VINA RESULT:      -6.7     29.308     31.795
REMARK  Name = 28991350
REMARK  8 active torsions:
REMARK  status: ('A' for Active; 'I' for Inactive)
REMARK    1  A    between atoms: O_2  and  C_21
REMARK    2  A    between atoms: O_2  and  C_34
REMARK    3  A    between atoms: N_5  and  C_12
REMARK    4  A    between atoms: N_5  and  C_22
REMARK    5  A    between atoms: C_10  and  C_18
REMARK    6  A    between atoms: C_14  and  C_21
REMARK    7  A    between atoms: C_22  and  C_27
REMARK    8  A    between atoms: C_27  and  C_33
REMARK                            x       y       z     vdW  Elec       q    Type
REMARK                         _______ _______ _______ _____ _____    ______ ____
ROOT
ATOM      4  N   UNL     1      -9.889 -10.290  17.380  0.00  0.00    -0.274 NA
ATOM      6  N   UNL     1      -6.757  -9.531  15.451  0.00  0.00    -0.356 N 
ATOM      9  C   UNL     1      -8.783  -9.356  17.007  0.00  0.00    +0.106 C 
ATOM     10  C   UNL     1     -10.920  -9.623  18.215  0.00  0.00    +0.090 C 
ATOM     11  C   UNL     1      -9.332  -8.137  16.250  0.00  0.00    +0.044 C 
ATOM     12  C   UNL     1     -10.364  -7.398  17.103  0.00  0.00    +0.057 C 
ATOM     13  C   UNL     1     -11.476  -8.363  17.509  0.00  0.00    +0.042 C 
ATOM     14  C   UNL     1      -9.396 -11.588  17.917  0.00  0.00    +0.172 C 
ATOM     15  C   UNL     1      -7.754 -10.091  16.201  0.00  0.00    +0.038 A 
ATOM     16  C   UNL     1      -8.531 -12.365  16.891  0.00  0.00    +0.068 C 
ATOM     17  C   UNL     1      -7.611 -11.460  16.150  0.00  0.00    -0.016 A 
ATOM     19  C   UNL     1      -6.506 -11.751  15.305  0.00  0.00    +0.003 A 
ATOM     20  C   UNL     1      -5.989 -10.523  14.880  0.00  0.00    +0.047 A 
ATOM     25  C   UNL     1      -5.886 -12.937  14.863  0.00  0.00    +0.010 A 
ATOM     26  C   UNL     1      -4.881 -10.426  14.030  0.00  0.00    +0.026 A 
ATOM     28  C   UNL     1      -4.780 -12.853  14.011  0.00  0.00    +0.001 A 
ATOM     31  C   UNL     1      -4.286 -11.617  13.602  0.00  0.00    +0.002 A 
ATOM     38  H   UNL     1      -6.602  -8.540  15.326  0.00  0.00    +0.166 HD
ENDROOT
BRANCH  10  18
ATOM      1 CL   UNL     1     -13.946 -11.803  21.882  0.00  0.00    -0.084 Cl
ATOM     18  C   UNL     1     -12.107 -10.515  18.571  0.00  0.00    -0.029 A 
ATOM     23  C   UNL     1     -12.446 -10.727  19.908  0.00  0.00    +0.025 A 
ATOM     24  C   UNL     1     -12.855 -11.117  17.559  0.00  0.00    +0.005 A 
ATOM     29  C   UNL     1     -13.531 -11.540  20.233  0.00  0.00    +0.041 A 
ATOM     30  C   UNL     1     -13.941 -11.931  17.883  0.00  0.00    +0.002 A 
ATOM     32  C   UNL     1     -14.279 -12.142  19.221  0.00  0.00    +0.020 A 
ENDBRANCH  10  18
BRANCH  14  21
ATOM      3  O   UNL     1      -9.056 -10.700  20.133  0.00  0.00    -0.249 OA
ATOM     21  C   UNL     1      -8.643 -11.375  19.200  0.00  0.00    +0.325 C 
BRANCH  21   2
ATOM      2  O   UNL     1      -7.456 -12.044  19.148  0.00  0.00    -0.467 OA
ATOM     34  C   UNL     1      -6.330 -11.341  19.683  0.00  0.00    +0.280 C 
ENDBRANCH  21   2
ENDBRANCH  14  21
BRANCH  12   5
ATOM      5  N   UNL     1     -10.905  -6.260  16.363  0.00  0.00    -0.313 NA
ATOM     37  H   UNL     1     -11.628  -5.802  16.916  0.00  0.00    +0.122 HD
BRANCH   5  22
ATOM     22  C   UNL     1     -11.485  -6.694  15.101  0.00  0.00    +0.087 C 
BRANCH  22  27
ATOM     27  C   UNL     1     -12.909  -6.158  14.940  0.00  0.00    +0.070 C 
BRANCH  27  33
ATOM      7  N   UNL     1     -11.857  -4.531  13.323  0.00  0.00    -0.348 N 
ATOM      8  N   UNL     1     -13.577  -3.400  12.488  0.00  0.00    -0.244 NA
ATOM     33  C   UNL     1     -12.970  -5.045  13.925  0.00  0.00    +0.037 A 
ATOM     35  C   UNL     1     -14.020  -4.332  13.395  0.00  0.00    +0.133 A 
ATOM     36  C   UNL     1     -12.271  -3.547  12.468  0.00  0.00    +0.196 A 
ATOM     39  H   UNL     1     -10.902  -4.823  13.477  0.00  0.00    +0.166 HD
ENDBRANCH  27  33
ENDBRANCH  22  27
ENDBRANCH   5  22
ENDBRANCH  12   5
TORSDOF 7
ENDMDL
