MODEL 1
REMARK VINA RESULT:      -7.9      0.000      0.000
REMARK  Name = 11883979
REMARK  7 active torsions:
REMARK  status: ('A' for Active; 'I' for Inactive)
REMARK    1  A    between atoms: S_2  and  N_12
REMARK    2  A    between atoms: S_2  and  C_20
REMARK    3  A    between atoms: O_8  and  C_17
REMARK    4  A    between atoms: O_8  and  C_21
REMARK    5  A    between atoms: N_12  and  C_16
REMARK    6  A    between atoms: N_13  and  C_24
REMARK    7  A    between atoms: C_30  and  C_33
REMARK                            x       y       z     vdW  Elec       q    Type
REMARK                         _______ _______ _______ _____ _____    ______ ____
ROOT
ATOM      6  O   UNL     1      16.524   8.028  21.164  0.00  0.00    -0.369 OA
ATOM      7  O   UNL     1      16.583   5.720  19.132  0.00  0.00    -0.368 OA
ATOM     14  C   UNL     1      15.847   5.902  20.359  0.00  0.00    +0.171 C 
ATOM     15  C   UNL     1      16.768   6.621  21.324  0.00  0.00    +0.191 C 
ATOM     16  C   UNL     1      14.715   6.874  20.141  0.00  0.00    +0.133 C 
ATOM     17  C   UNL     1      18.138   6.232  20.822  0.00  0.00    +0.235 C 
ATOM     18  C   UNL     1      15.394   8.221  20.298  0.00  0.00    +0.183 C 
ATOM     19  C   UNL     1      17.927   6.185  19.325  0.00  0.00    +0.207 C 
ENDROOT
BRANCH  16  12
ATOM     12  N   UNL     1      13.689   6.705  21.198  0.00  0.00    -0.182 NA
ATOM     34  H   UNL     1      13.976   6.250  22.072  0.00  0.00    +0.148 HD
BRANCH  12   2
ATOM      2  S   UNL     1      12.045   6.880  20.813  0.00  0.00    +0.059 S 
ATOM      9  O   UNL     1      11.258   5.974  21.629  0.00  0.00    -0.153 OA
ATOM     10  O   UNL     1      11.900   6.876  19.370  0.00  0.00    -0.153 OA
BRANCH   2  20
ATOM      1 CL   UNL     1      10.882  12.716  22.744  0.00  0.00    -0.084 Cl
ATOM     20  C   UNL     1      11.716   8.529  21.359  0.00  0.00    +0.105 A 
ATOM     22  C   UNL     1      12.100   9.593  20.562  0.00  0.00    +0.030 A 
ATOM     23  C   UNL     1      11.080   8.725  22.573  0.00  0.00    +0.030 A 
ATOM     25  C   UNL     1      11.841  10.894  20.992  0.00  0.00    +0.022 A 
ATOM     26  C   UNL     1      10.821  10.027  23.004  0.00  0.00    +0.022 A 
ATOM     27  C   UNL     1      11.202  11.111  22.214  0.00  0.00    +0.041 A 
ENDBRANCH   2  20
ENDBRANCH  12   2
ENDBRANCH  16  12
BRANCH  17   8
ATOM      8  O   UNL     1      19.151   7.141  21.186  0.00  0.00    -0.442 OA
BRANCH   8  21
ATOM     11  O   UNL     1      21.266   7.033  20.324  0.00  0.00    -0.226 OA
ATOM     13  N   UNL     1      20.635   5.773  22.193  0.00  0.00    -0.251 N 
ATOM     21  C   UNL     1      20.448   6.671  21.161  0.00  0.00    +0.405 C 
ATOM     35  H   UNL     1      19.828   5.599  22.788  0.00  0.00    +0.158 HD
BRANCH  13  24
ATOM     24  C   UNL     1      21.811   5.062  22.526  0.00  0.00    +0.037 A 
ATOM     28  C   UNL     1      22.179   3.963  21.766  0.00  0.00    +0.035 A 
ATOM     29  C   UNL     1      22.573   5.478  23.606  0.00  0.00    +0.023 A 
ATOM     30  C   UNL     1      23.340   3.263  22.095  0.00  0.00    +0.057 A 
ATOM     31  C   UNL     1      23.734   4.779  23.934  0.00  0.00    +0.002 A 
ATOM     32  C   UNL     1      24.118   3.671  23.178  0.00  0.00    +0.012 A 
BRANCH  30  33
ATOM      3  F   UNL     1      23.962   0.953  22.033  0.00  0.00    -0.166 F 
ATOM      4  F   UNL     1      22.831   1.713  20.345  0.00  0.00    -0.166 F 
ATOM      5  F   UNL     1      24.913   2.286  20.602  0.00  0.00    -0.166 F 
ATOM     33  C   UNL     1      23.750   2.078  21.287  0.00  0.00    +0.417 C 
ENDBRANCH  30  33
ENDBRANCH  13  24
ENDBRANCH   8  21
ENDBRANCH  17   8
TORSDOF 7
ENDMDL
MODEL 2
REMARK VINA RESULT:      -7.9     29.519     32.902
REMARK  Name = 11883979
REMARK  7 active torsions:
REMARK  status: ('A' for Active; 'I' for Inactive)
REMARK    1  A    between atoms: S_2  and  N_12
REMARK    2  A    between atoms: S_2  and  C_20
REMARK    3  A    between atoms: O_8  and  C_17
REMARK    4  A    between atoms: O_8  and  C_21
REMARK    5  A    between atoms: N_12  and  C_16
REMARK    6  A    between atoms: N_13  and  C_24
REMARK    7  A    between atoms: C_30  and  C_33
REMARK                            x       y       z     vdW  Elec       q    Type
REMARK                         _______ _______ _______ _____ _____    ______ ____
ROOT
ATOM      6  O   UNL     1     -11.049  -8.119  17.638  0.00  0.00    -0.369 OA
ATOM      7  O   UNL     1      -9.956  -8.956  14.887  0.00  0.00    -0.368 OA
ATOM     14  C   UNL     1      -9.293  -8.605  16.119  0.00  0.00    +0.171 C 
ATOM     15  C   UNL     1     -10.103  -7.493  16.755  0.00  0.00    +0.191 C 
ATOM     16  C   UNL     1      -9.397  -9.743  17.103  0.00  0.00    +0.133 C 
ATOM     17  C   UNL     1     -10.784  -6.861  15.565  0.00  0.00    +0.235 C 
ATOM     18  C   UNL     1     -10.763  -9.524  17.725  0.00  0.00    +0.183 C 
ATOM     19  C   UNL     1     -11.056  -8.057  14.681  0.00  0.00    +0.207 C 
ENDROOT
BRANCH  16  12
ATOM     12  N   UNL     1      -8.347  -9.614  18.142  0.00  0.00    -0.182 NA
ATOM     34  H   UNL     1      -7.941  -8.684  18.296  0.00  0.00    +0.148 HD
BRANCH  12   2
ATOM      2  S   UNL     1      -7.578 -11.003  18.740  0.00  0.00    +0.059 S 
ATOM      9  O   UNL     1      -8.285 -12.184  18.281  0.00  0.00    -0.153 OA
ATOM     10  O   UNL     1      -7.310 -10.816  20.154  0.00  0.00    -0.153 OA
BRANCH   2  20
ATOM      1 CL   UNL     1      -2.061 -10.793  15.797  0.00  0.00    -0.084 Cl
ATOM     20  C   UNL     1      -6.019 -10.944  17.909  0.00  0.00    +0.105 A 
ATOM     22  C   UNL     1      -5.955 -10.421  16.629  0.00  0.00    +0.030 A 
ATOM     23  C   UNL     1      -4.890 -11.421  18.553  0.00  0.00    +0.030 A 
ATOM     25  C   UNL     1      -4.725 -10.374  15.973  0.00  0.00    +0.022 A 
ATOM     26  C   UNL     1      -3.660 -11.374  17.897  0.00  0.00    +0.022 A 
ATOM     27  C   UNL     1      -3.577 -10.851  16.607  0.00  0.00    +0.041 A 
ENDBRANCH   2  20
ENDBRANCH  12   2
ENDBRANCH  16  12
BRANCH  17   8
ATOM      8  O   UNL     1     -11.965  -6.167  15.895  0.00  0.00    -0.442 OA
BRANCH   8  21
ATOM     11  O   UNL     1     -13.902  -6.453  14.712  0.00  0.00    -0.226 OA
ATOM     13  N   UNL     1     -12.288  -4.885  14.067  0.00  0.00    -0.251 N 
ATOM     21  C   UNL     1     -12.829  -5.879  14.858  0.00  0.00    +0.405 C 
ATOM     35  H   UNL     1     -11.377  -4.531  14.352  0.00  0.00    +0.158 HD
BRANCH  13  24
ATOM     24  C   UNL     1     -12.841  -4.297  12.907  0.00  0.00    +0.037 A 
ATOM     28  C   UNL     1     -12.102  -4.280  11.734  0.00  0.00    +0.035 A 
ATOM     29  C   UNL     1     -14.113  -3.750  12.964  0.00  0.00    +0.023 A 
ATOM     30  C   UNL     1     -12.650  -3.700  10.590  0.00  0.00    +0.057 A 
ATOM     31  C   UNL     1     -14.661  -3.172  11.819  0.00  0.00    +0.002 A 
ATOM     32  C   UNL     1     -13.930  -3.146  10.632  0.00  0.00    +0.012 A 
BRANCH  30  33
ATOM      3  F   UNL     1     -10.546  -3.378   9.497  0.00  0.00    -0.166 F 
ATOM      4  F   UNL     1     -11.880  -4.861   8.645  0.00  0.00    -0.166 F 
ATOM      5  F   UNL     1     -12.335  -2.745   8.434  0.00  0.00    -0.166 F 
ATOM     33  C   UNL     1     -11.868  -3.674   9.320  0.00  0.00    +0.417 C 
ENDBRANCH  30  33
ENDBRANCH  13  24
ENDBRANCH   8  21
ENDBRANCH  17   8
TORSDOF 7
ENDMDL
MODEL 3
REMARK VINA RESULT:      -7.8     31.420     34.160
REMARK  Name = 11883979
REMARK  7 active torsions:
REMARK  status: ('A' for Active; 'I' for Inactive)
REMARK    1  A    between atoms: S_2  and  N_12
REMARK    2  A    between atoms: S_2  and  C_20
REMARK    3  A    between atoms: O_8  and  C_17
REMARK    4  A    between atoms: O_8  and  C_21
REMARK    5  A    between atoms: N_12  and  C_16
REMARK    6  A    between atoms: N_13  and  C_24
REMARK    7  A    between atoms: C_30  and  C_33
REMARK                            x       y       z     vdW  Elec       q    Type
REMARK                         _______ _______ _______ _____ _____    ______ ____
ROOT
ATOM      6  O   UNL     1     -16.153   3.296  27.116  0.00  0.00    -0.369 OA
ATOM      7  O   UNL     1     -18.142   0.958  26.914  0.00  0.00    -0.368 OA
ATOM     14  C   UNL     1     -16.707   0.990  27.052  0.00  0.00    +0.171 C 
ATOM     15  C   UNL     1     -16.210   2.164  26.232  0.00  0.00    +0.191 C 
ATOM     16  C   UNL     1     -16.333   1.349  28.468  0.00  0.00    +0.133 C 
ATOM     17  C   UNL     1     -17.295   2.321  25.194  0.00  0.00    +0.235 C 
ATOM     18  C   UNL     1     -16.410   2.864  28.461  0.00  0.00    +0.183 C 
ATOM     19  C   UNL     1     -18.540   1.971  25.978  0.00  0.00    +0.207 C 
ENDROOT
BRANCH  16  12
ATOM     12  N   UNL     1     -14.943   0.919  28.752  0.00  0.00    -0.182 NA
ATOM     34  H   UNL     1     -14.275   0.922  27.972  0.00  0.00    +0.148 HD
BRANCH  12   2
ATOM      2  S   UNL     1     -14.595   0.080  30.186  0.00  0.00    +0.059 S 
ATOM      9  O   UNL     1     -13.305  -0.573  30.063  0.00  0.00    -0.153 OA
ATOM     10  O   UNL     1     -15.765  -0.682  30.575  0.00  0.00    -0.153 OA
BRANCH   2  20
ATOM      1 CL   UNL     1     -14.008   4.752  34.305  0.00  0.00    -0.084 Cl
ATOM     20  C   UNL     1     -14.429   1.400  31.350  0.00  0.00    +0.105 A 
ATOM     22  C   UNL     1     -14.932   1.241  32.629  0.00  0.00    +0.030 A 
ATOM     23  C   UNL     1     -13.798   2.570  30.960  0.00  0.00    +0.030 A 
ATOM     25  C   UNL     1     -14.802   2.282  33.547  0.00  0.00    +0.022 A 
ATOM     26  C   UNL     1     -13.667   3.611  31.879  0.00  0.00    +0.022 A 
ATOM     27  C   UNL     1     -14.169   3.468  33.173  0.00  0.00    +0.041 A 
ENDBRANCH   2  20
ENDBRANCH  12   2
ENDBRANCH  16  12
BRANCH  17   8
ATOM      8  O   UNL     1     -17.363   3.616  24.642  0.00  0.00    -0.442 OA
BRANCH   8  21
ATOM     11  O   UNL     1     -16.277   2.903  22.760  0.00  0.00    -0.226 OA
ATOM     13  N   UNL     1     -16.589   5.179  23.212  0.00  0.00    -0.251 N 
ATOM     21  C   UNL     1     -16.693   3.823  23.453  0.00  0.00    +0.405 C 
ATOM     35  H   UNL     1     -17.000   5.792  23.911  0.00  0.00    +0.158 HD
BRANCH  13  24
ATOM     24  C   UNL     1     -15.979   5.822  22.111  0.00  0.00    +0.037 A 
ATOM     28  C   UNL     1     -14.603   5.992  22.099  0.00  0.00    +0.035 A 
ATOM     29  C   UNL     1     -16.768   6.270  21.064  0.00  0.00    +0.023 A 
ATOM     30  C   UNL     1     -14.003   6.626  21.012  0.00  0.00    +0.057 A 
ATOM     31  C   UNL     1     -16.168   6.903  19.976  0.00  0.00    +0.002 A 
ATOM     32  C   UNL     1     -14.784   7.082  19.950  0.00  0.00    +0.012 A 
BRANCH  30  33
ATOM      3  F   UNL     1     -11.834   5.855  21.666  0.00  0.00    -0.166 F 
ATOM      4  F   UNL     1     -11.995   6.806  19.724  0.00  0.00    -0.166 F 
ATOM      5  F   UNL     1     -12.136   8.005  21.533  0.00  0.00    -0.166 F 
ATOM     33  C   UNL     1     -12.523   6.817  20.983  0.00  0.00    +0.417 C 
ENDBRANCH  30  33
ENDBRANCH  13  24
ENDBRANCH   8  21
ENDBRANCH  17   8
TORSDOF 7
ENDMDL
MODEL 4
REMARK VINA RESULT:      -7.7     27.964     30.731
REMARK  Name = 11883979
REMARK  7 active torsions:
REMARK  status: ('A' for Active; 'I' for Inactive)
REMARK    1  A    between atoms: S_2  and  N_12
REMARK    2  A    between atoms: S_2  and  C_20
REMARK    3  A    between atoms: O_8  and  C_17
REMARK    4  A    between atoms: O_8  and  C_21
REMARK    5  A    between atoms: N_12  and  C_16
REMARK    6  A    between atoms: N_13  and  C_24
REMARK    7  A    between atoms: C_30  and  C_33
REMARK                            x       y       z     vdW  Elec       q    Type
REMARK                         _______ _______ _______ _____ _____    ______ ____
ROOT
ATOM      6  O   UNL     1      -3.288 -10.285  16.748  0.00  0.00    -0.369 OA
ATOM      7  O   UNL     1      -4.345 -12.907  15.535  0.00  0.00    -0.368 OA
ATOM     14  C   UNL     1      -4.207 -11.581  14.985  0.00  0.00    +0.171 C 
ATOM     15  C   UNL     1      -4.530 -10.606  16.099  0.00  0.00    +0.191 C 
ATOM     16  C   UNL     1      -2.759 -11.304  14.667  0.00  0.00    +0.133 C 
ATOM     17  C   UNL     1      -5.434 -11.418  16.995  0.00  0.00    +0.235 C 
ATOM     18  C   UNL     1      -2.201 -10.856  16.003  0.00  0.00    +0.183 C 
ATOM     19  C   UNL     1      -4.836 -12.802  16.880  0.00  0.00    +0.207 C 
ENDROOT
BRANCH  16  12
ATOM     12  N   UNL     1      -2.658 -10.198  13.685  0.00  0.00    -0.182 NA
ATOM     34  H   UNL     1      -3.073  -9.294  13.941  0.00  0.00    +0.148 HD
BRANCH  12   2
ATOM      2  S   UNL     1      -2.245 -10.534  12.073  0.00  0.00    +0.059 S 
ATOM      9  O   UNL     1      -2.278 -11.968  11.855  0.00  0.00    -0.153 OA
ATOM     10  O   UNL     1      -1.063  -9.769  11.725  0.00  0.00    -0.153 OA
BRANCH   2  20
ATOM      1 CL   UNL     1      -7.041  -7.998   8.957  0.00  0.00    -0.084 Cl
ATOM     20  C   UNL     1      -3.601  -9.818  11.193  0.00  0.00    +0.105 A 
ATOM     22  C   UNL     1      -3.387  -9.303   9.926  0.00  0.00    +0.030 A 
ATOM     23  C   UNL     1      -4.851  -9.785  11.786  0.00  0.00    +0.030 A 
ATOM     25  C   UNL     1      -4.456  -8.737   9.231  0.00  0.00    +0.022 A 
ATOM     26  C   UNL     1      -5.921  -9.220  11.091  0.00  0.00    +0.022 A 
ATOM     27  C   UNL     1      -5.723  -8.695   9.814  0.00  0.00    +0.041 A 
ENDBRANCH   2  20
ENDBRANCH  12   2
ENDBRANCH  16  12
BRANCH  17   8
ATOM      8  O   UNL     1      -5.464 -10.964  18.329  0.00  0.00    -0.442 OA
BRANCH   8  21
ATOM     11  O   UNL     1      -6.873 -10.228  19.973  0.00  0.00    -0.226 OA
ATOM     13  N   UNL     1      -7.519 -10.260  17.723  0.00  0.00    -0.251 N 
ATOM     21  C   UNL     1      -6.661 -10.454  18.787  0.00  0.00    +0.405 C 
ATOM     35  H   UNL     1      -7.159 -10.510  16.805  0.00  0.00    +0.158 HD
BRANCH  13  24
ATOM     24  C   UNL     1      -8.840  -9.757  17.749  0.00  0.00    +0.037 A 
ATOM     28  C   UNL     1      -9.150  -8.624  17.013  0.00  0.00    +0.035 A 
ATOM     29  C   UNL     1      -9.799 -10.407  18.510  0.00  0.00    +0.023 A 
ATOM     30  C   UNL     1     -10.454  -8.129  17.039  0.00  0.00    +0.057 A 
ATOM     31  C   UNL     1     -11.103  -9.912  18.535  0.00  0.00    +0.002 A 
ATOM     32  C   UNL     1     -11.431  -8.773  17.799  0.00  0.00    +0.012 A 
BRANCH  30  33
ATOM      3  F   UNL     1     -11.785  -7.123  15.324  0.00  0.00    -0.166 F 
ATOM      4  F   UNL     1     -11.260  -5.877  17.020  0.00  0.00    -0.166 F 
ATOM      5  F   UNL     1      -9.743  -6.411  15.556  0.00  0.00    -0.166 F 
ATOM     33  C   UNL     1     -10.806  -6.911  16.253  0.00  0.00    +0.417 C 
ENDBRANCH  30  33
ENDBRANCH  13  24
ENDBRANCH   8  21
ENDBRANCH  17   8
TORSDOF 7
ENDMDL
MODEL 5
REMARK VINA RESULT:      -7.5     29.273     32.598
REMARK  Name = 11883979
REMARK  7 active torsions:
REMARK  status: ('A' for Active; 'I' for Inactive)
REMARK    1  A    between atoms: S_2  and  N_12
REMARK    2  A    between atoms: S_2  and  C_20
REMARK    3  A    between atoms: O_8  and  C_17
REMARK    4  A    between atoms: O_8  and  C_21
REMARK    5  A    between atoms: N_12  and  C_16
REMARK    6  A    between atoms: N_13  and  C_24
REMARK    7  A    between atoms: C_30  and  C_33
REMARK                            x       y       z     vdW  Elec       q    Type
REMARK                         _______ _______ _______ _____ _____    ______ ____
ROOT
ATOM      6  O   UNL     1     -15.505   5.947  23.865  0.00  0.00    -0.369 OA
ATOM      7  O   UNL     1     -16.855   4.125  21.787  0.00  0.00    -0.368 OA
ATOM     14  C   UNL     1     -16.008   3.831  22.916  0.00  0.00    +0.171 C 
ATOM     15  C   UNL     1     -14.974   4.936  22.992  0.00  0.00    +0.191 C 
ATOM     16  C   UNL     1     -16.791   3.975  24.198  0.00  0.00    +0.133 C 
ATOM     17  C   UNL     1     -14.902   5.416  21.562  0.00  0.00    +0.235 C 
ATOM     18  C   UNL     1     -16.714   5.465  24.472  0.00  0.00    +0.183 C 
ATOM     19  C   UNL     1     -16.337   5.278  21.106  0.00  0.00    +0.207 C 
ENDROOT
BRANCH  16  12
ATOM     12  N   UNL     1     -16.119   3.230  25.290  0.00  0.00    -0.182 NA
ATOM     34  H   UNL     1     -15.108   3.367  25.408  0.00  0.00    +0.148 HD
BRANCH  12   2
ATOM      2  S   UNL     1     -16.906   1.918  26.024  0.00  0.00    +0.059 S 
ATOM      9  O   UNL     1     -16.401   0.677  25.466  0.00  0.00    -0.153 OA
ATOM     10  O   UNL     1     -18.332   2.182  26.045  0.00  0.00    -0.153 OA
BRANCH   2  20
ATOM      1 CL   UNL     1     -14.885   2.342  31.930  0.00  0.00    -0.084 Cl
ATOM     20  C   UNL     1     -16.335   2.037  27.693  0.00  0.00    +0.105 A 
ATOM     22  C   UNL     1     -15.779   3.226  28.133  0.00  0.00    +0.030 A 
ATOM     23  C   UNL     1     -16.454   0.940  28.529  0.00  0.00    +0.030 A 
ATOM     25  C   UNL     1     -15.329   3.321  29.450  0.00  0.00    +0.022 A 
ATOM     26  C   UNL     1     -16.004   1.035  29.846  0.00  0.00    +0.022 A 
ATOM     27  C   UNL     1     -15.441   2.225  30.306  0.00  0.00    +0.041 A 
ENDBRANCH   2  20
ENDBRANCH  12   2
ENDBRANCH  16  12
BRANCH  17   8
ATOM      8  O   UNL     1     -14.431   6.738  21.434  0.00  0.00    -0.442 OA
BRANCH   8  21
ATOM     11  O   UNL     1     -12.217   6.202  21.227  0.00  0.00    -0.226 OA
ATOM     13  N   UNL     1     -13.182   7.939  19.989  0.00  0.00    -0.251 N 
ATOM     21  C   UNL     1     -13.168   6.902  20.901  0.00  0.00    +0.405 C 
ATOM     35  H   UNL     1     -14.076   8.405  19.853  0.00  0.00    +0.158 HD
BRANCH  13  24
ATOM     24  C   UNL     1     -12.106   8.435  19.219  0.00  0.00    +0.037 A 
ATOM     28  C   UNL     1     -12.075   8.188  17.855  0.00  0.00    +0.035 A 
ATOM     29  C   UNL     1     -11.103   9.161  19.842  0.00  0.00    +0.023 A 
ATOM     30  C   UNL     1     -11.013   8.679  17.096  0.00  0.00    +0.057 A 
ATOM     31  C   UNL     1     -10.042   9.653  19.083  0.00  0.00    +0.002 A 
ATOM     32  C   UNL     1      -9.996   9.412  17.709  0.00  0.00    +0.012 A 
BRANCH  30  33
ATOM      3  F   UNL     1     -10.518   9.489  14.900  0.00  0.00    -0.166 F 
ATOM      4  F   UNL     1     -10.145   7.387  15.280  0.00  0.00    -0.166 F 
ATOM      5  F   UNL     1     -12.188   8.112  15.108  0.00  0.00    -0.166 F 
ATOM     33  C   UNL     1     -10.964   8.423  15.627  0.00  0.00    +0.417 C 
ENDBRANCH  30  33
ENDBRANCH  13  24
ENDBRANCH   8  21
ENDBRANCH  17   8
TORSDOF 7
ENDMDL
MODEL 6
REMARK VINA RESULT:      -7.4     28.534     31.139
REMARK  Name = 11883979
REMARK  7 active torsions:
REMARK  status: ('A' for Active; 'I' for Inactive)
REMARK    1  A    between atoms: S_2  and  N_12
REMARK    2  A    between atoms: S_2  and  C_20
REMARK    3  A    between atoms: O_8  and  C_17
REMARK    4  A    between atoms: O_8  and  C_21
REMARK    5  A    between atoms: N_12  and  C_16
REMARK    6  A    between atoms: N_13  and  C_24
REMARK    7  A    between atoms: C_30  and  C_33
REMARK                            x       y       z     vdW  Elec       q    Type
REMARK                         _______ _______ _______ _____ _____    ______ ____
ROOT
ATOM      6  O   UNL     1      -5.643 -10.260  17.223  0.00  0.00    -0.369 OA
ATOM      7  O   UNL     1      -4.230 -12.069  19.271  0.00  0.00    -0.368 OA
ATOM     14  C   UNL     1      -4.583 -12.276  17.888  0.00  0.00    +0.171 C 
ATOM     15  C   UNL     1      -5.920 -11.599  17.667  0.00  0.00    +0.191 C 
ATOM     16  C   UNL     1      -3.636 -11.513  16.995  0.00  0.00    +0.133 C 
ATOM     17  C   UNL     1      -6.528 -11.613  19.049  0.00  0.00    +0.235 C 
ATOM     18  C   UNL     1      -4.233 -10.120  16.984  0.00  0.00    +0.183 C 
ATOM     19  C   UNL     1      -5.317 -11.403  19.931  0.00  0.00    +0.207 C 
ENDROOT
BRANCH  16  12
ATOM     12  N   UNL     1      -3.662 -12.080  15.625  0.00  0.00    -0.182 NA
ATOM     34  H   UNL     1      -4.432 -12.715  15.387  0.00  0.00    +0.148 HD
BRANCH  12   2
ATOM      2  S   UNL     1      -2.271 -12.005  14.655  0.00  0.00    +0.059 S 
ATOM      9  O   UNL     1      -1.923 -13.339  14.203  0.00  0.00    -0.153 OA
ATOM     10  O   UNL     1      -1.283 -11.178  15.320  0.00  0.00    -0.153 OA
BRANCH   2  20
ATOM      1 CL   UNL     1      -4.323  -8.769   9.709  0.00  0.00    -0.084 Cl
ATOM     20  C   UNL     1      -2.851 -11.090  13.257  0.00  0.00    +0.105 A 
ATOM     22  C   UNL     1      -1.952 -10.718  12.273  0.00  0.00    +0.030 A 
ATOM     23  C   UNL     1      -4.194 -10.764  13.173  0.00  0.00    +0.030 A 
ATOM     25  C   UNL     1      -2.409  -9.997  11.170  0.00  0.00    +0.022 A 
ATOM     26  C   UNL     1      -4.651 -10.042  12.070  0.00  0.00    +0.022 A 
ATOM     27  C   UNL     1      -3.759  -9.658  11.069  0.00  0.00    +0.041 A 
ENDBRANCH   2  20
ENDBRANCH  12   2
ENDBRANCH  16  12
BRANCH  17   8
ATOM      8  O   UNL     1      -7.505 -10.617  19.246  0.00  0.00    -0.442 OA
BRANCH   8  21
ATOM     11  O   UNL     1      -9.377 -11.478  18.253  0.00  0.00    -0.226 OA
ATOM     13  N   UNL     1      -8.483  -9.413  17.609  0.00  0.00    -0.251 N 
ATOM     21  C   UNL     1      -8.549 -10.580  18.344  0.00  0.00    +0.405 C 
ATOM     35  H   UNL     1      -7.714  -8.786  17.831  0.00  0.00    +0.158 HD
BRANCH  13  24
ATOM     24  C   UNL     1      -9.355  -8.980  16.583  0.00  0.00    +0.037 A 
ATOM     28  C   UNL     1     -10.106  -7.831  16.770  0.00  0.00    +0.035 A 
ATOM     29  C   UNL     1      -9.439  -9.712  15.410  0.00  0.00    +0.023 A 
ATOM     30  C   UNL     1     -10.965  -7.404  15.757  0.00  0.00    +0.057 A 
ATOM     31  C   UNL     1     -10.296  -9.285  14.396  0.00  0.00    +0.002 A 
ATOM     32  C   UNL     1     -11.060  -8.130  14.570  0.00  0.00    +0.012 A 
BRANCH  30  33
ATOM      3  F   UNL     1     -13.109  -6.416  16.147  0.00  0.00    -0.166 F 
ATOM      4  F   UNL     1     -11.391  -5.410  17.009  0.00  0.00    -0.166 F 
ATOM      5  F   UNL     1     -11.726  -5.336  14.861  0.00  0.00    -0.166 F 
ATOM     33  C   UNL     1     -11.781  -6.169  15.942  0.00  0.00    +0.417 C 
ENDBRANCH  30  33
ENDBRANCH  13  24
ENDBRANCH   8  21
ENDBRANCH  17   8
TORSDOF 7
ENDMDL
MODEL 7
REMARK VINA RESULT:      -7.3     30.804     33.491
REMARK  Name = 11883979
REMARK  7 active torsions:
REMARK  status: ('A' for Active; 'I' for Inactive)
REMARK    1  A    between atoms: S_2  and  N_12
REMARK    2  A    between atoms: S_2  and  C_20
REMARK    3  A    between atoms: O_8  and  C_17
REMARK    4  A    between atoms: O_8  and  C_21
REMARK    5  A    between atoms: N_12  and  C_16
REMARK    6  A    between atoms: N_13  and  C_24
REMARK    7  A    between atoms: C_30  and  C_33
REMARK                            x       y       z     vdW  Elec       q    Type
REMARK                         _______ _______ _______ _____ _____    ______ ____
ROOT
ATOM      6  O   UNL     1     -14.233   4.753  23.760  0.00  0.00    -0.369 OA
ATOM      7  O   UNL     1     -16.735   3.830  22.227  0.00  0.00    -0.368 OA
ATOM     14  C   UNL     1     -16.243   5.144  22.562  0.00  0.00    +0.171 C 
ATOM     15  C   UNL     1     -15.628   5.045  23.944  0.00  0.00    +0.191 C 
ATOM     16  C   UNL     1     -15.081   5.502  21.670  0.00  0.00    +0.133 C 
ATOM     17  C   UNL     1     -16.369   3.878  24.550  0.00  0.00    +0.235 C 
ATOM     18  C   UNL     1     -13.908   4.838  22.364  0.00  0.00    +0.183 C 
ATOM     19  C   UNL     1     -16.556   2.966  23.358  0.00  0.00    +0.207 C 
ENDROOT
BRANCH  16  12
ATOM     12  N   UNL     1     -14.887   6.972  21.654  0.00  0.00    -0.182 NA
ATOM     34  H   UNL     1     -14.648   7.431  22.541  0.00  0.00    +0.148 HD
BRANCH  12   2
ATOM      2  S   UNL     1     -15.436   7.882  20.331  0.00  0.00    +0.059 S 
ATOM      9  O   UNL     1     -15.731   9.235  20.763  0.00  0.00    -0.153 OA
ATOM     10  O   UNL     1     -16.435   7.109  19.617  0.00  0.00    -0.153 OA
BRANCH   2  20
ATOM      1 CL   UNL     1     -10.346   8.082  16.698  0.00  0.00    -0.084 Cl
ATOM     20  C   UNL     1     -13.998   7.938  19.304  0.00  0.00    +0.105 A 
ATOM     22  C   UNL     1     -14.124   8.338  17.985  0.00  0.00    +0.030 A 
ATOM     23  C   UNL     1     -12.771   7.582  19.839  0.00  0.00    +0.030 A 
ATOM     25  C   UNL     1     -12.990   8.382  17.175  0.00  0.00    +0.022 A 
ATOM     26  C   UNL     1     -11.636   7.627  19.029  0.00  0.00    +0.022 A 
ATOM     27  C   UNL     1     -11.746   8.026  17.697  0.00  0.00    +0.041 A 
ENDBRANCH   2  20
ENDBRANCH  12   2
ENDBRANCH  16  12
BRANCH  17   8
ATOM      8  O   UNL     1     -15.666   3.246  25.595  0.00  0.00    -0.442 OA
BRANCH   8  21
ATOM     11  O   UNL     1     -17.472   2.907  26.957  0.00  0.00    -0.226 OA
ATOM     13  N   UNL     1     -15.382   3.519  27.816  0.00  0.00    -0.251 N 
ATOM     21  C   UNL     1     -16.289   3.197  26.826  0.00  0.00    +0.405 C 
ATOM     35  H   UNL     1     -14.437   3.734  27.507  0.00  0.00    +0.158 HD
BRANCH  13  24
ATOM     24  C   UNL     1     -15.604   3.588  29.211  0.00  0.00    +0.037 A 
ATOM     28  C   UNL     1     -15.027   2.638  30.038  0.00  0.00    +0.035 A 
ATOM     29  C   UNL     1     -16.392   4.606  29.723  0.00  0.00    +0.023 A 
ATOM     30  C   UNL     1     -15.246   2.707  31.414  0.00  0.00    +0.057 A 
ATOM     31  C   UNL     1     -16.609   4.676  31.099  0.00  0.00    +0.002 A 
ATOM     32  C   UNL     1     -16.036   3.727  31.945  0.00  0.00    +0.012 A 
BRANCH  30  33
ATOM      3  F   UNL     1     -14.863   0.403  31.932  0.00  0.00    -0.166 F 
ATOM      4  F   UNL     1     -13.274   1.797  32.418  0.00  0.00    -0.166 F 
ATOM      5  F   UNL     1     -15.100   1.778  33.599  0.00  0.00    -0.166 F 
ATOM     33  C   UNL     1     -14.632   1.692  32.319  0.00  0.00    +0.417 C 
ENDBRANCH  30  33
ENDBRANCH  13  24
ENDBRANCH   8  21
ENDBRANCH  17   8
TORSDOF 7
ENDMDL
MODEL 8
REMARK VINA RESULT:      -7.3     29.120     31.396
REMARK  Name = 11883979
REMARK  7 active torsions:
REMARK  status: ('A' for Active; 'I' for Inactive)
REMARK    1  A    between atoms: S_2  and  N_12
REMARK    2  A    between atoms: S_2  and  C_20
REMARK    3  A    between atoms: O_8  and  C_17
REMARK    4  A    between atoms: O_8  and  C_21
REMARK    5  A    between atoms: N_12  and  C_16
REMARK    6  A    between atoms: N_13  and  C_24
REMARK    7  A    between atoms: C_30  and  C_33
REMARK                            x       y       z     vdW  Elec       q    Type
REMARK                         _______ _______ _______ _____ _____    ______ ____
ROOT
ATOM      6  O   UNL     1     -10.900  -6.917  16.920  0.00  0.00    -0.369 OA
ATOM      7  O   UNL     1     -10.701  -8.790  14.488  0.00  0.00    -0.368 OA
ATOM     14  C   UNL     1     -11.826  -8.130  15.103  0.00  0.00    +0.171 C 
ATOM     15  C   UNL     1     -11.581  -8.141  16.598  0.00  0.00    +0.191 C 
ATOM     16  C   UNL     1     -11.823  -6.665  14.743  0.00  0.00    +0.133 C 
ATOM     17  C   UNL     1     -10.683  -9.342  16.775  0.00  0.00    +0.235 C 
ATOM     18  C   UNL     1     -10.864  -6.072  15.758  0.00  0.00    +0.183 C 
ATOM     19  C   UNL     1      -9.841  -9.297  15.520  0.00  0.00    +0.207 C 
ENDROOT
BRANCH  16  12
ATOM     12  N   UNL     1     -13.176  -6.091  14.938  0.00  0.00    -0.182 NA
ATOM     34  H   UNL     1     -13.506  -5.964  15.902  0.00  0.00    +0.148 HD
BRANCH  12   2
ATOM      2  S   UNL     1     -14.266  -6.040  13.637  0.00  0.00    +0.059 S 
ATOM      9  O   UNL     1     -15.339  -5.112  13.941  0.00  0.00    -0.153 OA
ATOM     10  O   UNL     1     -14.568  -7.398  13.229  0.00  0.00    -0.153 OA
BRANCH   2  20
ATOM      1 CL   UNL     1     -10.757  -3.515   9.114  0.00  0.00    -0.084 Cl
ATOM     20  C   UNL     1     -13.274  -5.326  12.359  0.00  0.00    +0.105 A 
ATOM     22  C   UNL     1     -12.878  -6.114  11.292  0.00  0.00    +0.030 A 
ATOM     23  C   UNL     1     -12.913  -3.992  12.448  0.00  0.00    +0.030 A 
ATOM     25  C   UNL     1     -12.095  -5.551  10.284  0.00  0.00    +0.022 A 
ATOM     26  C   UNL     1     -12.131  -3.430  11.439  0.00  0.00    +0.022 A 
ATOM     27  C   UNL     1     -11.722  -4.209  10.357  0.00  0.00    +0.041 A 
ENDBRANCH   2  20
ENDBRANCH  12   2
ENDBRANCH  16  12
BRANCH  17   8
ATOM      8  O   UNL     1      -9.896  -9.290  17.943  0.00  0.00    -0.442 OA
BRANCH   8  21
ATOM     11  O   UNL     1      -9.239 -11.464  18.217  0.00  0.00    -0.226 OA
ATOM     13  N   UNL     1      -7.687  -9.716  18.098  0.00  0.00    -0.251 N 
ATOM     21  C   UNL     1      -8.947 -10.280  18.099  0.00  0.00    +0.405 C 
ATOM     35  H   UNL     1      -7.647  -8.706  17.988  0.00  0.00    +0.158 HD
BRANCH  13  24
ATOM     24  C   UNL     1      -6.440 -10.370  18.231  0.00  0.00    +0.037 A 
ATOM     28  C   UNL     1      -5.550 -10.358  17.170  0.00  0.00    +0.035 A 
ATOM     29  C   UNL     1      -6.132 -11.008  19.422  0.00  0.00    +0.023 A 
ATOM     30  C   UNL     1      -4.320 -11.003  17.302  0.00  0.00    +0.057 A 
ATOM     31  C   UNL     1      -4.902 -11.651  19.556  0.00  0.00    +0.002 A 
ATOM     32  C   UNL     1      -3.995 -11.649  18.495  0.00  0.00    +0.012 A 
BRANCH  30  33
ATOM      3  F   UNL     1      -3.092 -12.243  15.666  0.00  0.00    -0.166 F 
ATOM      4  F   UNL     1      -3.763 -10.260  15.098  0.00  0.00    -0.166 F 
ATOM      5  F   UNL     1      -2.133 -10.487  16.520  0.00  0.00    -0.166 F 
ATOM     33  C   UNL     1      -3.349 -10.999  16.169  0.00  0.00    +0.417 C 
ENDBRANCH  30  33
ENDBRANCH  13  24
ENDBRANCH   8  21
ENDBRANCH  17   8
TORSDOF 7
ENDMDL
MODEL 9
REMARK VINA RESULT:      -7.3     31.787     34.164
REMARK  Name = 11883979
REMARK  7 active torsions:
REMARK  status: ('A' for Active; 'I' for Inactive)
REMARK    1  A    between atoms: S_2  and  N_12
REMARK    2  A    between atoms: S_2  and  C_20
REMARK    3  A    between atoms: O_8  and  C_17
REMARK    4  A    between atoms: O_8  and  C_21
REMARK    5  A    between atoms: N_12  and  C_16
REMARK    6  A    between atoms: N_13  and  C_24
REMARK    7  A    between atoms: C_30  and  C_33
REMARK                            x       y       z     vdW  Elec       q    Type
REMARK                         _______ _______ _______ _____ _____    ______ ____
ROOT
ATOM      6  O   UNL     1     -16.187   2.090  24.525  0.00  0.00    -0.369 OA
ATOM      7  O   UNL     1     -17.993   4.220  25.815  0.00  0.00    -0.368 OA
ATOM     14  C   UNL     1     -16.779   4.329  25.044  0.00  0.00    +0.171 C 
ATOM     15  C   UNL     1     -15.899   3.160  25.440  0.00  0.00    +0.191 C 
ATOM     16  C   UNL     1     -17.073   4.086  23.584  0.00  0.00    +0.133 C 
ATOM     17  C   UNL     1     -16.380   2.846  26.836  0.00  0.00    +0.235 C 
ATOM     18  C   UNL     1     -17.053   2.572  23.485  0.00  0.00    +0.183 C 
ATOM     19  C   UNL     1     -17.862   3.124  26.733  0.00  0.00    +0.207 C 
ENDROOT
BRANCH  16  12
ATOM     12  N   UNL     1     -15.991   4.657  22.746  0.00  0.00    -0.182 NA
ATOM     34  H   UNL     1     -15.048   4.695  23.148  0.00  0.00    +0.148 HD
BRANCH  12   2
ATOM      2  S   UNL     1     -16.383   5.568  21.369  0.00  0.00    +0.059 S 
ATOM      9  O   UNL     1     -17.294   6.635  21.738  0.00  0.00    -0.153 OA
ATOM     10  O   UNL     1     -16.720   4.660  20.289  0.00  0.00    -0.153 OA
BRANCH   2  20
ATOM      1 CL   UNL     1     -10.872   8.153  19.921  0.00  0.00    -0.084 Cl
ATOM     20  C   UNL     1     -14.826   6.298  20.960  0.00  0.00    +0.105 A 
ATOM     22  C   UNL     1     -14.778   7.295  20.001  0.00  0.00    +0.030 A 
ATOM     23  C   UNL     1     -13.683   5.860  21.607  0.00  0.00    +0.030 A 
ATOM     25  C   UNL     1     -13.550   7.872  19.678  0.00  0.00    +0.022 A 
ATOM     26  C   UNL     1     -12.454   6.437  21.284  0.00  0.00    +0.022 A 
ATOM     27  C   UNL     1     -12.387   7.442  20.319  0.00  0.00    +0.041 A 
ENDBRANCH   2  20
ENDBRANCH  12   2
ENDBRANCH  16  12
BRANCH  17   8
ATOM      8  O   UNL     1     -16.117   1.521  27.238  0.00  0.00    -0.442 OA
BRANCH   8  21
ATOM     11  O   UNL     1     -16.931   0.374  29.042  0.00  0.00    -0.226 OA
ATOM     13  N   UNL     1     -15.369   2.101  29.286  0.00  0.00    -0.251 N 
ATOM     21  C   UNL     1     -16.204   1.250  28.589  0.00  0.00    +0.405 C 
ATOM     35  H   UNL     1     -14.841   2.768  28.728  0.00  0.00    +0.158 HD
BRANCH  13  24
ATOM     24  C   UNL     1     -15.157   2.162  30.682  0.00  0.00    +0.037 A 
ATOM     28  C   UNL     1     -15.166   3.393  31.318  0.00  0.00    +0.035 A 
ATOM     29  C   UNL     1     -14.946   0.988  31.388  0.00  0.00    +0.023 A 
ATOM     30  C   UNL     1     -14.957   3.452  32.696  0.00  0.00    +0.057 A 
ATOM     31  C   UNL     1     -14.739   1.047  32.766  0.00  0.00    +0.002 A 
ATOM     32  C   UNL     1     -14.744   2.279  33.421  0.00  0.00    +0.012 A 
BRANCH  30  33
ATOM      3  F   UNL     1     -14.988   4.665  34.758  0.00  0.00    -0.166 F 
ATOM      4  F   UNL     1     -13.873   5.542  33.118  0.00  0.00    -0.166 F 
ATOM      5  F   UNL     1     -16.047   5.533  33.068  0.00  0.00    -0.166 F 
ATOM     33  C   UNL     1     -14.964   4.769  33.396  0.00  0.00    +0.417 C 
ENDBRANCH  30  33
ENDBRANCH  13  24
ENDBRANCH   8  21
ENDBRANCH  17   8
TORSDOF 7
ENDMDL
MODEL 10
REMARK VINA RESULT:      -7.3     28.212     30.937
REMARK  Name = 11883979
REMARK  7 active torsions:
REMARK  status: ('A' for Active; 'I' for Inactive)
REMARK    1  A    between atoms: S_2  and  N_12
REMARK    2  A    between atoms: S_2  and  C_20
REMARK    3  A    between atoms: O_8  and  C_17
REMARK    4  A    between atoms: O_8  and  C_21
REMARK    5  A    between atoms: N_12  and  C_16
REMARK    6  A    between atoms: N_13  and  C_24
REMARK    7  A    between atoms: C_30  and  C_33
REMARK                            x       y       z     vdW  Elec       q    Type
REMARK                         _______ _______ _______ _____ _____    ______ ____
ROOT
ATOM      6  O   UNL     1      -3.054 -10.345  16.722  0.00  0.00    -0.369 OA
ATOM      7  O   UNL     1      -4.223 -12.912  15.496  0.00  0.00    -0.368 OA
ATOM     14  C   UNL     1      -4.072 -11.578  14.969  0.00  0.00    +0.171 C 
ATOM     15  C   UNL     1      -4.327 -10.620  16.116  0.00  0.00    +0.191 C 
ATOM     16  C   UNL     1      -2.631 -11.330  14.601  0.00  0.00    +0.133 C 
ATOM     17  C   UNL     1      -5.217 -11.430  17.028  0.00  0.00    +0.235 C 
ATOM     18  C   UNL     1      -2.010 -10.925  15.924  0.00  0.00    +0.183 C 
ATOM     19  C   UNL     1      -4.659 -12.825  16.860  0.00  0.00    +0.207 C 
ENDROOT
BRANCH  16  12
ATOM     12  N   UNL     1      -2.539 -10.204  13.640  0.00  0.00    -0.182 NA
ATOM     34  H   UNL     1      -2.928  -9.299  13.928  0.00  0.00    +0.148 HD
BRANCH  12   2
ATOM      2  S   UNL     1      -2.186 -10.514  12.009  0.00  0.00    +0.059 S 
ATOM      9  O   UNL     1      -2.200 -11.945  11.774  0.00  0.00    -0.153 OA
ATOM     10  O   UNL     1      -1.033  -9.722  11.623  0.00  0.00    -0.153 OA
BRANCH   2  20
ATOM      1 CL   UNL     1      -7.150  -8.034   9.119  0.00  0.00    -0.084 Cl
ATOM     20  C   UNL     1      -3.589  -9.813  11.192  0.00  0.00    +0.105 A 
ATOM     22  C   UNL     1      -3.430  -9.256   9.935  0.00  0.00    +0.030 A 
ATOM     23  C   UNL     1      -4.820  -9.834  11.825  0.00  0.00    +0.030 A 
ATOM     25  C   UNL     1      -4.537  -8.703   9.291  0.00  0.00    +0.022 A 
ATOM     26  C   UNL     1      -5.927  -9.282  11.180  0.00  0.00    +0.022 A 
ATOM     27  C   UNL     1      -5.785  -8.716   9.913  0.00  0.00    +0.041 A 
ENDBRANCH   2  20
ENDBRANCH  12   2
ENDBRANCH  16  12
BRANCH  17   8
ATOM      8  O   UNL     1      -5.184 -11.005  18.371  0.00  0.00    -0.442 OA
BRANCH   8  21
ATOM     11  O   UNL     1      -6.489 -10.233  20.084  0.00  0.00    -0.226 OA
ATOM     13  N   UNL     1      -7.297 -10.380  17.892  0.00  0.00    -0.251 N 
ATOM     21  C   UNL     1      -6.358 -10.505  18.897  0.00  0.00    +0.405 C 
ATOM     35  H   UNL     1      -6.998 -10.661  16.961  0.00  0.00    +0.158 HD
BRANCH  13  24
ATOM     24  C   UNL     1      -8.626  -9.909  17.996  0.00  0.00    +0.037 A 
ATOM     28  C   UNL     1      -9.520 -10.574  18.820  0.00  0.00    +0.035 A 
ATOM     29  C   UNL     1      -9.008  -8.789  17.274  0.00  0.00    +0.023 A 
ATOM     30  C   UNL     1     -10.831 -10.108  18.923  0.00  0.00    +0.057 A 
ATOM     31  C   UNL     1     -10.318  -8.322  17.378  0.00  0.00    +0.002 A 
ATOM     32  C   UNL     1     -11.230  -8.982  18.203  0.00  0.00    +0.012 A 
BRANCH  30  33
ATOM      3  F   UNL     1     -12.488  -9.977  20.643  0.00  0.00    -0.166 F 
ATOM      4  F   UNL     1     -12.771 -11.494  19.119  0.00  0.00    -0.166 F 
ATOM      5  F   UNL     1     -11.210 -11.736  20.614  0.00  0.00    -0.166 F 
ATOM     33  C   UNL     1     -11.806 -10.812  19.805  0.00  0.00    +0.417 C 
ENDBRANCH  30  33
ENDBRANCH  13  24
ENDBRANCH   8  21
ENDBRANCH  17   8
TORSDOF 7
ENDMDL
