MODEL 1
REMARK VINA RESULT:      -7.2      0.000      0.000
REMARK  Name = 71694373
REMARK  10 active torsions:
REMARK  status: ('A' for Active; 'I' for Inactive)
REMARK    1  A    between atoms: O_2  and  C_22
REMARK    2  A    between atoms: O_2  and  C_28
REMARK    3  A    between atoms: N_8  and  C_33
REMARK    4  A    between atoms: N_8  and  C_35
REMARK    5  A    between atoms: N_8  and  C_36
REMARK    6  A    between atoms: C_10  and  C_13
REMARK    7  A    between atoms: C_13  and  C_19
REMARK    8  A    between atoms: C_16  and  C_22
REMARK    9  A    between atoms: C_35  and  C_37
REMARK   10  A    between atoms: C_37  and  C_38
REMARK                            x       y       z     vdW  Elec       q    Type
REMARK                         _______ _______ _______ _____ _____    ______ ____
ROOT
ATOM      3  O   UNL     1      -8.726 -11.064  11.677  0.00  0.00    -0.274 OA
ATOM      4  O   UNL     1      -3.642 -10.475  13.076  0.00  0.00    -0.488 OA
ATOM      6  N   UNL     1      -6.994 -10.396  10.294  0.00  0.00    -0.300 N 
ATOM      7  N   UNL     1      -6.339  -9.396  13.240  0.00  0.00    -0.304 NA
ATOM     10  C   UNL     1      -4.706 -11.834   9.203  0.00  0.00    +0.008 C 
ATOM     11  C   UNL     1      -4.575 -10.653  10.210  0.00  0.00    +0.032 C 
ATOM     12  C   UNL     1      -6.096 -12.491   9.371  0.00  0.00    +0.023 C 
ATOM     14  C   UNL     1      -5.746  -9.665  10.050  0.00  0.00    +0.115 C 
ATOM     15  C   UNL     1      -7.239 -11.473   9.332  0.00  0.00    +0.108 C 
ATOM     21  C   UNL     1      -3.248  -9.942  10.158  0.00  0.00    -0.023 C 
ATOM     23  C   UNL     1      -7.789 -10.294  11.435  0.00  0.00    +0.229 C 
ATOM     24  C   UNL     1      -2.337  -9.785  11.133  0.00  0.00    +0.010 C 
ATOM     25  C   UNL     1      -7.519  -9.165  12.413  0.00  0.00    +0.178 C 
ATOM     26  C   UNL     1      -2.336 -10.197  12.583  0.00  0.00    +0.256 C 
ATOM     27  C   UNL     1      -6.324 -10.671  13.955  0.00  0.00    +0.120 C 
ATOM     29  C   UNL     1      -5.130 -10.780  14.888  0.00  0.00    +0.010 A 
ATOM     30  C   UNL     1      -3.799 -10.692  14.422  0.00  0.00    +0.125 A 
ATOM     31  C   UNL     1      -5.360 -11.001  16.257  0.00  0.00    +0.031 A 
ATOM     32  C   UNL     1      -2.737 -10.830  15.325  0.00  0.00    +0.048 A 
ATOM     33  C   UNL     1      -4.295 -11.131  17.147  0.00  0.00    +0.030 A 
ATOM     34  C   UNL     1      -2.987 -11.047  16.681  0.00  0.00    +0.027 A 
ATOM     43  H   UNL     1      -6.259  -8.631  13.909  0.00  0.00    +0.123 HD
ENDROOT
BRANCH  33   8
ATOM      8  N   UNL     1      -4.545 -11.351  18.517  0.00  0.00    -0.333 N 
ATOM     36  C   UNL     1      -3.708 -12.259  19.277  0.00  0.00    +0.129 C 
BRANCH   8  35
ATOM     35  C   UNL     1      -5.634 -10.669  19.185  0.00  0.00    +0.111 C 
BRANCH  35  37
ATOM     37  C   UNL     1      -6.777 -11.636  19.493  0.00  0.00    +0.074 C 
BRANCH  37  38
ATOM      9  N   UNL     1      -9.124 -11.359  20.089  0.00  0.00    -0.260 NA
ATOM     38  C   UNL     1      -8.140 -11.049  19.215  0.00  0.00    +0.043 A 
ATOM     39  C   UNL     1      -8.316 -10.240  18.104  0.00  0.00    +0.023 A 
ATOM     40  C   UNL     1      -9.583  -9.715  17.875  0.00  0.00    +0.003 A 
ATOM     41  C   UNL     1     -10.342 -10.830  19.834  0.00  0.00    +0.111 A 
ATOM     42  C   UNL     1     -10.620 -10.011  18.753  0.00  0.00    +0.020 A 
ENDBRANCH  37  38
ENDBRANCH  35  37
ENDBRANCH   8  35
ENDBRANCH  33   8
BRANCH  10  13
ATOM     13  C   UNL     1      -4.463 -11.454   7.737  0.00  0.00    +0.100 C 
BRANCH  13  19
ATOM      1  O   UNL     1      -3.708 -13.687   7.399  0.00  0.00    -0.276 OA
ATOM      5  N   UNL     1      -4.740 -12.639   5.613  0.00  0.00    -0.296 N 
ATOM     16  C   UNL     1      -4.543 -13.722   4.647  0.00  0.00    +0.102 C 
ATOM     17  C   UNL     1      -4.821 -13.060   3.295  0.00  0.00    +0.026 C 
ATOM     18  C   UNL     1      -5.402 -11.493   4.994  0.00  0.00    +0.108 C 
ATOM     19  C   UNL     1      -4.262 -12.700   6.911  0.00  0.00    +0.216 C 
ATOM     20  C   UNL     1      -5.856 -11.994   3.632  0.00  0.00    +0.021 C 
BRANCH  16  22
ATOM     22  C   UNL     1      -5.485 -14.893   4.921  0.00  0.00    +0.181 C 
BRANCH  22   2
ATOM      2  O   UNL     1      -4.813 -16.095   4.597  0.00  0.00    -0.381 OA
ATOM     28  C   UNL     1      -3.411 -15.995   4.832  0.00  0.00    +0.194 C 
ENDBRANCH  22   2
ENDBRANCH  16  22
ENDBRANCH  13  19
ENDBRANCH  10  13
TORSDOF 8
ENDMDL
MODEL 2
REMARK VINA RESULT:      -7.2     22.539     27.287
REMARK  Name = 71694373
REMARK  10 active torsions:
REMARK  status: ('A' for Active; 'I' for Inactive)
REMARK    1  A    between atoms: O_2  and  C_22
REMARK    2  A    between atoms: O_2  and  C_28
REMARK    3  A    between atoms: N_8  and  C_33
REMARK    4  A    between atoms: N_8  and  C_35
REMARK    5  A    between atoms: N_8  and  C_36
REMARK    6  A    between atoms: C_10  and  C_13
REMARK    7  A    between atoms: C_13  and  C_19
REMARK    8  A    between atoms: C_16  and  C_22
REMARK    9  A    between atoms: C_35  and  C_37
REMARK   10  A    between atoms: C_37  and  C_38
REMARK                            x       y       z     vdW  Elec       q    Type
REMARK                         _______ _______ _______ _____ _____    ______ ____
ROOT
ATOM      3  O   UNL     1      10.955   3.002  -1.807  0.00  0.00    -0.274 OA
ATOM      4  O   UNL     1       8.188   7.527  -1.639  0.00  0.00    -0.488 OA
ATOM      6  N   UNL     1      11.410   4.837  -0.471  0.00  0.00    -0.300 N 
ATOM      7  N   UNL     1      10.056   5.885  -3.150  0.00  0.00    -0.304 NA
ATOM     10  C   UNL     1      10.032   5.955   1.840  0.00  0.00    +0.008 C 
ATOM     11  C   UNL     1      10.173   6.704   0.482  0.00  0.00    +0.032 C 
ATOM     12  C   UNL     1      10.134   4.432   1.592  0.00  0.00    +0.023 C 
ATOM     14  C   UNL     1      11.466   6.284  -0.242  0.00  0.00    +0.115 C 
ATOM     15  C   UNL     1      11.364   4.050   0.764  0.00  0.00    +0.108 C 
ATOM     21  C   UNL     1      10.066   8.202   0.590  0.00  0.00    -0.023 C 
ATOM     23  C   UNL     1      11.178   4.213  -1.697  0.00  0.00    +0.229 C 
ATOM     24  C   UNL     1       9.183   9.029   0.006  0.00  0.00    +0.010 C 
ATOM     25  C   UNL     1      11.238   5.049  -2.962  0.00  0.00    +0.178 C 
ATOM     26  C   UNL     1       8.060   8.774  -0.968  0.00  0.00    +0.256 C 
ATOM     27  C   UNL     1       8.780   5.175  -3.097  0.00  0.00    +0.120 C 
ATOM     29  C   UNL     1       7.612   6.089  -3.426  0.00  0.00    +0.010 A 
ATOM     30  C   UNL     1       7.329   7.252  -2.675  0.00  0.00    +0.125 A 
ATOM     31  C   UNL     1       6.771   5.751  -4.500  0.00  0.00    +0.031 A 
ATOM     32  C   UNL     1       6.221   8.041  -3.006  0.00  0.00    +0.048 A 
ATOM     33  C   UNL     1       5.674   6.547  -4.825  0.00  0.00    +0.030 A 
ATOM     34  C   UNL     1       5.399   7.688  -4.079  0.00  0.00    +0.027 A 
ATOM     43  H   UNL     1      10.140   6.366  -4.045  0.00  0.00    +0.123 HD
ENDROOT
BRANCH  33   8
ATOM      8  N   UNL     1       4.841   6.193  -5.906  0.00  0.00    -0.333 N 
ATOM     36  C   UNL     1       4.680   7.091  -7.032  0.00  0.00    +0.129 C 
BRANCH   8  35
ATOM     35  C   UNL     1       4.143   4.923  -5.911  0.00  0.00    +0.111 C 
BRANCH  35  37
ATOM     37  C   UNL     1       2.740   5.070  -5.320  0.00  0.00    +0.074 C 
BRANCH  37  38
ATOM      9  N   UNL     1       0.857   3.772  -4.479  0.00  0.00    -0.260 NA
ATOM     38  C   UNL     1       2.025   3.750  -5.160  0.00  0.00    +0.043 A 
ATOM     39  C   UNL     1       2.583   2.605  -5.707  0.00  0.00    +0.023 A 
ATOM     40  C   UNL     1       1.900   1.406  -5.542  0.00  0.00    +0.003 A 
ATOM     41  C   UNL     1       0.221   2.587  -4.341  0.00  0.00    +0.111 A 
ATOM     42  C   UNL     1       0.696   1.388  -4.848  0.00  0.00    +0.020 A 
ENDBRANCH  37  38
ENDBRANCH  35  37
ENDBRANCH   8  35
ENDBRANCH  33   8
BRANCH  10  13
ATOM     13  C   UNL     1      11.030   6.394   2.919  0.00  0.00    +0.100 C 
BRANCH  13  19
ATOM      1  O   UNL     1      10.666   4.878   4.719  0.00  0.00    -0.276 OA
ATOM      5  N   UNL     1       9.862   7.033   4.974  0.00  0.00    -0.296 N 
ATOM     16  C   UNL     1       9.211   6.816   6.267  0.00  0.00    +0.102 C 
ATOM     17  C   UNL     1       8.292   8.031   6.421  0.00  0.00    +0.026 C 
ATOM     18  C   UNL     1       9.650   8.398   4.497  0.00  0.00    +0.108 C 
ATOM     19  C   UNL     1      10.507   6.020   4.283  0.00  0.00    +0.216 C 
ATOM     20  C   UNL     1       9.039   9.133   5.680  0.00  0.00    +0.021 C 
BRANCH  16  22
ATOM     22  C   UNL     1      10.233   6.720   7.398  0.00  0.00    +0.181 C 
BRANCH  22   2
ATOM      2  O   UNL     1       9.643   6.022   8.478  0.00  0.00    -0.381 OA
ATOM     28  C   UNL     1       9.873   4.619   8.388  0.00  0.00    +0.194 C 
ENDBRANCH  22   2
ENDBRANCH  16  22
ENDBRANCH  13  19
ENDBRANCH  10  13
TORSDOF 8
ENDMDL
MODEL 3
REMARK VINA RESULT:      -7.1     29.960     33.395
REMARK  Name = 71694373
REMARK  10 active torsions:
REMARK  status: ('A' for Active; 'I' for Inactive)
REMARK    1  A    between atoms: O_2  and  C_22
REMARK    2  A    between atoms: O_2  and  C_28
REMARK    3  A    between atoms: N_8  and  C_33
REMARK    4  A    between atoms: N_8  and  C_35
REMARK    5  A    between atoms: N_8  and  C_36
REMARK    6  A    between atoms: C_10  and  C_13
REMARK    7  A    between atoms: C_13  and  C_19
REMARK    8  A    between atoms: C_16  and  C_22
REMARK    9  A    between atoms: C_35  and  C_37
REMARK   10  A    between atoms: C_37  and  C_38
REMARK                            x       y       z     vdW  Elec       q    Type
REMARK                         _______ _______ _______ _____ _____    ______ ____
ROOT
ATOM      3  O   UNL     1      17.445  12.698  23.081  0.00  0.00    -0.274 OA
ATOM      4  O   UNL     1      16.521   8.253  20.334  0.00  0.00    -0.488 OA
ATOM      6  N   UNL     1      15.588  12.258  21.770  0.00  0.00    -0.300 N 
ATOM      7  N   UNL     1      18.064  10.712  20.512  0.00  0.00    -0.304 NA
ATOM     10  C   UNL     1      13.347  10.428  22.116  0.00  0.00    +0.008 C 
ATOM     11  C   UNL     1      14.391  10.297  20.968  0.00  0.00    +0.032 C 
ATOM     12  C   UNL     1      13.990  11.186  23.301  0.00  0.00    +0.023 C 
ATOM     14  C   UNL     1      14.956  11.677  20.581  0.00  0.00    +0.115 C 
ATOM     15  C   UNL     1      14.653  12.498  22.873  0.00  0.00    +0.108 C 
ATOM     21  C   UNL     1      13.888   9.553  19.759  0.00  0.00    -0.023 C 
ATOM     23  C   UNL     1      16.960  12.374  21.990  0.00  0.00    +0.229 C 
ATOM     24  C   UNL     1      14.367   8.428  19.201  0.00  0.00    +0.010 C 
ATOM     25  C   UNL     1      17.907  12.128  20.829  0.00  0.00    +0.178 C 
ATOM     26  C   UNL     1      15.560   7.570  19.537  0.00  0.00    +0.256 C 
ATOM     27  C   UNL     1      18.446   9.863  21.638  0.00  0.00    +0.120 C 
ATOM     29  C   UNL     1      18.713   8.433  21.202  0.00  0.00    +0.010 A 
ATOM     30  C   UNL     1      17.730   7.644  20.564  0.00  0.00    +0.125 A 
ATOM     31  C   UNL     1      19.973   7.870  21.466  0.00  0.00    +0.031 A 
ATOM     32  C   UNL     1      18.022   6.321  20.210  0.00  0.00    +0.048 A 
ATOM     33  C   UNL     1      20.256   6.554  21.103  0.00  0.00    +0.030 A 
ATOM     34  C   UNL     1      19.282   5.781  20.479  0.00  0.00    +0.027 A 
ATOM     43  H   UNL     1      18.758  10.623  19.769  0.00  0.00    +0.123 HD
ENDROOT
BRANCH  33   8
ATOM      8  N   UNL     1      21.526   6.005  21.375  0.00  0.00    -0.333 N 
ATOM     36  C   UNL     1      22.728   6.765  21.094  0.00  0.00    +0.129 C 
BRANCH   8  35
ATOM     35  C   UNL     1      21.647   4.678  21.945  0.00  0.00    +0.111 C 
BRANCH  35  37
ATOM     37  C   UNL     1      22.373   3.736  20.985  0.00  0.00    +0.074 C 
BRANCH  37  38
ATOM      9  N   UNL     1      23.131   2.678  23.045  0.00  0.00    -0.260 NA
ATOM     38  C   UNL     1      23.182   2.677  21.694  0.00  0.00    +0.043 A 
ATOM     39  C   UNL     1      23.922   1.774  20.947  0.00  0.00    +0.023 A 
ATOM     40  C   UNL     1      24.656   0.811  21.630  0.00  0.00    +0.003 A 
ATOM     41  C   UNL     1      23.857   1.727  23.674  0.00  0.00    +0.111 A 
ATOM     42  C   UNL     1      24.628   0.781  23.020  0.00  0.00    +0.020 A 
ENDBRANCH  37  38
ENDBRANCH  35  37
ENDBRANCH   8  35
ENDBRANCH  33   8
BRANCH  10  13
ATOM     13  C   UNL     1      12.025  11.089  21.706  0.00  0.00    +0.100 C 
BRANCH  13  19
ATOM      1  O   UNL     1      10.845  10.542  23.700  0.00  0.00    -0.276 OA
ATOM      5  N   UNL     1      10.957  12.779  23.119  0.00  0.00    -0.296 N 
ATOM     16  C   UNL     1      10.110  13.276  24.205  0.00  0.00    +0.102 C 
ATOM     17  C   UNL     1       9.751  14.698  23.765  0.00  0.00    +0.026 C 
ATOM     18  C   UNL     1      11.381  13.866  22.239  0.00  0.00    +0.108 C 
ATOM     19  C   UNL     1      11.221  11.432  22.935  0.00  0.00    +0.216 C 
ATOM     20  C   UNL     1      10.971  15.138  22.965  0.00  0.00    +0.021 C 
BRANCH  16  22
ATOM     22  C   UNL     1      10.847  13.255  25.543  0.00  0.00    +0.181 C 
BRANCH  22   2
ATOM      2  O   UNL     1      10.418  14.366  26.308  0.00  0.00    -0.381 OA
ATOM     28  C   UNL     1      11.510  15.016  26.951  0.00  0.00    +0.194 C 
ENDBRANCH  22   2
ENDBRANCH  16  22
ENDBRANCH  13  19
ENDBRANCH  10  13
TORSDOF 8
ENDMDL
MODEL 4
REMARK VINA RESULT:      -7.0      3.713     11.548
REMARK  Name = 71694373
REMARK  10 active torsions:
REMARK  status: ('A' for Active; 'I' for Inactive)
REMARK    1  A    between atoms: O_2  and  C_22
REMARK    2  A    between atoms: O_2  and  C_28
REMARK    3  A    between atoms: N_8  and  C_33
REMARK    4  A    between atoms: N_8  and  C_35
REMARK    5  A    between atoms: N_8  and  C_36
REMARK    6  A    between atoms: C_10  and  C_13
REMARK    7  A    between atoms: C_13  and  C_19
REMARK    8  A    between atoms: C_16  and  C_22
REMARK    9  A    between atoms: C_35  and  C_37
REMARK   10  A    between atoms: C_37  and  C_38
REMARK                            x       y       z     vdW  Elec       q    Type
REMARK                         _______ _______ _______ _____ _____    ______ ____
ROOT
ATOM      3  O   UNL     1      -4.501 -12.080  17.052  0.00  0.00    -0.274 OA
ATOM      4  O   UNL     1      -8.683  -9.719  14.796  0.00  0.00    -0.488 OA
ATOM      6  N   UNL     1      -6.231 -11.009  18.158  0.00  0.00    -0.300 N 
ATOM      7  N   UNL     1      -5.830  -9.581  15.346  0.00  0.00    -0.304 NA
ATOM     10  C   UNL     1      -9.036 -11.706  18.525  0.00  0.00    +0.008 C 
ATOM     11  C   UNL     1      -8.561 -10.460  17.720  0.00  0.00    +0.032 C 
ATOM     12  C   UNL     1      -7.910 -12.767  18.528  0.00  0.00    +0.023 C 
ATOM     14  C   UNL     1      -7.221  -9.933  18.268  0.00  0.00    +0.115 C 
ATOM     15  C   UNL     1      -6.559 -12.191  18.959  0.00  0.00    +0.108 C 
ATOM     21  C   UNL     1      -9.585  -9.360  17.627  0.00  0.00    -0.023 C 
ATOM     23  C   UNL     1      -5.193 -11.070  17.228  0.00  0.00    +0.229 C 
ATOM     24  C   UNL     1     -10.145  -8.821  16.530  0.00  0.00    +0.010 C 
ATOM     25  C   UNL     1      -4.868  -9.829  16.416  0.00  0.00    +0.178 C 
ATOM     26  C   UNL     1      -9.923  -9.073  15.061  0.00  0.00    +0.256 C 
ATOM     27  C   UNL     1      -6.056 -10.706  14.443  0.00  0.00    +0.120 C 
ATOM     29  C   UNL     1      -6.968 -10.329  13.287  0.00  0.00    +0.010 A 
ATOM     30  C   UNL     1      -8.282  -9.850  13.490  0.00  0.00    +0.125 A 
ATOM     31  C   UNL     1      -6.495 -10.486  11.973  0.00  0.00    +0.031 A 
ATOM     32  C   UNL     1      -9.088  -9.546  12.386  0.00  0.00    +0.048 A 
ATOM     33  C   UNL     1      -7.304 -10.173  10.882  0.00  0.00    +0.030 A 
ATOM     34  C   UNL     1      -8.597  -9.706  11.089  0.00  0.00    +0.027 A 
ATOM     43  H   UNL     1      -5.513  -8.773  14.809  0.00  0.00    +0.123 HD
ENDROOT
BRANCH  33   8
ATOM      8  N   UNL     1      -6.812 -10.336   9.571  0.00  0.00    -0.333 N 
ATOM     36  C   UNL     1      -7.298 -11.415   8.734  0.00  0.00    +0.129 C 
BRANCH   8  35
ATOM     35  C   UNL     1      -5.820  -9.422   9.039  0.00  0.00    +0.111 C 
BRANCH  35  37
ATOM     37  C   UNL     1      -4.531 -10.163   8.683  0.00  0.00    +0.074 C 
BRANCH  37  38
ATOM      9  N   UNL     1      -3.751 -11.822  10.288  0.00  0.00    -0.260 NA
ATOM     38  C   UNL     1      -3.706 -10.530   9.893  0.00  0.00    +0.043 A 
ATOM     39  C   UNL     1      -2.959  -9.550  10.527  0.00  0.00    +0.023 A 
ATOM     40  C   UNL     1      -2.210  -9.920  11.638  0.00  0.00    +0.003 A 
ATOM     41  C   UNL     1      -3.010 -12.144  11.372  0.00  0.00    +0.111 A 
ATOM     42  C   UNL     1      -2.230 -11.240  12.075  0.00  0.00    +0.020 A 
ENDBRANCH  37  38
ENDBRANCH  35  37
ENDBRANCH   8  35
ENDBRANCH  33   8
BRANCH  10  13
ATOM     13  C   UNL     1      -9.497 -11.405  19.957  0.00  0.00    +0.100 C 
BRANCH  13  19
ATOM      1  O   UNL     1     -10.760 -13.390  20.324  0.00  0.00    -0.276 OA
ATOM      5  N   UNL     1     -11.897 -11.378  20.439  0.00  0.00    -0.296 N 
ATOM     16  C   UNL     1     -13.230 -11.951  20.640  0.00  0.00    +0.102 C 
ATOM     17  C   UNL     1     -14.176 -10.782  20.356  0.00  0.00    +0.026 C 
ATOM     18  C   UNL     1     -11.954  -9.920  20.367  0.00  0.00    +0.108 C 
ATOM     19  C   UNL     1     -10.769 -12.159  20.255  0.00  0.00    +0.216 C 
ATOM     20  C   UNL     1     -13.370  -9.563  20.791  0.00  0.00    +0.021 C 
BRANCH  16  22
ATOM     22  C   UNL     1     -13.396 -12.495  22.058  0.00  0.00    +0.181 C 
BRANCH  22   2
ATOM      2  O   UNL     1     -14.046 -13.749  21.984  0.00  0.00    -0.381 OA
ATOM     28  C   UNL     1     -13.212 -14.805  22.449  0.00  0.00    +0.194 C 
ENDBRANCH  22   2
ENDBRANCH  16  22
ENDBRANCH  13  19
ENDBRANCH  10  13
TORSDOF 8
ENDMDL
MODEL 5
REMARK VINA RESULT:      -6.9     23.967     28.081
REMARK  Name = 71694373
REMARK  10 active torsions:
REMARK  status: ('A' for Active; 'I' for Inactive)
REMARK    1  A    between atoms: O_2  and  C_22
REMARK    2  A    between atoms: O_2  and  C_28
REMARK    3  A    between atoms: N_8  and  C_33
REMARK    4  A    between atoms: N_8  and  C_35
REMARK    5  A    between atoms: N_8  and  C_36
REMARK    6  A    between atoms: C_10  and  C_13
REMARK    7  A    between atoms: C_13  and  C_19
REMARK    8  A    between atoms: C_16  and  C_22
REMARK    9  A    between atoms: C_35  and  C_37
REMARK   10  A    between atoms: C_37  and  C_38
REMARK                            x       y       z     vdW  Elec       q    Type
REMARK                         _______ _______ _______ _____ _____    ______ ____
ROOT
ATOM      3  O   UNL     1      17.448  -2.674  33.527  0.00  0.00    -0.274 OA
ATOM      4  O   UNL     1      14.473  -5.945  30.594  0.00  0.00    -0.488 OA
ATOM      6  N   UNL     1      18.071  -3.678  31.537  0.00  0.00    -0.300 N 
ATOM      7  N   UNL     1      16.042  -5.622  33.022  0.00  0.00    -0.304 NA
ATOM     10  C   UNL     1      17.207  -3.256  28.786  0.00  0.00    +0.008 C 
ATOM     11  C   UNL     1      16.962  -4.581  29.567  0.00  0.00    +0.032 C 
ATOM     12  C   UNL     1      17.360  -2.094  29.795  0.00  0.00    +0.023 C 
ATOM     14  C   UNL     1      18.072  -4.814  30.609  0.00  0.00    +0.115 C 
ATOM     15  C   UNL     1      18.381  -2.398  30.895  0.00  0.00    +0.108 C 
ATOM     21  C   UNL     1      16.774  -5.789  28.688  0.00  0.00    -0.023 C 
ATOM     23  C   UNL     1      17.600  -3.697  32.849  0.00  0.00    +0.229 C 
ATOM     24  C   UNL     1      15.717  -6.615  28.605  0.00  0.00    +0.010 C 
ATOM     25  C   UNL     1      17.293  -5.036  33.494  0.00  0.00    +0.178 C 
ATOM     26  C   UNL     1      14.416  -6.661  29.366  0.00  0.00    +0.256 C 
ATOM     27  C   UNL     1      14.872  -4.754  33.128  0.00  0.00    +0.120 C 
ATOM     29  C   UNL     1      13.594  -5.477  32.739  0.00  0.00    +0.010 A 
ATOM     30  C   UNL     1      13.414  -6.053  31.461  0.00  0.00    +0.125 A 
ATOM     31  C   UNL     1      12.549  -5.553  33.674  0.00  0.00    +0.031 A 
ATOM     32  C   UNL     1      12.203  -6.683  31.148  0.00  0.00    +0.048 A 
ATOM     33  C   UNL     1      11.350  -6.188  33.354  0.00  0.00    +0.030 A 
ATOM     34  C   UNL     1      11.178  -6.749  32.093  0.00  0.00    +0.027 A 
ATOM     43  H   UNL     1      15.873  -6.483  33.542  0.00  0.00    +0.123 HD
ENDROOT
BRANCH  33   8
ATOM      8  N   UNL     1      10.311  -6.256  34.305  0.00  0.00    -0.333 N 
ATOM     36  C   UNL     1      10.586  -6.692  35.660  0.00  0.00    +0.129 C 
BRANCH   8  35
ATOM     35  C   UNL     1       8.959  -5.883  33.945  0.00  0.00    +0.111 C 
BRANCH  35  37
ATOM     37  C   UNL     1       7.981  -7.020  34.242  0.00  0.00    +0.074 C 
BRANCH  37  38
ATOM      9  N   UNL     1       8.463  -8.910  32.782  0.00  0.00    -0.260 NA
ATOM     38  C   UNL     1       7.656  -7.854  33.027  0.00  0.00    +0.043 A 
ATOM     39  C   UNL     1       6.571  -7.507  32.237  0.00  0.00    +0.023 A 
ATOM     40  C   UNL     1       6.298  -8.295  31.124  0.00  0.00    +0.003 A 
ATOM     41  C   UNL     1       8.166  -9.653  31.692  0.00  0.00    +0.111 A 
ATOM     42  C   UNL     1       7.106  -9.390  30.840  0.00  0.00    +0.020 A 
ENDBRANCH  37  38
ENDBRANCH  35  37
ENDBRANCH   8  35
ENDBRANCH  33   8
BRANCH  10  13
ATOM     13  C   UNL     1      18.398  -3.293  27.821  0.00  0.00    +0.100 C 
BRANCH  13  19
ATOM      1  O   UNL     1      17.484  -1.821  26.187  0.00  0.00    -0.276 OA
ATOM      5  N   UNL     1      18.074  -3.945  25.483  0.00  0.00    -0.296 N 
ATOM     16  C   UNL     1      17.590  -3.806  24.108  0.00  0.00    +0.102 C 
ATOM     17  C   UNL     1      17.544  -5.245  23.590  0.00  0.00    +0.026 C 
ATOM     18  C   UNL     1      18.607  -5.284  25.723  0.00  0.00    +0.108 C 
ATOM     19  C   UNL     1      17.940  -2.941  26.428  0.00  0.00    +0.216 C 
ATOM     20  C   UNL     1      18.677  -5.928  24.347  0.00  0.00    +0.021 C 
BRANCH  16  22
ATOM     22  C   UNL     1      18.518  -2.923  23.276  0.00  0.00    +0.181 C 
BRANCH  22   2
ATOM      2  O   UNL     1      17.755  -2.305  22.257  0.00  0.00    -0.381 OA
ATOM     28  C   UNL     1      16.816  -1.377  22.790  0.00  0.00    +0.194 C 
ENDBRANCH  22   2
ENDBRANCH  16  22
ENDBRANCH  13  19
ENDBRANCH  10  13
TORSDOF 8
ENDMDL
MODEL 6
REMARK VINA RESULT:      -6.9      5.576     14.751
REMARK  Name = 71694373
REMARK  10 active torsions:
REMARK  status: ('A' for Active; 'I' for Inactive)
REMARK    1  A    between atoms: O_2  and  C_22
REMARK    2  A    between atoms: O_2  and  C_28
REMARK    3  A    between atoms: N_8  and  C_33
REMARK    4  A    between atoms: N_8  and  C_35
REMARK    5  A    between atoms: N_8  and  C_36
REMARK    6  A    between atoms: C_10  and  C_13
REMARK    7  A    between atoms: C_13  and  C_19
REMARK    8  A    between atoms: C_16  and  C_22
REMARK    9  A    between atoms: C_35  and  C_37
REMARK   10  A    between atoms: C_37  and  C_38
REMARK                            x       y       z     vdW  Elec       q    Type
REMARK                         _______ _______ _______ _____ _____    ______ ____
ROOT
ATOM      3  O   UNL     1      -5.940 -12.295   1.850  0.00  0.00    -0.274 OA
ATOM      4  O   UNL     1      -1.616 -14.455   4.039  0.00  0.00    -0.488 OA
ATOM      6  N   UNL     1      -5.783 -13.185   3.981  0.00  0.00    -0.300 N 
ATOM      7  N   UNL     1      -3.766 -14.771   2.104  0.00  0.00    -0.304 NA
ATOM     10  C   UNL     1      -4.400 -12.273   6.378  0.00  0.00    +0.008 C 
ATOM     11  C   UNL     1      -4.034 -13.587   5.625  0.00  0.00    +0.032 C 
ATOM     12  C   UNL     1      -5.082 -11.297   5.391  0.00  0.00    +0.023 C 
ATOM     14  C   UNL     1      -5.273 -14.181   4.929  0.00  0.00    +0.115 C 
ATOM     15  C   UNL     1      -6.234 -11.946   4.620  0.00  0.00    +0.108 C 
ATOM     21  C   UNL     1      -3.340 -14.614   6.480  0.00  0.00    -0.023 C 
ATOM     23  C   UNL     1      -5.661 -13.243   2.593  0.00  0.00    +0.229 C 
ATOM     24  C   UNL     1      -2.125 -15.164   6.318  0.00  0.00    +0.010 C 
ATOM     25  C   UNL     1      -5.200 -14.541   1.955  0.00  0.00    +0.178 C 
ATOM     26  C   UNL     1      -1.082 -14.998   5.241  0.00  0.00    +0.256 C 
ATOM     27  C   UNL     1      -2.912 -13.676   1.648  0.00  0.00    +0.120 C 
ATOM     29  C   UNL     1      -1.439 -14.042   1.717  0.00  0.00    +0.010 A 
ATOM     30  C   UNL     1      -0.812 -14.415   2.927  0.00  0.00    +0.125 A 
ATOM     31  C   UNL     1      -0.672 -13.982   0.542  0.00  0.00    +0.031 A 
ATOM     32  C   UNL     1       0.556 -14.713   2.937  0.00  0.00    +0.048 A 
ATOM     33  C   UNL     1       0.688 -14.287   0.562  0.00  0.00    +0.030 A 
ATOM     34  C   UNL     1       1.300 -14.650   1.757  0.00  0.00    +0.027 A 
ATOM     43  H   UNL     1      -3.522 -15.623   1.600  0.00  0.00    +0.123 HD
ENDROOT
BRANCH  33   8
ATOM      8  N   UNL     1       1.442 -14.222  -0.628  0.00  0.00    -0.333 N 
ATOM     36  C   UNL     1       2.877 -14.427  -0.598  0.00  0.00    +0.129 C 
BRANCH   8  35
ATOM     35  C   UNL     1       0.793 -13.959  -1.896  0.00  0.00    +0.111 C 
BRANCH  35  37
ATOM     37  C   UNL     1       1.708 -14.326  -3.064  0.00  0.00    +0.074 C 
BRANCH  37  38
ATOM      9  N   UNL     1       2.378 -13.548  -5.274  0.00  0.00    -0.260 NA
ATOM     38  C   UNL     1       1.854 -13.214  -4.074  0.00  0.00    +0.043 A 
ATOM     39  C   UNL     1       1.454 -11.931  -3.733  0.00  0.00    +0.023 A 
ATOM     40  C   UNL     1       1.602 -10.929  -4.685  0.00  0.00    +0.003 A 
ATOM     41  C   UNL     1       2.506 -12.547  -6.174  0.00  0.00    +0.111 A 
ATOM     42  C   UNL     1       2.136 -11.235  -5.931  0.00  0.00    +0.020 A 
ENDBRANCH  37  38
ENDBRANCH  35  37
ENDBRANCH   8  35
ENDBRANCH  33   8
BRANCH  10  13
ATOM     13  C   UNL     1      -5.268 -12.473   7.626  0.00  0.00    +0.100 C 
BRANCH  13  19
ATOM      1  O   UNL     1      -3.677 -12.498   9.398  0.00  0.00    -0.276 OA
ATOM      5  N   UNL     1      -5.030 -10.628   9.219  0.00  0.00    -0.296 N 
ATOM     16  C   UNL     1      -4.538  -9.951  10.421  0.00  0.00    +0.102 C 
ATOM     17  C   UNL     1      -5.588  -8.869  10.685  0.00  0.00    +0.026 C 
ATOM     18  C   UNL     1      -6.093  -9.860   8.577  0.00  0.00    +0.108 C 
ATOM     19  C   UNL     1      -4.579 -11.879   8.830  0.00  0.00    +0.216 C 
ATOM     20  C   UNL     1      -6.088  -8.516   9.289  0.00  0.00    +0.021 C 
BRANCH  16  22
ATOM     22  C   UNL     1      -3.146  -9.362  10.201  0.00  0.00    +0.181 C 
BRANCH  22   2
ATOM      2  O   UNL     1      -2.298  -9.817  11.238  0.00  0.00    -0.381 OA
ATOM     28  C   UNL     1      -1.009  -9.215  11.168  0.00  0.00    +0.194 C 
ENDBRANCH  22   2
ENDBRANCH  16  22
ENDBRANCH  13  19
ENDBRANCH  10  13
TORSDOF 8
ENDMDL
MODEL 7
REMARK VINA RESULT:      -6.8     23.447     27.216
REMARK  Name = 71694373
REMARK  10 active torsions:
REMARK  status: ('A' for Active; 'I' for Inactive)
REMARK    1  A    between atoms: O_2  and  C_22
REMARK    2  A    between atoms: O_2  and  C_28
REMARK    3  A    between atoms: N_8  and  C_33
REMARK    4  A    between atoms: N_8  and  C_35
REMARK    5  A    between atoms: N_8  and  C_36
REMARK    6  A    between atoms: C_10  and  C_13
REMARK    7  A    between atoms: C_13  and  C_19
REMARK    8  A    between atoms: C_16  and  C_22
REMARK    9  A    between atoms: C_35  and  C_37
REMARK   10  A    between atoms: C_37  and  C_38
REMARK                            x       y       z     vdW  Elec       q    Type
REMARK                         _______ _______ _______ _____ _____    ______ ____
ROOT
ATOM      3  O   UNL     1       8.227   8.811  -0.019  0.00  0.00    -0.274 OA
ATOM      4  O   UNL     1       4.472  11.172   2.894  0.00  0.00    -0.488 OA
ATOM      6  N   UNL     1       8.530   9.842   2.032  0.00  0.00    -0.300 N 
ATOM      7  N   UNL     1       6.157  11.329   0.527  0.00  0.00    -0.304 NA
ATOM     10  C   UNL     1       7.692   9.109   4.725  0.00  0.00    +0.008 C 
ATOM     11  C   UNL     1       7.174  10.375   3.981  0.00  0.00    +0.032 C 
ATOM     12  C   UNL     1       8.147   8.060   3.682  0.00  0.00    +0.023 C 
ATOM     14  C   UNL     1       8.234  10.905   2.998  0.00  0.00    +0.115 C 
ATOM     15  C   UNL     1       9.107   8.641   2.641  0.00  0.00    +0.108 C 
ATOM     21  C   UNL     1       6.679  11.466   4.893  0.00  0.00    -0.023 C 
ATOM     23  C   UNL     1       8.113   9.811   0.701  0.00  0.00    +0.229 C 
ATOM     24  C   UNL     1       5.457  12.021   4.958  0.00  0.00    +0.010 C 
ATOM     25  C   UNL     1       7.525  11.070   0.091  0.00  0.00    +0.178 C 
ATOM     26  C   UNL     1       4.208  11.800   4.143  0.00  0.00    +0.256 C 
ATOM     27  C   UNL     1       5.225  10.219   0.339  0.00  0.00    +0.120 C 
ATOM     29  C   UNL     1       3.801  10.610   0.697  0.00  0.00    +0.010 A 
ATOM     30  C   UNL     1       3.448  11.071   1.985  0.00  0.00    +0.125 A 
ATOM     31  C   UNL     1       2.800  10.484  -0.280  0.00  0.00    +0.031 A 
ATOM     32  C   UNL     1       2.113  11.388   2.267  0.00  0.00    +0.048 A 
ATOM     33  C   UNL     1       1.476  10.809   0.009  0.00  0.00    +0.030 A 
ATOM     34  C   UNL     1       1.134  11.258   1.280  0.00  0.00    +0.027 A 
ATOM     43  H   UNL     1       5.810  12.151   0.031  0.00  0.00    +0.123 HD
ENDROOT
BRANCH  33   8
ATOM      8  N   UNL     1       0.484  10.677  -0.984  0.00  0.00    -0.333 N 
ATOM     36  C   UNL     1       0.840  10.738  -2.388  0.00  0.00    +0.129 C 
BRANCH   8  35
ATOM     35  C   UNL     1      -0.902  10.472  -0.616  0.00  0.00    +0.111 C 
BRANCH  35  37
ATOM     37  C   UNL     1      -1.560   9.433  -1.524  0.00  0.00    +0.074 C 
BRANCH  37  38
ATOM      9  N   UNL     1      -3.991   9.598  -1.563  0.00  0.00    -0.260 NA
ATOM     38  C   UNL     1      -2.830   9.932  -2.170  0.00  0.00    +0.043 A 
ATOM     39  C   UNL     1      -2.750  10.691  -3.327  0.00  0.00    +0.023 A 
ATOM     40  C   UNL     1      -3.937  11.135  -3.897  0.00  0.00    +0.003 A 
ATOM     41  C   UNL     1      -5.125  10.048  -2.147  0.00  0.00    +0.111 A 
ATOM     42  C   UNL     1      -5.151  10.812  -3.302  0.00  0.00    +0.020 A 
ENDBRANCH  37  38
ENDBRANCH  35  37
ENDBRANCH   8  35
ENDBRANCH  33   8
BRANCH  10  13
ATOM     13  C   UNL     1       8.808   9.377   5.742  0.00  0.00    +0.100 C 
BRANCH  13  19
ATOM      1  O   UNL     1       8.085   7.750   7.324  0.00  0.00    -0.276 OA
ATOM      5  N   UNL     1      10.261   7.582   6.554  0.00  0.00    -0.296 N 
ATOM     16  C   UNL     1      10.653   6.458   7.407  0.00  0.00    +0.102 C 
ATOM     17  C   UNL     1      12.181   6.448   7.318  0.00  0.00    +0.026 C 
ATOM     18  C   UNL     1      11.380   8.038   5.733  0.00  0.00    +0.108 C 
ATOM     19  C   UNL     1       9.006   8.165   6.617  0.00  0.00    +0.216 C 
ATOM     20  C   UNL     1      12.455   6.977   5.915  0.00  0.00    +0.021 C 
BRANCH  16  22
ATOM     22  C   UNL     1      10.039   5.147   6.922  0.00  0.00    +0.181 C 
BRANCH  22   2
ATOM      2  O   UNL     1       9.941   4.263   8.023  0.00  0.00    -0.381 OA
ATOM     28  C   UNL     1       9.355   4.895   9.157  0.00  0.00    +0.194 C 
ENDBRANCH  22   2
ENDBRANCH  16  22
ENDBRANCH  13  19
ENDBRANCH  10  13
TORSDOF 8
ENDMDL
MODEL 8
REMARK VINA RESULT:      -6.7     25.180     27.224
REMARK  Name = 71694373
REMARK  10 active torsions:
REMARK  status: ('A' for Active; 'I' for Inactive)
REMARK    1  A    between atoms: O_2  and  C_22
REMARK    2  A    between atoms: O_2  and  C_28
REMARK    3  A    between atoms: N_8  and  C_33
REMARK    4  A    between atoms: N_8  and  C_35
REMARK    5  A    between atoms: N_8  and  C_36
REMARK    6  A    between atoms: C_10  and  C_13
REMARK    7  A    between atoms: C_13  and  C_19
REMARK    8  A    between atoms: C_16  and  C_22
REMARK    9  A    between atoms: C_35  and  C_37
REMARK   10  A    between atoms: C_37  and  C_38
REMARK                            x       y       z     vdW  Elec       q    Type
REMARK                         _______ _______ _______ _____ _____    ______ ____
ROOT
ATOM      3  O   UNL     1      15.721   8.426   1.986  0.00  0.00    -0.274 OA
ATOM      4  O   UNL     1      11.330   5.999   3.715  0.00  0.00    -0.488 OA
ATOM      6  N   UNL     1      15.073   6.257   1.501  0.00  0.00    -0.300 N 
ATOM      7  N   UNL     1      13.982   6.982   4.397  0.00  0.00    -0.304 NA
ATOM     10  C   UNL     1      12.912   5.187  -0.134  0.00  0.00    +0.008 C 
ATOM     11  C   UNL     1      12.996   4.990   1.409  0.00  0.00    +0.032 C 
ATOM     12  C   UNL     1      13.697   6.460  -0.527  0.00  0.00    +0.023 C 
ATOM     14  C   UNL     1      14.463   4.977   1.878  0.00  0.00    +0.115 C 
ATOM     15  C   UNL     1      15.114   6.482   0.054  0.00  0.00    +0.108 C 
ATOM     21  C   UNL     1      12.247   3.788   1.919  0.00  0.00    -0.023 C 
ATOM     23  C   UNL     1      15.382   7.301   2.373  0.00  0.00    +0.229 C 
ATOM     24  C   UNL     1      11.236   3.738   2.803  0.00  0.00    +0.010 C 
ATOM     25  C   UNL     1      15.340   7.039   3.867  0.00  0.00    +0.178 C 
ATOM     26  C   UNL     1      10.551   4.813   3.609  0.00  0.00    +0.256 C 
ATOM     27  C   UNL     1      13.144   8.138   4.083  0.00  0.00    +0.120 C 
ATOM     29  C   UNL     1      11.794   8.062   4.775  0.00  0.00    +0.010 A 
ATOM     30  C   UNL     1      10.899   6.988   4.564  0.00  0.00    +0.125 A 
ATOM     31  C   UNL     1      11.414   9.107   5.633  0.00  0.00    +0.031 A 
ATOM     32  C   UNL     1       9.654   6.986   5.205  0.00  0.00    +0.048 A 
ATOM     33  C   UNL     1      10.175   9.091   6.272  0.00  0.00    +0.030 A 
ATOM     34  C   UNL     1       9.298   8.034   6.057  0.00  0.00    +0.027 A 
ATOM     43  H   UNL     1      14.035   6.867   5.409  0.00  0.00    +0.123 HD
ENDROOT
BRANCH  33   8
ATOM      8  N   UNL     1       9.811  10.148   7.130  0.00  0.00    -0.333 N 
ATOM     36  C   UNL     1       9.331  11.403   6.586  0.00  0.00    +0.129 C 
BRANCH   8  35
ATOM     35  C   UNL     1       9.904   9.992   8.568  0.00  0.00    +0.111 C 
BRANCH  35  37
ATOM     37  C   UNL     1      10.791  11.077   9.179  0.00  0.00    +0.074 C 
BRANCH  37  38
ATOM      9  N   UNL     1      11.150  11.927  11.434  0.00  0.00    -0.260 NA
ATOM     38  C   UNL     1      10.246  11.627  10.475  0.00  0.00    +0.043 A 
ATOM     39  C   UNL     1       8.877  11.794  10.619  0.00  0.00    +0.023 A 
ATOM     40  C   UNL     1       8.407  12.302  11.824  0.00  0.00    +0.003 A 
ATOM     41  C   UNL     1      10.655  12.419  12.592  0.00  0.00    +0.111 A 
ATOM     42  C   UNL     1       9.307  12.624  12.834  0.00  0.00    +0.020 A 
ENDBRANCH  37  38
ENDBRANCH  35  37
ENDBRANCH   8  35
ENDBRANCH  33   8
BRANCH  10  13
ATOM     13  C   UNL     1      13.386   3.984  -0.959  0.00  0.00    +0.100 C 
BRANCH  13  19
ATOM      1  O   UNL     1      11.265   2.950  -1.278  0.00  0.00    -0.276 OA
ATOM      5  N   UNL     1      12.412   3.615  -3.175  0.00  0.00    -0.296 N 
ATOM     16  C   UNL     1      11.454   3.082  -4.145  0.00  0.00    +0.102 C 
ATOM     17  C   UNL     1      12.230   3.086  -5.464  0.00  0.00    +0.026 C 
ATOM     18  C   UNL     1      13.563   4.218  -3.844  0.00  0.00    +0.108 C 
ATOM     19  C   UNL     1      12.252   3.465  -1.807  0.00  0.00    +0.216 C 
ATOM     20  C   UNL     1      13.173   4.274  -5.313  0.00  0.00    +0.021 C 
BRANCH  16  22
ATOM     22  C   UNL     1      10.192   3.940  -4.215  0.00  0.00    +0.181 C 
BRANCH  22   2
ATOM      2  O   UNL     1       9.136   3.237  -3.588  0.00  0.00    -0.381 OA
ATOM     28  C   UNL     1       9.250   1.831  -3.783  0.00  0.00    +0.194 C 
ENDBRANCH  22   2
ENDBRANCH  16  22
ENDBRANCH  13  19
ENDBRANCH  10  13
TORSDOF 8
ENDMDL
MODEL 9
REMARK VINA RESULT:      -6.7     23.562     27.633
REMARK  Name = 71694373
REMARK  10 active torsions:
REMARK  status: ('A' for Active; 'I' for Inactive)
REMARK    1  A    between atoms: O_2  and  C_22
REMARK    2  A    between atoms: O_2  and  C_28
REMARK    3  A    between atoms: N_8  and  C_33
REMARK    4  A    between atoms: N_8  and  C_35
REMARK    5  A    between atoms: N_8  and  C_36
REMARK    6  A    between atoms: C_10  and  C_13
REMARK    7  A    between atoms: C_13  and  C_19
REMARK    8  A    between atoms: C_16  and  C_22
REMARK    9  A    between atoms: C_35  and  C_37
REMARK   10  A    between atoms: C_37  and  C_38
REMARK                            x       y       z     vdW  Elec       q    Type
REMARK                         _______ _______ _______ _____ _____    ______ ____
ROOT
ATOM      3  O   UNL     1      10.518   7.221  -1.978  0.00  0.00    -0.274 OA
ATOM      4  O   UNL     1       6.760   9.307   1.133  0.00  0.00    -0.488 OA
ATOM      6  N   UNL     1      10.747   7.790   0.255  0.00  0.00    -0.300 N 
ATOM      7  N   UNL     1       8.628   9.768  -1.048  0.00  0.00    -0.304 NA
ATOM     10  C   UNL     1       9.648   6.620   2.687  0.00  0.00    +0.008 C 
ATOM     11  C   UNL     1       9.295   8.053   2.190  0.00  0.00    +0.032 C 
ATOM     12  C   UNL     1      10.093   5.761   1.480  0.00  0.00    +0.023 C 
ATOM     14  C   UNL     1      10.468   8.663   1.399  0.00  0.00    +0.115 C 
ATOM     15  C   UNL     1      11.175   6.441   0.637  0.00  0.00    +0.108 C 
ATOM     21  C   UNL     1       8.824   8.984   3.276  0.00  0.00    -0.023 C 
ATOM     23  C   UNL     1      10.433   8.064  -1.076  0.00  0.00    +0.229 C 
ATOM     24  C   UNL     1       7.650   9.630   3.382  0.00  0.00    +0.010 C 
ATOM     25  C   UNL     1      10.000   9.470  -1.448  0.00  0.00    +0.178 C 
ATOM     26  C   UNL     1       6.453   9.696   2.467  0.00  0.00    +0.256 C 
ATOM     27  C   UNL     1       7.625   8.813  -1.514  0.00  0.00    +0.120 C 
ATOM     29  C   UNL     1       6.215   9.260  -1.168  0.00  0.00    +0.010 A 
ATOM     30  C   UNL     1       5.803   9.488   0.165  0.00  0.00    +0.125 A 
ATOM     31  C   UNL     1       5.285   9.429  -2.206  0.00  0.00    +0.031 A 
ATOM     32  C   UNL     1       4.482   9.871   0.428  0.00  0.00    +0.048 A 
ATOM     33  C   UNL     1       3.974   9.816  -1.934  0.00  0.00    +0.030 A 
ATOM     34  C   UNL     1       3.574  10.035  -0.620  0.00  0.00    +0.027 A 
ATOM     43  H   UNL     1       8.390  10.701  -1.385  0.00  0.00    +0.123 HD
ENDROOT
BRANCH  33   8
ATOM      8  N   UNL     1       3.053   9.981  -2.989  0.00  0.00    -0.333 N 
ATOM     36  C   UNL     1       3.370   9.500  -4.320  0.00  0.00    +0.129 C 
BRANCH   8  35
ATOM     35  C   UNL     1       1.777  10.626  -2.757  0.00  0.00    +0.111 C 
BRANCH  35  37
ATOM     37  C   UNL     1       0.856  10.466  -3.967  0.00  0.00    +0.074 C 
BRANCH  37  38
ATOM      9  N   UNL     1      -1.420  11.173  -4.472  0.00  0.00    -0.260 NA
ATOM     38  C   UNL     1      -0.609  10.524  -3.607  0.00  0.00    +0.043 A 
ATOM     39  C   UNL     1      -1.044   9.924  -2.436  0.00  0.00    +0.023 A 
ATOM     40  C   UNL     1      -2.399   9.995  -2.133  0.00  0.00    +0.003 A 
ATOM     41  C   UNL     1      -2.731  11.220  -4.144  0.00  0.00    +0.111 A 
ATOM     42  C   UNL     1      -3.265  10.654  -2.998  0.00  0.00    +0.020 A 
ENDBRANCH  37  38
ENDBRANCH  35  37
ENDBRANCH   8  35
ENDBRANCH  33   8
BRANCH  10  13
ATOM     13  C   UNL     1      10.701   6.572   3.801  0.00  0.00    +0.100 C 
BRANCH  13  19
ATOM      1  O   UNL     1       9.865   4.693   5.003  0.00  0.00    -0.276 OA
ATOM      5  N   UNL     1       9.925   6.720   6.118  0.00  0.00    -0.296 N 
ATOM     16  C   UNL     1       9.285   6.251   7.349  0.00  0.00    +0.102 C 
ATOM     17  C   UNL     1       8.887   7.543   8.068  0.00  0.00    +0.026 C 
ATOM     18  C   UNL     1      10.216   8.150   6.185  0.00  0.00    +0.108 C 
ATOM     19  C   UNL     1      10.125   5.898   5.021  0.00  0.00    +0.216 C 
ATOM     20  C   UNL     1       9.962   8.532   7.635  0.00  0.00    +0.021 C 
BRANCH  16  22
ATOM     22  C   UNL     1      10.238   5.397   8.184  0.00  0.00    +0.181 C 
BRANCH  22   2
ATOM      2  O   UNL     1       9.514   4.301   8.710  0.00  0.00    -0.381 OA
ATOM     28  C   UNL     1       9.175   4.500  10.079  0.00  0.00    +0.194 C 
ENDBRANCH  22   2
ENDBRANCH  16  22
ENDBRANCH  13  19
ENDBRANCH  10  13
TORSDOF 8
ENDMDL
MODEL 10
REMARK VINA RESULT:      -6.7      2.530     11.267
REMARK  Name = 71694373
REMARK  10 active torsions:
REMARK  status: ('A' for Active; 'I' for Inactive)
REMARK    1  A    between atoms: O_2  and  C_22
REMARK    2  A    between atoms: O_2  and  C_28
REMARK    3  A    between atoms: N_8  and  C_33
REMARK    4  A    between atoms: N_8  and  C_35
REMARK    5  A    between atoms: N_8  and  C_36
REMARK    6  A    between atoms: C_10  and  C_13
REMARK    7  A    between atoms: C_13  and  C_19
REMARK    8  A    between atoms: C_16  and  C_22
REMARK    9  A    between atoms: C_35  and  C_37
REMARK   10  A    between atoms: C_37  and  C_38
REMARK                            x       y       z     vdW  Elec       q    Type
REMARK                         _______ _______ _______ _____ _____    ______ ____
ROOT
ATOM      3  O   UNL     1      -5.569 -15.446  12.065  0.00  0.00    -0.274 OA
ATOM      4  O   UNL     1      -4.358 -10.906   9.601  0.00  0.00    -0.488 OA
ATOM      6  N   UNL     1      -4.235 -13.748  12.900  0.00  0.00    -0.300 N 
ATOM      7  N   UNL     1      -3.920 -13.779   9.737  0.00  0.00    -0.304 NA
ATOM     10  C   UNL     1      -4.856 -11.050  13.809  0.00  0.00    +0.008 C 
ATOM     11  C   UNL     1      -3.973 -11.352  12.561  0.00  0.00    +0.032 C 
ATOM     12  C   UNL     1      -5.798 -12.249  14.065  0.00  0.00    +0.023 C 
ATOM     14  C   UNL     1      -3.232 -12.692  12.727  0.00  0.00    +0.115 C 
ATOM     15  C   UNL     1      -5.054 -13.587  14.104  0.00  0.00    +0.108 C 
ATOM     21  C   UNL     1      -3.023 -10.243  12.195  0.00  0.00    -0.023 C 
ATOM     23  C   UNL     1      -4.592 -14.698  11.943  0.00  0.00    +0.229 C 
ATOM     24  C   UNL     1      -2.944  -9.545  11.049  0.00  0.00    +0.010 C 
ATOM     25  C   UNL     1      -3.723 -14.851  10.708  0.00  0.00    +0.178 C 
ATOM     26  C   UNL     1      -3.708  -9.650   9.754  0.00  0.00    +0.256 C 
ATOM     27  C   UNL     1      -5.306 -13.558   9.330  0.00  0.00    +0.120 C 
ATOM     29  C   UNL     1      -5.412 -12.518   8.228  0.00  0.00    +0.010 A 
ATOM     30  C   UNL     1      -4.942 -11.195   8.392  0.00  0.00    +0.125 A 
ATOM     31  C   UNL     1      -6.020 -12.879   7.014  0.00  0.00    +0.031 A 
ATOM     32  C   UNL     1      -5.093 -10.270   7.352  0.00  0.00    +0.048 A 
ATOM     33  C   UNL     1      -6.159 -11.952   5.982  0.00  0.00    +0.030 A 
ATOM     34  C   UNL     1      -5.698 -10.651   6.152  0.00  0.00    +0.027 A 
ATOM     43  H   UNL     1      -3.353 -13.982   8.913  0.00  0.00    +0.123 HD
ENDROOT
BRANCH  33   8
ATOM      8  N   UNL     1      -6.771 -12.332   4.770  0.00  0.00    -0.333 N 
ATOM     36  C   UNL     1      -7.956 -13.168   4.778  0.00  0.00    +0.129 C 
BRANCH   8  35
ATOM     35  C   UNL     1      -6.229 -11.887   3.502  0.00  0.00    +0.111 C 
BRANCH  35  37
ATOM     37  C   UNL     1      -5.371 -12.979   2.862  0.00  0.00    +0.074 C 
BRANCH  37  38
ATOM      9  N   UNL     1      -4.305 -14.735   4.171  0.00  0.00    -0.260 NA
ATOM     38  C   UNL     1      -4.250 -13.450   3.756  0.00  0.00    +0.043 A 
ATOM     39  C   UNL     1      -3.240 -12.565   4.101  0.00  0.00    +0.023 A 
ATOM     40  C   UNL     1      -2.221 -13.030   4.925  0.00  0.00    +0.003 A 
ATOM     41  C   UNL     1      -3.297 -15.151   4.971  0.00  0.00    +0.111 A 
ATOM     42  C   UNL     1      -2.243 -14.346   5.373  0.00  0.00    +0.020 A 
ENDBRANCH  37  38
ENDBRANCH  35  37
ENDBRANCH   8  35
ENDBRANCH  33   8
BRANCH  10  13
ATOM     13  C   UNL     1      -4.070 -10.700  15.078  0.00  0.00    +0.100 C 
BRANCH  13  19
ATOM      1  O   UNL     1      -5.775  -9.279  15.941  0.00  0.00    -0.276 OA
ATOM      5  N   UNL     1      -4.962 -10.928  17.347  0.00  0.00    -0.296 N 
ATOM     16  C   UNL     1      -5.741 -10.542  18.525  0.00  0.00    +0.102 C 
ATOM     17  C   UNL     1      -5.054 -11.282  19.676  0.00  0.00    +0.026 C 
ATOM     18  C   UNL     1      -4.081 -12.056  17.642  0.00  0.00    +0.108 C 
ATOM     19  C   UNL     1      -5.016 -10.228  16.153  0.00  0.00    +0.216 C 
ATOM     20  C   UNL     1      -4.522 -12.546  19.012  0.00  0.00    +0.021 C 
BRANCH  16  22
ATOM     22  C   UNL     1      -7.209 -10.940  18.379  0.00  0.00    +0.181 C 
BRANCH  22   2
ATOM      2  O   UNL     1      -7.772 -11.060  19.671  0.00  0.00    -0.381 OA
ATOM     28  C   UNL     1      -8.792 -12.054  19.712  0.00  0.00    +0.194 C 
ENDBRANCH  22   2
ENDBRANCH  16  22
ENDBRANCH  13  19
ENDBRANCH  10  13
TORSDOF 8
ENDMDL
