REMARK  Name = 75367746
REMARK  8 active torsions:
REMARK  status: ('A' for Active; 'I' for Inactive)
REMARK    1  A    between atoms: S_1  and  N_8
REMARK    2  A    between atoms: S_1  and  C_14
REMARK    3  A    between atoms: O_3  and  C_10
REMARK    4  A    between atoms: O_3  and  C_15
REMARK    5  A    between atoms: O_6  and  C_20
REMARK    6  A    between atoms: O_6  and  C_26
REMARK    7  A    between atoms: O_7  and  C_25
REMARK    8  A    between atoms: O_7  and  C_27
REMARK                            x       y       z     vdW  Elec       q    Type
REMARK                         _______ _______ _______ _____ _____    ______ ____
ROOT
ATOM      2  O   UNL     1       0.275  -3.210   0.665  0.00  0.00    -0.375 OA
ATOM      8  N   UNL     1       0.650  -0.196   1.071  0.00  0.00    -0.171 NA
ATOM      9  C   UNL     1       0.062  -0.489  -0.271  0.00  0.00    +0.156 C 
ATOM     10  C   UNL     1      -1.196  -1.338  -0.102  0.00  0.00    +0.215 C 
ATOM     11  C   UNL     1       1.404  -1.338   1.669  0.00  0.00    +0.137 C 
ATOM     12  C   UNL     1      -0.920  -2.841  -0.010  0.00  0.00    +0.205 C 
ATOM     13  C   UNL     1       0.500  -2.542   1.900  0.00  0.00    +0.177 C 
ENDROOT
BRANCH   8   1
ATOM      1  S   UNL     1       1.421   1.331   1.215  0.00  0.00    +0.061 S 
ATOM      4  O   UNL     1       1.755   1.558   2.603  0.00  0.00    -0.153 OA
ATOM      5  O   UNL     1       0.669   2.305   0.456  0.00  0.00    -0.153 OA
BRANCH   1  14
ATOM     14  C   UNL     1       2.919   0.999   0.343  0.00  0.00    +0.106 A 
ATOM     16  C   UNL     1       2.993   1.229  -1.030  0.00  0.00    +0.032 A 
ATOM     17  C   UNL     1       4.030   0.508   1.029  0.00  0.00    +0.032 A 
ATOM     18  C   UNL     1       4.179   0.969  -1.718  0.00  0.00    +0.047 A 
ATOM     19  C   UNL     1       5.216   0.247   0.341  0.00  0.00    +0.047 A 
ATOM     20  C   UNL     1       5.290   0.478  -1.032  0.00  0.00    +0.120 A 
BRANCH  20   6
ATOM      6  O   UNL     1       6.446   0.224  -1.704  0.00  0.00    -0.495 OA
ATOM     26  C   UNL     1       7.543  -0.277  -0.940  0.00  0.00    +0.277 C 
ENDBRANCH  20   6
ENDBRANCH   1  14
ENDBRANCH   8   1
BRANCH  10   3
ATOM      3  O   UNL     1      -2.063  -1.100  -1.210  0.00  0.00    -0.485 OA
BRANCH   3  15
ATOM     15  C   UNL     1      -3.285  -0.554  -0.924  0.00  0.00    +0.121 A 
ATOM     21  C   UNL     1      -3.364   0.690  -0.300  0.00  0.00    +0.049 A 
ATOM     22  C   UNL     1      -4.451  -1.244  -1.257  0.00  0.00    +0.049 A 
ATOM     23  C   UNL     1      -4.610   1.246  -0.009  0.00  0.00    +0.049 A 
ATOM     24  C   UNL     1      -5.697  -0.688  -0.966  0.00  0.00    +0.049 A 
ATOM     25  C   UNL     1      -5.776   0.557  -0.342  0.00  0.00    +0.120 A 
BRANCH  25   7
ATOM      7  O   UNL     1      -6.992   1.099  -0.057  0.00  0.00    -0.495 OA
ATOM     27  C   UNL     1      -7.000   2.375   0.582  0.00  0.00    +0.277 C 
ENDBRANCH  25   7
ENDBRANCH   3  15
ENDBRANCH  10   3
TORSDOF 6
