MODEL 1
REMARK VINA RESULT:      -5.6      0.000      0.000
REMARK  Name = 75536743
REMARK  6 active torsions:
REMARK  status: ('A' for Active; 'I' for Inactive)
REMARK    1  A    between atoms: O_2  and  C_9
REMARK    2  A    between atoms: N_5  and  C_8
REMARK    3  A    between atoms: N_5  and  C_13
REMARK    4  A    between atoms: N_5  and  C_14
REMARK    5  A    between atoms: N_6  and  C_12
REMARK    6  A    between atoms: C_10  and  C_12
REMARK                            x       y       z     vdW  Elec       q    Type
REMARK                         _______ _______ _______ _____ _____    ______ ____
ROOT
ATOM     12  C   UNL     1      16.451   8.826  21.271  0.00  0.00    +0.140 C 
ENDROOT
BRANCH  12   6
ATOM      3  O   UNL     1      21.889   5.474  21.889  0.00  0.00    -0.377 OA
ATOM      4  O   UNL     1      17.612   6.759  19.756  0.00  0.00    -0.253 OA
ATOM      6  N   UNL     1      17.627   8.069  21.640  0.00  0.00    -0.297 N 
ATOM      7  N   UNL     1      19.281   6.410  21.329  0.00  0.00    -0.281 N 
ATOM     15  C   UNL     1      18.139   7.060  20.833  0.00  0.00    +0.302 C 
ATOM     16  C   UNL     1      19.877   6.600  22.659  0.00  0.00    +0.137 C 
ATOM     17  C   UNL     1      19.884   5.329  20.547  0.00  0.00    +0.137 C 
ATOM     18  C   UNL     1      21.399   6.628  22.573  0.00  0.00    +0.179 C 
ATOM     19  C   UNL     1      21.401   5.437  20.546  0.00  0.00    +0.179 C 
ATOM     20  H   UNL     1      18.043   8.304  22.529  0.00  0.00    +0.150 HD
ENDBRANCH  12   6
BRANCH  12  10
ATOM      1  O   UNL     1      14.338   9.396  22.300  0.00  0.00    -0.371 OA
ATOM      8  C   UNL     1      13.013   7.508  21.733  0.00  0.00    +0.113 C 
ATOM      9  C   UNL     1      14.388   7.354  21.110  0.00  0.00    +0.164 C 
ATOM     10  C   UNL     1      15.210   8.302  21.971  0.00  0.00    +0.165 C 
ATOM     11  C   UNL     1      12.983   8.998  22.028  0.00  0.00    +0.181 C 
BRANCH   8   5
ATOM      5  N   UNL     1      11.928   7.080  20.867  0.00  0.00    -0.301 NA
ATOM     13  C   UNL     1      11.000   8.185  20.609  0.00  0.00    +0.105 C 
ATOM     14  C   UNL     1      11.208   5.946  21.455  0.00  0.00    +0.105 C 
ENDBRANCH   8   5
BRANCH   9   2
ATOM      2  O   UNL     1      14.871   6.026  21.176  0.00  0.00    -0.388 OA
ATOM     21  H   UNL     1      15.688   6.025  21.703  0.00  0.00    +0.210 HD
ENDBRANCH   9   2
ENDBRANCH  12  10
TORSDOF 4
ENDMDL
MODEL 2
REMARK VINA RESULT:      -5.5      4.763      7.831
REMARK  Name = 75536743
REMARK  6 active torsions:
REMARK  status: ('A' for Active; 'I' for Inactive)
REMARK    1  A    between atoms: O_2  and  C_9
REMARK    2  A    between atoms: N_5  and  C_8
REMARK    3  A    between atoms: N_5  and  C_13
REMARK    4  A    between atoms: N_5  and  C_14
REMARK    5  A    between atoms: N_6  and  C_12
REMARK    6  A    between atoms: C_10  and  C_12
REMARK                            x       y       z     vdW  Elec       q    Type
REMARK                         _______ _______ _______ _____ _____    ______ ____
ROOT
ATOM     12  C   UNL     1      10.701   8.504  22.157  0.00  0.00    +0.140 C 
ENDROOT
BRANCH  12   6
ATOM      3  O   UNL     1      12.457  14.674  22.372  0.00  0.00    -0.377 OA
ATOM      4  O   UNL     1      10.950  10.356  24.261  0.00  0.00    -0.253 OA
ATOM      6  N   UNL     1      10.970   9.918  22.009  0.00  0.00    -0.297 N 
ATOM      7  N   UNL     1      11.334  12.115  22.799  0.00  0.00    -0.281 N 
ATOM     15  C   UNL     1      11.078  10.768  23.103  0.00  0.00    +0.302 C 
ATOM     16  C   UNL     1      11.350  12.712  21.456  0.00  0.00    +0.137 C 
ATOM     17  C   UNL     1      11.457  13.083  23.891  0.00  0.00    +0.137 C 
ATOM     18  C   UNL     1      12.496  13.709  21.320  0.00  0.00    +0.179 C 
ATOM     19  C   UNL     1      12.612  14.041  23.644  0.00  0.00    +0.179 C 
ATOM     20  H   UNL     1      11.056  10.255  21.061  0.00  0.00    +0.150 HD
ENDBRANCH  12   6
BRANCH  12  10
ATOM      1  O   UNL     1      10.646   8.543  19.740  0.00  0.00    -0.371 OA
ATOM      8  C   UNL     1      12.586   7.281  19.204  0.00  0.00    +0.113 C 
ATOM      9  C   UNL     1      12.484   7.417  20.712  0.00  0.00    +0.164 C 
ATOM     10  C   UNL     1      11.007   7.744  20.879  0.00  0.00    +0.165 C 
ATOM     11  C   UNL     1      11.670   8.401  18.739  0.00  0.00    +0.181 C 
BRANCH   8   5
ATOM      5  N   UNL     1      13.942   7.411  18.696  0.00  0.00    -0.301 NA
ATOM     13  C   UNL     1      14.666   8.466  19.411  0.00  0.00    +0.105 C 
ATOM     14  C   UNL     1      13.935   7.692  17.257  0.00  0.00    +0.105 C 
ENDBRANCH   8   5
BRANCH   9   2
ATOM      2  O   UNL     1      12.843   6.229  21.392  0.00  0.00    -0.388 OA
ATOM     21  H   UNL     1      13.223   6.473  22.252  0.00  0.00    +0.210 HD
ENDBRANCH   9   2
ENDBRANCH  12  10
TORSDOF 4
ENDMDL
MODEL 3
REMARK VINA RESULT:      -5.5      3.672      7.134
REMARK  Name = 75536743
REMARK  6 active torsions:
REMARK  status: ('A' for Active; 'I' for Inactive)
REMARK    1  A    between atoms: O_2  and  C_9
REMARK    2  A    between atoms: N_5  and  C_8
REMARK    3  A    between atoms: N_5  and  C_13
REMARK    4  A    between atoms: N_5  and  C_14
REMARK    5  A    between atoms: N_6  and  C_12
REMARK    6  A    between atoms: C_10  and  C_12
REMARK                            x       y       z     vdW  Elec       q    Type
REMARK                         _______ _______ _______ _____ _____    ______ ____
ROOT
ATOM     12  C   UNL     1      11.082   8.428  19.913  0.00  0.00    +0.140 C 
ENDROOT
BRANCH  12   6
ATOM      3  O   UNL     1      13.215  12.845  24.053  0.00  0.00    -0.377 OA
ATOM      4  O   UNL     1      10.387   9.066  22.563  0.00  0.00    -0.253 OA
ATOM      6  N   UNL     1      11.566   9.568  20.660  0.00  0.00    -0.297 N 
ATOM      7  N   UNL     1      11.723  10.963  22.562  0.00  0.00    -0.281 N 
ATOM     15  C   UNL     1      11.173   9.813  21.971  0.00  0.00    +0.302 C 
ATOM     16  C   UNL     1      12.540  11.980  21.883  0.00  0.00    +0.137 C 
ATOM     17  C   UNL     1      11.358  11.303  23.938  0.00  0.00    +0.137 C 
ATOM     18  C   UNL     1      13.693  12.430  22.773  0.00  0.00    +0.179 C 
ATOM     19  C   UNL     1      12.574  11.760  24.728  0.00  0.00    +0.179 C 
ATOM     20  H   UNL     1      12.194  10.186  20.167  0.00  0.00    +0.150 HD
ENDBRANCH  12   6
BRANCH  12  10
ATOM      1  O   UNL     1      13.088   8.230  18.577  0.00  0.00    -0.371 OA
ATOM      8  C   UNL     1      14.404   6.774  19.916  0.00  0.00    +0.113 C 
ATOM      9  C   UNL     1      13.101   7.067  20.636  0.00  0.00    +0.164 C 
ATOM     10  C   UNL     1      12.222   7.523  19.480  0.00  0.00    +0.165 C 
ATOM     11  C   UNL     1      14.452   7.910  18.908  0.00  0.00    +0.181 C 
BRANCH   8   5
ATOM      5  N   UNL     1      15.562   6.747  20.793  0.00  0.00    -0.301 NA
ATOM     13  C   UNL     1      15.604   7.945  21.637  0.00  0.00    +0.105 C 
ATOM     14  C   UNL     1      16.801   6.635  20.017  0.00  0.00    +0.105 C 
ENDBRANCH   8   5
BRANCH   9   2
ATOM      2  O   UNL     1      12.570   5.928  21.286  0.00  0.00    -0.388 OA
ATOM     21  H   UNL     1      11.913   6.227  21.937  0.00  0.00    +0.210 HD
ENDBRANCH   9   2
ENDBRANCH  12  10
TORSDOF 4
ENDMDL
MODEL 4
REMARK VINA RESULT:      -5.3      5.230      7.340
REMARK  Name = 75536743
REMARK  6 active torsions:
REMARK  status: ('A' for Active; 'I' for Inactive)
REMARK    1  A    between atoms: O_2  and  C_9
REMARK    2  A    between atoms: N_5  and  C_8
REMARK    3  A    between atoms: N_5  and  C_13
REMARK    4  A    between atoms: N_5  and  C_14
REMARK    5  A    between atoms: N_6  and  C_12
REMARK    6  A    between atoms: C_10  and  C_12
REMARK                            x       y       z     vdW  Elec       q    Type
REMARK                         _______ _______ _______ _____ _____    ______ ____
ROOT
ATOM     12  C   UNL     1      11.685   8.882  16.972  0.00  0.00    +0.140 C 
ENDROOT
BRANCH  12   6
ATOM      3  O   UNL     1      15.712  13.103  14.296  0.00  0.00    -0.377 OA
ATOM      4  O   UNL     1      13.845   8.608  15.190  0.00  0.00    -0.253 OA
ATOM      6  N   UNL     1      12.594   9.937  16.580  0.00  0.00    -0.297 N 
ATOM      7  N   UNL     1      14.440  10.839  15.413  0.00  0.00    -0.281 N 
ATOM     15  C   UNL     1      13.639   9.719  15.691  0.00  0.00    +0.302 C 
ATOM     16  C   UNL     1      14.359  12.148  16.076  0.00  0.00    +0.137 C 
ATOM     17  C   UNL     1      15.570  10.699  14.492  0.00  0.00    +0.137 C 
ATOM     18  C   UNL     1      14.522  13.279  15.066  0.00  0.00    +0.179 C 
ATOM     19  C   UNL     1      15.654  11.887  13.547  0.00  0.00    +0.179 C 
ATOM     20  H   UNL     1      12.435  10.838  17.005  0.00  0.00    +0.150 HD
ENDBRANCH  12   6
BRANCH  12  10
ATOM      1  O   UNL     1      11.829   7.128  18.630  0.00  0.00    -0.371 OA
ATOM      8  C   UNL     1      13.278   8.114  20.234  0.00  0.00    +0.113 C 
ATOM      9  C   UNL     1      13.113   9.066  19.064  0.00  0.00    +0.164 C 
ATOM     10  C   UNL     1      11.818   8.554  18.448  0.00  0.00    +0.165 C 
ATOM     11  C   UNL     1      12.822   6.801  19.619  0.00  0.00    +0.181 C 
BRANCH   8   5
ATOM      5  N   UNL     1      14.635   8.055  20.751  0.00  0.00    -0.301 NA
ATOM     13  C   UNL     1      15.200   6.714  20.581  0.00  0.00    +0.105 C 
ATOM     14  C   UNL     1      14.671   8.440  22.166  0.00  0.00    +0.105 C 
ENDBRANCH   8   5
BRANCH   9   2
ATOM      2  O   UNL     1      13.006  10.417  19.471  0.00  0.00    -0.388 OA
ATOM     21  H   UNL     1      12.530  10.443  20.318  0.00  0.00    +0.210 HD
ENDBRANCH   9   2
ENDBRANCH  12  10
TORSDOF 4
ENDMDL
MODEL 5
REMARK VINA RESULT:      -5.0     26.822     28.894
REMARK  Name = 75536743
REMARK  6 active torsions:
REMARK  status: ('A' for Active; 'I' for Inactive)
REMARK    1  A    between atoms: O_2  and  C_9
REMARK    2  A    between atoms: N_5  and  C_8
REMARK    3  A    between atoms: N_5  and  C_13
REMARK    4  A    between atoms: N_5  and  C_14
REMARK    5  A    between atoms: N_6  and  C_12
REMARK    6  A    between atoms: C_10  and  C_12
REMARK                            x       y       z     vdW  Elec       q    Type
REMARK                         _______ _______ _______ _____ _____    ______ ____
ROOT
ATOM     12  C   UNL     1      -4.354 -11.459  17.861  0.00  0.00    +0.140 C 
ENDROOT
BRANCH  12   6
ATOM      3  O   UNL     1      -3.021 -10.881  11.609  0.00  0.00    -0.377 OA
ATOM      4  O   UNL     1      -2.026 -10.739  16.455  0.00  0.00    -0.253 OA
ATOM      6  N   UNL     1      -4.267 -11.231  16.435  0.00  0.00    -0.297 N 
ATOM      7  N   UNL     1      -3.150 -10.682  14.426  0.00  0.00    -0.281 N 
ATOM     15  C   UNL     1      -3.075 -10.876  15.815  0.00  0.00    +0.302 C 
ATOM     16  C   UNL     1      -4.377 -10.677  13.617  0.00  0.00    +0.137 C 
ATOM     17  C   UNL     1      -1.942 -10.300  13.692  0.00  0.00    +0.137 C 
ATOM     18  C   UNL     1      -4.158 -11.405  12.295  0.00  0.00    +0.179 C 
ATOM     19  C   UNL     1      -1.834 -11.066  12.383  0.00  0.00    +0.179 C 
ATOM     20  H   UNL     1      -5.129 -11.326  15.918  0.00  0.00    +0.150 HD
ENDBRANCH  12   6
BRANCH  12  10
ATOM      1  O   UNL     1      -6.446 -10.312  17.462  0.00  0.00    -0.371 OA
ATOM      8  C   UNL     1      -7.623 -10.765  19.475  0.00  0.00    +0.113 C 
ATOM      9  C   UNL     1      -6.279 -11.469  19.518  0.00  0.00    +0.164 C 
ATOM     10  C   UNL     1      -5.498 -10.675  18.480  0.00  0.00    +0.165 C 
ATOM     11  C   UNL     1      -7.773 -10.495  17.987  0.00  0.00    +0.181 C 
BRANCH   8   5
ATOM      5  N   UNL     1      -8.713 -11.555  20.020  0.00  0.00    -0.301 NA
ATOM     13  C   UNL     1      -8.717 -12.903  19.444  0.00  0.00    +0.105 C 
ATOM     14  C   UNL     1     -10.003 -10.902  19.777  0.00  0.00    +0.105 C 
ENDBRANCH   8   5
BRANCH   9   2
ATOM      2  O   UNL     1      -5.672 -11.409  20.794  0.00  0.00    -0.388 OA
ATOM     21  H   UNL     1      -5.765 -12.279  21.217  0.00  0.00    +0.210 HD
ENDBRANCH   9   2
ENDBRANCH  12  10
TORSDOF 4
ENDMDL
MODEL 6
REMARK VINA RESULT:      -5.0      5.539      6.933
REMARK  Name = 75536743
REMARK  6 active torsions:
REMARK  status: ('A' for Active; 'I' for Inactive)
REMARK    1  A    between atoms: O_2  and  C_9
REMARK    2  A    between atoms: N_5  and  C_8
REMARK    3  A    between atoms: N_5  and  C_13
REMARK    4  A    between atoms: N_5  and  C_14
REMARK    5  A    between atoms: N_6  and  C_12
REMARK    6  A    between atoms: C_10  and  C_12
REMARK                            x       y       z     vdW  Elec       q    Type
REMARK                         _______ _______ _______ _____ _____    ______ ____
ROOT
ATOM     12  C   UNL     1      12.999   9.811  15.938  0.00  0.00    +0.140 C 
ENDROOT
BRANCH  12   6
ATOM      3  O   UNL     1      17.899  13.953  15.757  0.00  0.00    -0.377 OA
ATOM      4  O   UNL     1      15.191  10.115  14.200  0.00  0.00    -0.253 OA
ATOM      6  N   UNL     1      14.109  10.719  16.131  0.00  0.00    -0.297 N 
ATOM      7  N   UNL     1      16.165  11.731  15.550  0.00  0.00    -0.281 N 
ATOM     15  C   UNL     1      15.157  10.809  15.222  0.00  0.00    +0.302 C 
ATOM     16  C   UNL     1      16.277  12.480  16.810  0.00  0.00    +0.137 C 
ATOM     17  C   UNL     1      17.310  11.887  14.652  0.00  0.00    +0.137 C 
ATOM     18  C   UNL     1      16.712  13.918  16.549  0.00  0.00    +0.179 C 
ATOM     19  C   UNL     1      17.673  13.354  14.479  0.00  0.00    +0.179 C 
ATOM     20  H   UNL     1      14.088  11.271  16.976  0.00  0.00    +0.150 HD
ENDBRANCH  12   6
BRANCH  12  10
ATOM      1  O   UNL     1      14.229   8.727  17.716  0.00  0.00    -0.371 OA
ATOM      8  C   UNL     1      12.536   7.393  18.715  0.00  0.00    +0.113 C 
ATOM      9  C   UNL     1      11.925   8.210  17.591  0.00  0.00    +0.164 C 
ATOM     10  C   UNL     1      13.161   8.552  16.770  0.00  0.00    +0.165 C 
ATOM     11  C   UNL     1      13.825   8.156  18.973  0.00  0.00    +0.181 C 
BRANCH   8   5
ATOM      5  N   UNL     1      11.690   7.297  19.892  0.00  0.00    -0.301 NA
ATOM     13  C   UNL     1      11.074   8.591  20.198  0.00  0.00    +0.105 C 
ATOM     14  C   UNL     1      12.457   6.820  21.047  0.00  0.00    +0.105 C 
ENDBRANCH   8   5
BRANCH   9   2
ATOM      2  O   UNL     1      10.978   7.477  16.838  0.00  0.00    -0.388 OA
ATOM     21  H   UNL     1      10.470   8.103  16.294  0.00  0.00    +0.210 HD
ENDBRANCH   9   2
ENDBRANCH  12  10
TORSDOF 4
ENDMDL
MODEL 7
REMARK VINA RESULT:      -4.9      5.594      7.169
REMARK  Name = 75536743
REMARK  6 active torsions:
REMARK  status: ('A' for Active; 'I' for Inactive)
REMARK    1  A    between atoms: O_2  and  C_9
REMARK    2  A    between atoms: N_5  and  C_8
REMARK    3  A    between atoms: N_5  and  C_13
REMARK    4  A    between atoms: N_5  and  C_14
REMARK    5  A    between atoms: N_6  and  C_12
REMARK    6  A    between atoms: C_10  and  C_12
REMARK                            x       y       z     vdW  Elec       q    Type
REMARK                         _______ _______ _______ _____ _____    ______ ____
ROOT
ATOM     12  C   UNL     1      11.193   9.183  22.343  0.00  0.00    +0.140 C 
ENDROOT
BRANCH  12   6
ATOM      3  O   UNL     1      14.213   9.622  16.696  0.00  0.00    -0.377 OA
ATOM      4  O   UNL     1      10.491   8.418  19.728  0.00  0.00    -0.253 OA
ATOM      6  N   UNL     1      12.066   9.220  21.190  0.00  0.00    -0.297 N 
ATOM      7  N   UNL     1      12.605   8.911  18.910  0.00  0.00    -0.281 N 
ATOM     15  C   UNL     1      11.641   8.824  19.928  0.00  0.00    +0.302 C 
ATOM     16  C   UNL     1      14.028   9.236  19.090  0.00  0.00    +0.137 C 
ATOM     17  C   UNL     1      12.247   8.507  17.549  0.00  0.00    +0.137 C 
ATOM     18  C   UNL     1      14.516  10.164  17.982  0.00  0.00    +0.179 C 
ATOM     19  C   UNL     1      12.801   9.485  16.525  0.00  0.00    +0.179 C 
ATOM     20  H   UNL     1      13.010   9.535  21.361  0.00  0.00    +0.150 HD
ENDBRANCH  12   6
BRANCH  12  10
ATOM      1  O   UNL     1      10.982  10.561  24.318  0.00  0.00    -0.371 OA
ATOM      8  C   UNL     1      11.845  12.633  23.541  0.00  0.00    +0.113 C 
ATOM      9  C   UNL     1      11.953  11.604  22.432  0.00  0.00    +0.164 C 
ATOM     10  C   UNL     1      10.925  10.576  22.882  0.00  0.00    +0.165 C 
ATOM     11  C   UNL     1      11.674  11.742  24.761  0.00  0.00    +0.181 C 
BRANCH   8   5
ATOM      5  N   UNL     1      13.001  13.509  23.639  0.00  0.00    -0.301 NA
ATOM     13  C   UNL     1      14.246  12.738  23.578  0.00  0.00    +0.105 C 
ATOM     14  C   UNL     1      12.956  14.295  24.876  0.00  0.00    +0.105 C 
ENDBRANCH   8   5
BRANCH   9   2
ATOM      2  O   UNL     1      11.643  12.140  21.160  0.00  0.00    -0.388 OA
ATOM     21  H   UNL     1      11.213  13.002  21.288  0.00  0.00    +0.210 HD
ENDBRANCH   9   2
ENDBRANCH  12  10
TORSDOF 4
ENDMDL
MODEL 8
REMARK VINA RESULT:      -4.9     31.321     33.094
REMARK  Name = 75536743
REMARK  6 active torsions:
REMARK  status: ('A' for Active; 'I' for Inactive)
REMARK    1  A    between atoms: O_2  and  C_9
REMARK    2  A    between atoms: N_5  and  C_8
REMARK    3  A    between atoms: N_5  and  C_13
REMARK    4  A    between atoms: N_5  and  C_14
REMARK    5  A    between atoms: N_6  and  C_12
REMARK    6  A    between atoms: C_10  and  C_12
REMARK                            x       y       z     vdW  Elec       q    Type
REMARK                         _______ _______ _______ _____ _____    ______ ____
ROOT
ATOM     12  C   UNL     1     -14.285   4.250  34.212  0.00  0.00    +0.140 C 
ENDROOT
BRANCH  12   6
ATOM      3  O   UNL     1     -15.287   0.385  29.186  0.00  0.00    -0.377 OA
ATOM      4  O   UNL     1     -14.488   1.456  33.951  0.00  0.00    -0.253 OA
ATOM      6  N   UNL     1     -14.365   3.523  32.964  0.00  0.00    -0.297 N 
ATOM      7  N   UNL     1     -14.526   1.575  31.635  0.00  0.00    -0.281 N 
ATOM     15  C   UNL     1     -14.464   2.137  32.921  0.00  0.00    +0.302 C 
ATOM     16  C   UNL     1     -14.352   2.295  30.365  0.00  0.00    +0.137 C 
ATOM     17  C   UNL     1     -14.624   0.121  31.495  0.00  0.00    +0.137 C 
ATOM     18  C   UNL     1     -15.351   1.805  29.323  0.00  0.00    +0.179 C 
ATOM     19  C   UNL     1     -15.627  -0.258  30.417  0.00  0.00    +0.179 C 
ATOM     20  H   UNL     1     -14.327   4.081  32.123  0.00  0.00    +0.150 HD
ENDBRANCH  12   6
BRANCH  12  10
ATOM      1  O   UNL     1     -13.743   6.489  34.944  0.00  0.00    -0.371 OA
ATOM      8  C   UNL     1     -13.857   7.695  32.900  0.00  0.00    +0.113 C 
ATOM      9  C   UNL     1     -14.117   6.225  32.624  0.00  0.00    +0.164 C 
ATOM     10  C   UNL     1     -14.527   5.734  34.006  0.00  0.00    +0.165 C 
ATOM     11  C   UNL     1     -13.190   7.630  34.264  0.00  0.00    +0.181 C 
BRANCH   8   5
ATOM      5  N   UNL     1     -13.029   8.340  31.895  0.00  0.00    -0.301 NA
ATOM     13  C   UNL     1     -11.744   8.752  32.466  0.00  0.00    +0.105 C 
ATOM     14  C   UNL     1     -13.718   9.498  31.318  0.00  0.00    +0.105 C 
ENDBRANCH   8   5
BRANCH   9   2
ATOM      2  O   UNL     1     -15.138   6.023  31.667  0.00  0.00    -0.388 OA
ATOM     21  H   UNL     1     -14.858   5.312  31.067  0.00  0.00    +0.210 HD
ENDBRANCH   9   2
ENDBRANCH  12  10
TORSDOF 4
ENDMDL
MODEL 9
REMARK VINA RESULT:      -4.9     32.705     33.837
REMARK  Name = 75536743
REMARK  6 active torsions:
REMARK  status: ('A' for Active; 'I' for Inactive)
REMARK    1  A    between atoms: O_2  and  C_9
REMARK    2  A    between atoms: N_5  and  C_8
REMARK    3  A    between atoms: N_5  and  C_13
REMARK    4  A    between atoms: N_5  and  C_14
REMARK    5  A    between atoms: N_6  and  C_12
REMARK    6  A    between atoms: C_10  and  C_12
REMARK                            x       y       z     vdW  Elec       q    Type
REMARK                         _______ _______ _______ _____ _____    ______ ____
ROOT
ATOM     12  C   UNL     1     -14.891   1.209  31.028  0.00  0.00    +0.140 C 
ENDROOT
BRANCH  12   6
ATOM      3  O   UNL     1     -14.100   6.728  34.209  0.00  0.00    -0.377 OA
ATOM      4  O   UNL     1     -14.954   1.874  33.761  0.00  0.00    -0.253 OA
ATOM      6  N   UNL     1     -14.840   2.549  31.571  0.00  0.00    -0.297 N 
ATOM      7  N   UNL     1     -14.825   4.146  33.313  0.00  0.00    -0.281 N 
ATOM     15  C   UNL     1     -14.876   2.793  32.939  0.00  0.00    +0.302 C 
ATOM     16  C   UNL     1     -14.883   5.299  32.404  0.00  0.00    +0.137 C 
ATOM     17  C   UNL     1     -14.865   4.496  34.734  0.00  0.00    +0.137 C 
ATOM     18  C   UNL     1     -13.902   6.383  32.838  0.00  0.00    +0.179 C 
ATOM     19  C   UNL     1     -13.867   5.599  35.053  0.00  0.00    +0.179 C 
ATOM     20  H   UNL     1     -14.794   3.299  30.897  0.00  0.00    +0.150 HD
ENDBRANCH  12   6
BRANCH  12  10
ATOM      1  O   UNL     1     -16.338   0.340  29.296  0.00  0.00    -0.371 OA
ATOM      8  C   UNL     1     -16.507   2.209  27.840  0.00  0.00    +0.113 C 
ATOM      9  C   UNL     1     -15.666   2.593  29.043  0.00  0.00    +0.164 C 
ATOM     10  C   UNL     1     -15.233   1.223  29.548  0.00  0.00    +0.165 C 
ATOM     11  C   UNL     1     -17.225   0.974  28.358  0.00  0.00    +0.181 C 
BRANCH   8   5
ATOM      5  N   UNL     1     -17.420   3.255  27.409  0.00  0.00    -0.301 NA
ATOM     13  C   UNL     1     -16.789   4.113  26.402  0.00  0.00    +0.105 C 
ATOM     14  C   UNL     1     -17.864   4.061  28.549  0.00  0.00    +0.105 C 
ENDBRANCH   8   5
BRANCH   9   2
ATOM      2  O   UNL     1     -14.559   3.403  28.698  0.00  0.00    -0.388 OA
ATOM     21  H   UNL     1     -14.173   3.757  29.517  0.00  0.00    +0.210 HD
ENDBRANCH   9   2
ENDBRANCH  12  10
TORSDOF 4
ENDMDL
MODEL 10
REMARK VINA RESULT:      -4.9     27.153     28.863
REMARK  Name = 75536743
REMARK  6 active torsions:
REMARK  status: ('A' for Active; 'I' for Inactive)
REMARK    1  A    between atoms: O_2  and  C_9
REMARK    2  A    between atoms: N_5  and  C_8
REMARK    3  A    between atoms: N_5  and  C_13
REMARK    4  A    between atoms: N_5  and  C_14
REMARK    5  A    between atoms: N_6  and  C_12
REMARK    6  A    between atoms: C_10  and  C_12
REMARK                            x       y       z     vdW  Elec       q    Type
REMARK                         _______ _______ _______ _____ _____    ______ ____
ROOT
ATOM     12  C   UNL     1      -2.202 -11.218  13.428  0.00  0.00    +0.140 C 
ENDROOT
BRANCH  12   6
ATOM      3  O   UNL     1      -5.175  -9.598   7.975  0.00  0.00    -0.377 OA
ATOM      4  O   UNL     1      -3.252 -12.724  11.295  0.00  0.00    -0.253 OA
ATOM      6  N   UNL     1      -2.714 -10.679  12.187  0.00  0.00    -0.297 N 
ATOM      7  N   UNL     1      -3.672 -10.825  10.031  0.00  0.00    -0.281 N 
ATOM     15  C   UNL     1      -3.218 -11.494  11.179  0.00  0.00    +0.302 C 
ATOM     16  C   UNL     1      -3.528  -9.389   9.751  0.00  0.00    +0.137 C 
ATOM     17  C   UNL     1      -4.212 -11.605   8.916  0.00  0.00    +0.137 C 
ATOM     18  C   UNL     1      -4.798  -8.830   9.118  0.00  0.00    +0.179 C 
ATOM     19  C   UNL     1      -5.460 -10.949   8.345  0.00  0.00    +0.179 C 
ATOM     20  H   UNL     1      -2.668  -9.676  12.088  0.00  0.00    +0.150 HD
ENDBRANCH  12   6
BRANCH  12  10
ATOM      1  O   UNL     1      -4.235 -10.367  14.422  0.00  0.00    -0.371 OA
ATOM      8  C   UNL     1      -3.847 -10.791  16.727  0.00  0.00    +0.113 C 
ATOM      9  C   UNL     1      -2.677 -11.323  15.921  0.00  0.00    +0.164 C 
ATOM     10  C   UNL     1      -2.823 -10.529  14.630  0.00  0.00    +0.165 C 
ATOM     11  C   UNL     1      -4.916 -10.663  15.655  0.00  0.00    +0.181 C 
BRANCH   8   5
ATOM      5  N   UNL     1      -4.245 -11.660  17.822  0.00  0.00    -0.301 NA
ATOM     13  C   UNL     1      -4.875 -12.882  17.314  0.00  0.00    +0.105 C 
ATOM     14  C   UNL     1      -5.159 -10.965  18.733  0.00  0.00    +0.105 C 
ENDBRANCH   8   5
BRANCH   9   2
ATOM      2  O   UNL     1      -1.431 -11.088  16.548  0.00  0.00    -0.388 OA
ATOM     21  H   UNL     1      -1.087 -10.235  16.233  0.00  0.00    +0.210 HD
ENDBRANCH   9   2
ENDBRANCH  12  10
TORSDOF 4
ENDMDL
