MODEL 1
REMARK VINA RESULT:      -7.2      0.000      0.000
REMARK  Name = 26743034
REMARK  11 active torsions:
REMARK  status: ('A' for Active; 'I' for Inactive)
REMARK    1  A    between atoms: O_3  and  C_27
REMARK    2  A    between atoms: O_3  and  C_30
REMARK    3  A    between atoms: O_4  and  C_28
REMARK    4  A    between atoms: O_4  and  C_31
REMARK    5  A    between atoms: O_5  and  C_29
REMARK    6  A    between atoms: O_5  and  C_32
REMARK    7  A    between atoms: C_9  and  C_13
REMARK    8  A    between atoms: C_10  and  C_15
REMARK    9  A    between atoms: C_13  and  C_16
REMARK   10  A    between atoms: C_15  and  C_17
REMARK   11  A    between atoms: C_26  and  C_29
REMARK                            x       y       z     vdW  Elec       q    Type
REMARK                         _______ _______ _______ _____ _____    ______ ____
ROOT
ATOM     13  C   UNL     1      14.463   7.623  21.706  0.00  0.00    +0.100 C 
ENDROOT
BRANCH  13  16
ATOM      1  O   UNL     1      14.952   9.844  22.380  0.00  0.00    -0.276 OA
ATOM      7  N   UNL     1      16.710   8.619  21.471  0.00  0.00    -0.297 N 
ATOM     16  C   UNL     1      15.388   8.801  21.884  0.00  0.00    +0.216 C 
ATOM     18  C   UNL     1      17.625   9.759  21.460  0.00  0.00    +0.113 C 
ATOM     19  C   UNL     1      17.223   7.373  20.882  0.00  0.00    +0.143 C 
ATOM     20  C   UNL     1      18.923   9.413  22.179  0.00  0.00    +0.054 C 
ATOM     21  C   UNL     1      18.712   7.175  21.029  0.00  0.00    -0.023 A 
ATOM     22  C   UNL     1      19.528   8.149  21.631  0.00  0.00    -0.038 A 
ATOM     24  C   UNL     1      19.294   5.995  20.543  0.00  0.00    +0.054 A 
ATOM     25  C   UNL     1      20.903   7.914  21.766  0.00  0.00    +0.053 A 
ATOM     27  C   UNL     1      20.666   5.778  20.669  0.00  0.00    +0.162 A 
ATOM     28  C   UNL     1      21.470   6.735  21.283  0.00  0.00    +0.162 A 
BRANCH  27   3
ATOM      3  O   UNL     1      21.207   4.622  20.192  0.00  0.00    -0.491 OA
ATOM     30  C   UNL     1      21.412   3.567  21.129  0.00  0.00    +0.277 C 
ENDBRANCH  27   3
BRANCH  28   4
ATOM      4  O   UNL     1      22.809   6.531  21.419  0.00  0.00    -0.491 OA
ATOM     31  C   UNL     1      23.675   7.465  20.777  0.00  0.00    +0.277 C 
ENDBRANCH  28   4
ENDBRANCH  13  16
BRANCH  13   9
ATOM      6  N   UNL     1      10.347   7.941  20.357  0.00  0.00    -0.316 NA
ATOM      9  C   UNL     1      13.026   8.112  21.526  0.00  0.00    +0.004 C 
ATOM     10  C   UNL     1      12.728   8.637  20.100  0.00  0.00    +0.012 C 
ATOM     11  C   UNL     1      12.023   7.023  21.933  0.00  0.00    +0.019 C 
ATOM     12  C   UNL     1      11.245   9.042  20.004  0.00  0.00    +0.085 C 
ATOM     14  C   UNL     1      10.581   7.485  21.727  0.00  0.00    +0.081 C 
ATOM     33  H   UNL     1      10.476   7.164  19.712  0.00  0.00    +0.122 HD
BRANCH  10  15
ATOM     15  C   UNL     1      13.094   7.646  18.986  0.00  0.00    +0.064 C 
BRANCH  15  17
ATOM      2  O   UNL     1      13.112   8.900  15.612  0.00  0.00    -0.357 OA
ATOM      8  N   UNL     1      12.608   8.086  16.619  0.00  0.00    -0.083 NA
ATOM     17  C   UNL     1      13.359   8.355  17.690  0.00  0.00    +0.084 A 
ATOM     23  C   UNL     1      14.345   9.321  17.422  0.00  0.00    +0.073 A 
ATOM     26  C   UNL     1      14.146   9.631  16.102  0.00  0.00    +0.163 A 
BRANCH  26  29
ATOM     29  C   UNL     1      14.800  10.552  15.165  0.00  0.00    +0.236 C 
BRANCH  29   5
ATOM      5  O   UNL     1      13.841  11.101  14.258  0.00  0.00    -0.375 OA
ATOM     32  C   UNL     1      13.845  12.519  14.303  0.00  0.00    +0.194 C 
ENDBRANCH  29   5
ENDBRANCH  26  29
ENDBRANCH  15  17
ENDBRANCH  10  15
ENDBRANCH  13   9
TORSDOF 8
ENDMDL
MODEL 2
REMARK VINA RESULT:      -7.0      2.860      3.805
REMARK  Name = 26743034
REMARK  11 active torsions:
REMARK  status: ('A' for Active; 'I' for Inactive)
REMARK    1  A    between atoms: O_3  and  C_27
REMARK    2  A    between atoms: O_3  and  C_30
REMARK    3  A    between atoms: O_4  and  C_28
REMARK    4  A    between atoms: O_4  and  C_31
REMARK    5  A    between atoms: O_5  and  C_29
REMARK    6  A    between atoms: O_5  and  C_32
REMARK    7  A    between atoms: C_9  and  C_13
REMARK    8  A    between atoms: C_10  and  C_15
REMARK    9  A    between atoms: C_13  and  C_16
REMARK   10  A    between atoms: C_15  and  C_17
REMARK   11  A    between atoms: C_26  and  C_29
REMARK                            x       y       z     vdW  Elec       q    Type
REMARK                         _______ _______ _______ _____ _____    ______ ____
ROOT
ATOM     13  C   UNL     1      13.947  10.744  23.248  0.00  0.00    +0.100 C 
ENDROOT
BRANCH  13  16
ATOM      1  O   UNL     1      15.408  12.546  23.742  0.00  0.00    -0.276 OA
ATOM      7  N   UNL     1      16.258  10.858  22.385  0.00  0.00    -0.297 N 
ATOM     16  C   UNL     1      15.265  11.472  23.152  0.00  0.00    +0.216 C 
ATOM     18  C   UNL     1      17.502  11.574  22.109  0.00  0.00    +0.113 C 
ATOM     19  C   UNL     1      16.081   9.577  21.685  0.00  0.00    +0.143 C 
ATOM     20  C   UNL     1      18.708  10.702  22.437  0.00  0.00    +0.054 C 
ATOM     21  C   UNL     1      17.362   8.829  21.408  0.00  0.00    -0.023 A 
ATOM     22  C   UNL     1      18.616   9.366  21.750  0.00  0.00    -0.038 A 
ATOM     24  C   UNL     1      17.299   7.573  20.787  0.00  0.00    +0.054 A 
ATOM     25  C   UNL     1      19.780   8.627  21.495  0.00  0.00    +0.053 A 
ATOM     27  C   UNL     1      18.464   6.853  20.524  0.00  0.00    +0.162 A 
ATOM     28  C   UNL     1      19.703   7.378  20.881  0.00  0.00    +0.162 A 
BRANCH  27   3
ATOM      3  O   UNL     1      18.375   5.633  19.923  0.00  0.00    -0.491 OA
ATOM     30  C   UNL     1      17.461   5.512  18.835  0.00  0.00    +0.277 C 
ENDBRANCH  27   3
BRANCH  28   4
ATOM      4  O   UNL     1      20.847   6.681  20.636  0.00  0.00    -0.491 OA
ATOM     31  C   UNL     1      22.010   7.439  20.309  0.00  0.00    +0.277 C 
ENDBRANCH  28   4
ENDBRANCH  13  16
BRANCH  13   9
ATOM      6  N   UNL     1      10.065  12.495  24.098  0.00  0.00    -0.316 NA
ATOM      9  C   UNL     1      12.805  11.750  23.383  0.00  0.00    +0.004 C 
ATOM     10  C   UNL     1      11.612  11.457  22.440  0.00  0.00    +0.012 C 
ATOM     11  C   UNL     1      12.340  11.858  24.843  0.00  0.00    +0.019 C 
ATOM     12  C   UNL     1      10.493  12.483  22.698  0.00  0.00    +0.085 C 
ATOM     14  C   UNL     1      11.175  12.836  24.987  0.00  0.00    +0.081 C 
ATOM     33  H   UNL     1       9.687  11.585  24.356  0.00  0.00    +0.122 HD
BRANCH  10  15
ATOM     15  C   UNL     1      11.073  10.024  22.551  0.00  0.00    +0.064 C 
BRANCH  15  17
ATOM      2  O   UNL     1      11.090   7.653  19.842  0.00  0.00    -0.357 OA
ATOM      8  N   UNL     1      10.692   8.075  21.105  0.00  0.00    -0.083 NA
ATOM     17  C   UNL     1      11.283   9.260  21.276  0.00  0.00    +0.084 A 
ATOM     23  C   UNL     1      12.060   9.634  20.166  0.00  0.00    +0.073 A 
ATOM     26  C   UNL     1      11.905   8.590  19.293  0.00  0.00    +0.163 A 
BRANCH  26  29
ATOM     29  C   UNL     1      12.421   8.303  17.949  0.00  0.00    +0.236 C 
BRANCH  29   5
ATOM      5  O   UNL     1      11.401   7.710  17.142  0.00  0.00    -0.375 OA
ATOM     32  C   UNL     1      10.658   8.697  16.447  0.00  0.00    +0.194 C 
ENDBRANCH  29   5
ENDBRANCH  26  29
ENDBRANCH  15  17
ENDBRANCH  10  15
ENDBRANCH  13   9
TORSDOF 8
ENDMDL
MODEL 3
REMARK VINA RESULT:      -6.8      4.081      8.978
REMARK  Name = 26743034
REMARK  11 active torsions:
REMARK  status: ('A' for Active; 'I' for Inactive)
REMARK    1  A    between atoms: O_3  and  C_27
REMARK    2  A    between atoms: O_3  and  C_30
REMARK    3  A    between atoms: O_4  and  C_28
REMARK    4  A    between atoms: O_4  and  C_31
REMARK    5  A    between atoms: O_5  and  C_29
REMARK    6  A    between atoms: O_5  and  C_32
REMARK    7  A    between atoms: C_9  and  C_13
REMARK    8  A    between atoms: C_10  and  C_15
REMARK    9  A    between atoms: C_13  and  C_16
REMARK   10  A    between atoms: C_15  and  C_17
REMARK   11  A    between atoms: C_26  and  C_29
REMARK                            x       y       z     vdW  Elec       q    Type
REMARK                         _______ _______ _______ _____ _____    ______ ____
ROOT
ATOM     13  C   UNL     1      14.825  10.272  19.086  0.00  0.00    +0.100 C 
ENDROOT
BRANCH  13  16
ATOM      1  O   UNL     1      15.041  12.137  17.636  0.00  0.00    -0.276 OA
ATOM      7  N   UNL     1      13.917  12.500  19.641  0.00  0.00    -0.297 N 
ATOM     16  C   UNL     1      14.611  11.718  18.715  0.00  0.00    +0.216 C 
ATOM     18  C   UNL     1      13.811  13.943  19.431  0.00  0.00    +0.113 C 
ATOM     19  C   UNL     1      13.408  11.995  20.925  0.00  0.00    +0.143 C 
ATOM     20  C   UNL     1      12.363  14.400  19.561  0.00  0.00    +0.054 C 
ATOM     21  C   UNL     1      12.251  12.780  21.495  0.00  0.00    -0.023 A 
ATOM     22  C   UNL     1      11.760  13.933  20.858  0.00  0.00    -0.038 A 
ATOM     24  C   UNL     1      11.661  12.351  22.693  0.00  0.00    +0.054 A 
ATOM     25  C   UNL     1      10.669  14.619  21.411  0.00  0.00    +0.053 A 
ATOM     27  C   UNL     1      10.585  13.050  23.242  0.00  0.00    +0.162 A 
ATOM     28  C   UNL     1      10.088  14.181  22.600  0.00  0.00    +0.162 A 
BRANCH  27   3
ATOM      3  O   UNL     1      10.027  12.611  24.405  0.00  0.00    -0.491 OA
ATOM     30  C   UNL     1      10.673  12.990  25.617  0.00  0.00    +0.277 C 
ENDBRANCH  27   3
BRANCH  28   4
ATOM      4  O   UNL     1       9.034  14.867  23.123  0.00  0.00    -0.491 OA
ATOM     31  C   UNL     1       7.973  15.202  22.231  0.00  0.00    +0.277 C 
ENDBRANCH  28   4
ENDBRANCH  13  16
BRANCH  13   9
ATOM      6  N   UNL     1      12.170   7.108  17.745  0.00  0.00    -0.316 NA
ATOM      9  C   UNL     1      13.970   9.374  18.194  0.00  0.00    +0.004 C 
ATOM     10  C   UNL     1      14.501   7.924  18.089  0.00  0.00    +0.012 C 
ATOM     11  C   UNL     1      12.502   9.391  18.647  0.00  0.00    +0.019 C 
ATOM     12  C   UNL     1      13.539   7.086  17.226  0.00  0.00    +0.085 C 
ATOM     14  C   UNL     1      11.640   8.470  17.784  0.00  0.00    +0.081 C 
ATOM     33  H   UNL     1      12.144   6.704  18.680  0.00  0.00    +0.122 HD
BRANCH  10  15
ATOM     15  C   UNL     1      14.737   7.250  19.448  0.00  0.00    +0.064 C 
BRANCH  15  17
ATOM      2  O   UNL     1      17.872   5.523  19.064  0.00  0.00    -0.357 OA
ATOM      8  N   UNL     1      16.564   5.796  18.684  0.00  0.00    -0.083 NA
ATOM     17  C   UNL     1      16.134   6.712  19.557  0.00  0.00    +0.084 A 
ATOM     23  C   UNL     1      17.118   7.051  20.502  0.00  0.00    +0.073 A 
ATOM     26  C   UNL     1      18.191   6.277  20.147  0.00  0.00    +0.163 A 
BRANCH  26  29
ATOM     29  C   UNL     1      19.547   6.113  20.684  0.00  0.00    +0.236 C 
BRANCH  29   5
ATOM      5  O   UNL     1      19.719   6.922  21.851  0.00  0.00    -0.375 OA
ATOM     32  C   UNL     1      20.772   6.432  22.664  0.00  0.00    +0.194 C 
ENDBRANCH  29   5
ENDBRANCH  26  29
ENDBRANCH  15  17
ENDBRANCH  10  15
ENDBRANCH  13   9
TORSDOF 8
ENDMDL
MODEL 4
REMARK VINA RESULT:      -6.6     27.534     30.013
REMARK  Name = 26743034
REMARK  11 active torsions:
REMARK  status: ('A' for Active; 'I' for Inactive)
REMARK    1  A    between atoms: O_3  and  C_27
REMARK    2  A    between atoms: O_3  and  C_30
REMARK    3  A    between atoms: O_4  and  C_28
REMARK    4  A    between atoms: O_4  and  C_31
REMARK    5  A    between atoms: O_5  and  C_29
REMARK    6  A    between atoms: O_5  and  C_32
REMARK    7  A    between atoms: C_9  and  C_13
REMARK    8  A    between atoms: C_10  and  C_15
REMARK    9  A    between atoms: C_13  and  C_16
REMARK   10  A    between atoms: C_15  and  C_17
REMARK   11  A    between atoms: C_26  and  C_29
REMARK                            x       y       z     vdW  Elec       q    Type
REMARK                         _______ _______ _______ _____ _____    ______ ____
ROOT
ATOM     13  C   UNL     1      -7.148  -9.578  16.829  0.00  0.00    +0.100 C 
ENDROOT
BRANCH  13  16
ATOM      1  O   UNL     1      -9.357 -10.362  16.469  0.00  0.00    -0.276 OA
ATOM      7  N   UNL     1      -7.994 -10.190  14.591  0.00  0.00    -0.297 N 
ATOM     16  C   UNL     1      -8.271 -10.082  15.956  0.00  0.00    +0.216 C 
ATOM     18  C   UNL     1      -8.971 -10.821  13.705  0.00  0.00    +0.113 C 
ATOM     19  C   UNL     1      -6.697  -9.853  13.986  0.00  0.00    +0.143 C 
ATOM     20  C   UNL     1      -9.246  -9.938  12.494  0.00  0.00    +0.054 C 
ATOM     21  C   UNL     1      -6.760  -9.497  12.521  0.00  0.00    -0.023 A 
ATOM     22  C   UNL     1      -7.967  -9.550  11.802  0.00  0.00    -0.038 A 
ATOM     24  C   UNL     1      -5.583  -9.114  11.861  0.00  0.00    +0.054 A 
ATOM     25  C   UNL     1      -7.984  -9.190  10.448  0.00  0.00    +0.053 A 
ATOM     27  C   UNL     1      -5.608  -8.771  10.509  0.00  0.00    +0.162 A 
ATOM     28  C   UNL     1      -6.808  -8.806   9.804  0.00  0.00    +0.162 A 
BRANCH  27   3
ATOM      3  O   UNL     1      -4.452  -8.399   9.892  0.00  0.00    -0.491 OA
ATOM     30  C   UNL     1      -3.328  -9.262  10.045  0.00  0.00    +0.277 C 
ENDBRANCH  27   3
BRANCH  28   4
ATOM      4  O   UNL     1      -6.847  -8.467   8.485  0.00  0.00    -0.491 OA
ATOM     31  C   UNL     1      -7.843  -7.528   8.087  0.00  0.00    +0.277 C 
ENDBRANCH  28   4
ENDBRANCH  13  16
BRANCH  13   9
ATOM      6  N   UNL     1      -4.615 -11.914  19.473  0.00  0.00    -0.316 NA
ATOM      9  C   UNL     1      -6.608 -10.719  17.691  0.00  0.00    +0.004 C 
ATOM     10  C   UNL     1      -5.297 -11.335  17.145  0.00  0.00    +0.012 C 
ATOM     11  C   UNL     1      -6.439 -10.269  19.150  0.00  0.00    +0.019 C 
ATOM     12  C   UNL     1      -4.801 -12.425  18.114  0.00  0.00    +0.085 C 
ATOM     14  C   UNL     1      -5.867 -11.390  20.017  0.00  0.00    +0.081 C 
ATOM     33  H   UNL     1      -3.908 -11.182  19.477  0.00  0.00    +0.122 HD
BRANCH  10  15
ATOM     15  C   UNL     1      -4.192 -10.304  16.876  0.00  0.00    +0.064 C 
BRANCH  15  17
ATOM      2  O   UNL     1      -1.280 -11.339  15.029  0.00  0.00    -0.357 OA
ATOM      8  N   UNL     1      -1.898 -10.814  16.157  0.00  0.00    -0.083 NA
ATOM     17  C   UNL     1      -3.202 -10.812  15.868  0.00  0.00    +0.084 A 
ATOM     23  C   UNL     1      -3.465 -11.319  14.583  0.00  0.00    +0.073 A 
ATOM     26  C   UNL     1      -2.223 -11.635  14.099  0.00  0.00    +0.163 A 
BRANCH  26  29
ATOM     29  C   UNL     1      -1.741 -12.204  12.834  0.00  0.00    +0.236 C 
BRANCH  29   5
ATOM      5  O   UNL     1      -2.209 -13.547  12.684  0.00  0.00    -0.375 OA
ATOM     32  C   UNL     1      -1.667 -14.393  13.684  0.00  0.00    +0.194 C 
ENDBRANCH  29   5
ENDBRANCH  26  29
ENDBRANCH  15  17
ENDBRANCH  10  15
ENDBRANCH  13   9
TORSDOF 8
ENDMDL
MODEL 5
REMARK VINA RESULT:      -6.4      2.770      5.313
REMARK  Name = 26743034
REMARK  11 active torsions:
REMARK  status: ('A' for Active; 'I' for Inactive)
REMARK    1  A    between atoms: O_3  and  C_27
REMARK    2  A    between atoms: O_3  and  C_30
REMARK    3  A    between atoms: O_4  and  C_28
REMARK    4  A    between atoms: O_4  and  C_31
REMARK    5  A    between atoms: O_5  and  C_29
REMARK    6  A    between atoms: O_5  and  C_32
REMARK    7  A    between atoms: C_9  and  C_13
REMARK    8  A    between atoms: C_10  and  C_15
REMARK    9  A    between atoms: C_13  and  C_16
REMARK   10  A    between atoms: C_15  and  C_17
REMARK   11  A    between atoms: C_26  and  C_29
REMARK                            x       y       z     vdW  Elec       q    Type
REMARK                         _______ _______ _______ _____ _____    ______ ____
ROOT
ATOM     13  C   UNL     1      15.047   8.686  19.419  0.00  0.00    +0.100 C 
ENDROOT
BRANCH  13  16
ATOM      1  O   UNL     1      15.493   6.394  19.005  0.00  0.00    -0.276 OA
ATOM      7  N   UNL     1      16.943   7.491  20.456  0.00  0.00    -0.297 N 
ATOM     16  C   UNL     1      15.839   7.416  19.603  0.00  0.00    +0.216 C 
ATOM     18  C   UNL     1      17.663   6.270  20.814  0.00  0.00    +0.113 C 
ATOM     19  C   UNL     1      17.351   8.713  21.165  0.00  0.00    +0.143 C 
ATOM     20  C   UNL     1      19.161   6.447  20.597  0.00  0.00    +0.054 C 
ATOM     21  C   UNL     1      18.809   8.757  21.554  0.00  0.00    -0.023 A 
ATOM     22  C   UNL     1      19.671   7.676  21.300  0.00  0.00    -0.038 A 
ATOM     24  C   UNL     1      19.310   9.900  22.193  0.00  0.00    +0.054 A 
ATOM     25  C   UNL     1      21.023   7.768  21.659  0.00  0.00    +0.053 A 
ATOM     27  C   UNL     1      20.654   9.976  22.559  0.00  0.00    +0.162 A 
ATOM     28  C   UNL     1      21.511   8.911  22.290  0.00  0.00    +0.162 A 
BRANCH  27   3
ATOM      3  O   UNL     1      21.118  11.100  23.175  0.00  0.00    -0.491 OA
ATOM     30  C   UNL     1      21.425  12.215  22.343  0.00  0.00    +0.277 C 
ENDBRANCH  27   3
BRANCH  28   4
ATOM      4  O   UNL     1      22.826   8.976  22.636  0.00  0.00    -0.491 OA
ATOM     31  C   UNL     1      23.243   8.188  23.749  0.00  0.00    +0.277 C 
ENDBRANCH  28   4
ENDBRANCH  13  16
BRANCH  13   9
ATOM      6  N   UNL     1      11.888   9.450  16.538  0.00  0.00    -0.316 NA
ATOM      9  C   UNL     1      13.975   8.481  18.350  0.00  0.00    +0.004 C 
ATOM     10  C   UNL     1      12.541   8.781  18.850  0.00  0.00    +0.012 C 
ATOM     11  C   UNL     1      14.299   9.293  17.087  0.00  0.00    +0.019 C 
ATOM     12  C   UNL     1      11.547   8.609  17.687  0.00  0.00    +0.085 C 
ATOM     14  C   UNL     1      13.217   9.124  16.021  0.00  0.00    +0.081 C 
ATOM     33  H   UNL     1      11.856  10.432  16.802  0.00  0.00    +0.122 HD
BRANCH  10  15
ATOM     15  C   UNL     1      12.387  10.164  19.497  0.00  0.00    +0.064 C 
BRANCH  15  17
ATOM      2  O   UNL     1      11.214   9.119  22.736  0.00  0.00    -0.357 OA
ATOM      8  N   UNL     1      11.568   8.867  21.416  0.00  0.00    -0.083 NA
ATOM     17  C   UNL     1      11.933  10.054  20.923  0.00  0.00    +0.084 A 
ATOM     23  C   UNL     1      11.829  11.082  21.876  0.00  0.00    +0.073 A 
ATOM     26  C   UNL     1      11.374  10.441  22.998  0.00  0.00    +0.163 A 
BRANCH  26  29
ATOM     29  C   UNL     1      11.042  10.885  24.357  0.00  0.00    +0.236 C 
BRANCH  29   5
ATOM      5  O   UNL     1      10.253  12.077  24.311  0.00  0.00    -0.375 OA
ATOM     32  C   UNL     1      10.664  13.003  25.303  0.00  0.00    +0.194 C 
ENDBRANCH  29   5
ENDBRANCH  26  29
ENDBRANCH  15  17
ENDBRANCH  10  15
ENDBRANCH  13   9
TORSDOF 8
ENDMDL
MODEL 6
REMARK VINA RESULT:      -6.3      3.773      7.645
REMARK  Name = 26743034
REMARK  11 active torsions:
REMARK  status: ('A' for Active; 'I' for Inactive)
REMARK    1  A    between atoms: O_3  and  C_27
REMARK    2  A    between atoms: O_3  and  C_30
REMARK    3  A    between atoms: O_4  and  C_28
REMARK    4  A    between atoms: O_4  and  C_31
REMARK    5  A    between atoms: O_5  and  C_29
REMARK    6  A    between atoms: O_5  and  C_32
REMARK    7  A    between atoms: C_9  and  C_13
REMARK    8  A    between atoms: C_10  and  C_15
REMARK    9  A    between atoms: C_13  and  C_16
REMARK   10  A    between atoms: C_15  and  C_17
REMARK   11  A    between atoms: C_26  and  C_29
REMARK                            x       y       z     vdW  Elec       q    Type
REMARK                         _______ _______ _______ _____ _____    ______ ____
ROOT
ATOM     13  C   UNL     1      12.719   8.301  21.447  0.00  0.00    +0.100 C 
ENDROOT
BRANCH  13  16
ATOM      1  O   UNL     1      10.452   8.717  22.007  0.00  0.00    -0.276 OA
ATOM      7  N   UNL     1      12.011  10.278  22.746  0.00  0.00    -0.297 N 
ATOM     16  C   UNL     1      11.619   9.111  22.086  0.00  0.00    +0.216 C 
ATOM     18  C   UNL     1      10.993  11.199  23.249  0.00  0.00    +0.113 C 
ATOM     19  C   UNL     1      13.403  10.743  22.837  0.00  0.00    +0.143 C 
ATOM     20  C   UNL     1      11.264  11.554  24.706  0.00  0.00    +0.054 C 
ATOM     21  C   UNL     1      13.689  11.650  24.009  0.00  0.00    -0.023 A 
ATOM     22  C   UNL     1      12.671  12.052  24.892  0.00  0.00    -0.038 A 
ATOM     24  C   UNL     1      14.998  12.110  24.213  0.00  0.00    +0.054 A 
ATOM     25  C   UNL     1      12.985  12.878  25.981  0.00  0.00    +0.053 A 
ATOM     27  C   UNL     1      15.296  12.943  25.291  0.00  0.00    +0.162 A 
ATOM     28  C   UNL     1      14.291  13.325  26.176  0.00  0.00    +0.162 A 
BRANCH  27   3
ATOM      3  O   UNL     1      16.577  13.373  25.469  0.00  0.00    -0.491 OA
ATOM     30  C   UNL     1      17.596  12.693  24.740  0.00  0.00    +0.277 C 
ENDBRANCH  27   3
BRANCH  28   4
ATOM      4  O   UNL     1      14.571  14.133  27.236  0.00  0.00    -0.491 OA
ATOM     31  C   UNL     1      14.487  13.550  28.534  0.00  0.00    +0.277 C 
ENDBRANCH  28   4
ENDBRANCH  13  16
BRANCH  13   9
ATOM      6  N   UNL     1      13.096   8.065  17.127  0.00  0.00    -0.316 NA
ATOM      9  C   UNL     1      12.868   8.694  19.978  0.00  0.00    +0.004 C 
ATOM     10  C   UNL     1      14.209   8.240  19.351  0.00  0.00    +0.012 C 
ATOM     11  C   UNL     1      11.675   8.189  19.153  0.00  0.00    +0.019 C 
ATOM     12  C   UNL     1      14.233   8.623  17.860  0.00  0.00    +0.085 C 
ATOM     14  C   UNL     1      11.827   8.545  17.674  0.00  0.00    +0.081 C 
ATOM     33  H   UNL     1      13.121   7.048  17.163  0.00  0.00    +0.122 HD
BRANCH  10  15
ATOM     15  C   UNL     1      14.502   6.744  19.533  0.00  0.00    +0.064 C 
BRANCH  15  17
ATOM      2  O   UNL     1      17.964   5.769  19.375  0.00  0.00    -0.357 OA
ATOM      8  N   UNL     1      16.673   5.811  18.861  0.00  0.00    -0.083 NA
ATOM     17  C   UNL     1      15.965   6.497  19.762  0.00  0.00    +0.084 A 
ATOM     23  C   UNL     1      16.747   6.907  20.856  0.00  0.00    +0.073 A 
ATOM     26  C   UNL     1      17.995   6.424  20.563  0.00  0.00    +0.163 A 
BRANCH  26  29
ATOM     29  C   UNL     1      19.291   6.476  21.250  0.00  0.00    +0.236 C 
BRANCH  29   5
ATOM      5  O   UNL     1      20.345   6.132  20.347  0.00  0.00    -0.375 OA
ATOM     32  C   UNL     1      21.282   5.262  20.959  0.00  0.00    +0.194 C 
ENDBRANCH  29   5
ENDBRANCH  26  29
ENDBRANCH  15  17
ENDBRANCH  10  15
ENDBRANCH  13   9
TORSDOF 8
ENDMDL
MODEL 7
REMARK VINA RESULT:      -6.3     28.121     30.708
REMARK  Name = 26743034
REMARK  11 active torsions:
REMARK  status: ('A' for Active; 'I' for Inactive)
REMARK    1  A    between atoms: O_3  and  C_27
REMARK    2  A    between atoms: O_3  and  C_30
REMARK    3  A    between atoms: O_4  and  C_28
REMARK    4  A    between atoms: O_4  and  C_31
REMARK    5  A    between atoms: O_5  and  C_29
REMARK    6  A    between atoms: O_5  and  C_32
REMARK    7  A    between atoms: C_9  and  C_13
REMARK    8  A    between atoms: C_10  and  C_15
REMARK    9  A    between atoms: C_13  and  C_16
REMARK   10  A    between atoms: C_15  and  C_17
REMARK   11  A    between atoms: C_26  and  C_29
REMARK                            x       y       z     vdW  Elec       q    Type
REMARK                         _______ _______ _______ _____ _____    ______ ____
ROOT
ATOM     13  C   UNL     1      -8.968 -11.358  18.383  0.00  0.00    +0.100 C 
ENDROOT
BRANCH  13  16
ATOM      1  O   UNL     1      -7.373 -11.683  20.108  0.00  0.00    -0.276 OA
ATOM      7  N   UNL     1      -6.569 -10.854  18.088  0.00  0.00    -0.297 N 
ATOM     16  C   UNL     1      -7.570 -11.315  18.947  0.00  0.00    +0.216 C 
ATOM     18  C   UNL     1      -5.220 -10.629  18.607  0.00  0.00    +0.113 C 
ATOM     19  C   UNL     1      -6.810 -10.417  16.705  0.00  0.00    +0.143 C 
ATOM     20  C   UNL     1      -4.184 -11.312  17.723  0.00  0.00    +0.054 C 
ATOM     21  C   UNL     1      -5.606 -10.502  15.800  0.00  0.00    -0.023 A 
ATOM     22  C   UNL     1      -4.350 -10.913  16.282  0.00  0.00    -0.038 A 
ATOM     24  C   UNL     1      -5.742 -10.154  14.448  0.00  0.00    +0.054 A 
ATOM     25  C   UNL     1      -3.263 -10.998  15.401  0.00  0.00    +0.053 A 
ATOM     27  C   UNL     1      -4.650 -10.229  13.583  0.00  0.00    +0.162 A 
ATOM     28  C   UNL     1      -3.412 -10.653  14.059  0.00  0.00    +0.162 A 
BRANCH  27   3
ATOM      3  O   UNL     1      -4.810  -9.888  12.273  0.00  0.00    -0.491 OA
ATOM     30  C   UNL     1      -5.960  -9.114  11.941  0.00  0.00    +0.277 C 
ENDBRANCH  27   3
BRANCH  28   4
ATOM      4  O   UNL     1      -2.341 -10.737  13.222  0.00  0.00    -0.491 OA
ATOM     31  C   UNL     1      -2.110 -11.994  12.590  0.00  0.00    +0.277 C 
ENDBRANCH  28   4
ENDBRANCH  13  16
BRANCH  13   9
ATOM      6  N   UNL     1     -12.720 -11.255  20.568  0.00  0.00    -0.316 NA
ATOM      9  C   UNL     1      -9.989 -11.220  19.511  0.00  0.00    +0.004 C 
ATOM     10  C   UNL     1     -10.943 -10.014  19.334  0.00  0.00    +0.012 C 
ATOM     11  C   UNL     1     -10.779 -12.524  19.698  0.00  0.00    +0.019 C 
ATOM     12  C   UNL     1     -11.970 -10.000  20.482  0.00  0.00    +0.085 C 
ATOM     14  C   UNL     1     -11.827 -12.390  20.801  0.00  0.00    +0.081 C 
ATOM     33  H   UNL     1     -13.248 -11.406  19.711  0.00  0.00    +0.122 HD
BRANCH  10  15
ATOM     15  C   UNL     1     -11.650  -9.978  17.972  0.00  0.00    +0.064 C 
BRANCH  15  17
ATOM      2  O   UNL     1     -10.168  -7.047  16.498  0.00  0.00    -0.357 OA
ATOM      8  N   UNL     1     -10.111  -8.191  17.286  0.00  0.00    -0.083 NA
ATOM     17  C   UNL     1     -11.339  -8.713  17.227  0.00  0.00    +0.084 A 
ATOM     23  C   UNL     1     -12.205  -7.949  16.426  0.00  0.00    +0.073 A 
ATOM     26  C   UNL     1     -11.420  -6.914  15.992  0.00  0.00    +0.163 A 
BRANCH  26  29
ATOM     29  C   UNL     1     -11.658  -5.750  15.130  0.00  0.00    +0.236 C 
BRANCH  29   5
ATOM      5  O   UNL     1     -13.001  -5.765  14.637  0.00  0.00    -0.375 OA
ATOM     32  C   UNL     1     -13.036  -6.091  13.257  0.00  0.00    +0.194 C 
ENDBRANCH  29   5
ENDBRANCH  26  29
ENDBRANCH  15  17
ENDBRANCH  10  15
ENDBRANCH  13   9
TORSDOF 8
ENDMDL
MODEL 8
REMARK VINA RESULT:      -6.2      1.702      2.660
REMARK  Name = 26743034
REMARK  11 active torsions:
REMARK  status: ('A' for Active; 'I' for Inactive)
REMARK    1  A    between atoms: O_3  and  C_27
REMARK    2  A    between atoms: O_3  and  C_30
REMARK    3  A    between atoms: O_4  and  C_28
REMARK    4  A    between atoms: O_4  and  C_31
REMARK    5  A    between atoms: O_5  and  C_29
REMARK    6  A    between atoms: O_5  and  C_32
REMARK    7  A    between atoms: C_9  and  C_13
REMARK    8  A    between atoms: C_10  and  C_15
REMARK    9  A    between atoms: C_13  and  C_16
REMARK   10  A    between atoms: C_15  and  C_17
REMARK   11  A    between atoms: C_26  and  C_29
REMARK                            x       y       z     vdW  Elec       q    Type
REMARK                         _______ _______ _______ _____ _____    ______ ____
ROOT
ATOM     13  C   UNL     1      14.822   8.880  19.581  0.00  0.00    +0.100 C 
ENDROOT
BRANCH  13  16
ATOM      1  O   UNL     1      15.004   6.816  18.426  0.00  0.00    -0.276 OA
ATOM      7  N   UNL     1      16.566   7.213  20.104  0.00  0.00    -0.297 N 
ATOM     16  C   UNL     1      15.463   7.541  19.313  0.00  0.00    +0.216 C 
ATOM     18  C   UNL     1      17.142   5.872  20.019  0.00  0.00    +0.113 C 
ATOM     19  C   UNL     1      17.109   8.082  21.159  0.00  0.00    +0.143 C 
ATOM     20  C   UNL     1      18.651   5.947  19.819  0.00  0.00    +0.054 C 
ATOM     21  C   UNL     1      18.561   7.838  21.490  0.00  0.00    -0.023 A 
ATOM     22  C   UNL     1      19.295   6.814  20.867  0.00  0.00    -0.038 A 
ATOM     24  C   UNL     1      19.188   8.647  22.449  0.00  0.00    +0.054 A 
ATOM     25  C   UNL     1      20.648   6.636  21.188  0.00  0.00    +0.053 A 
ATOM     27  C   UNL     1      20.531   8.452  22.772  0.00  0.00    +0.162 A 
ATOM     28  C   UNL     1      21.261   7.449  22.140  0.00  0.00    +0.162 A 
BRANCH  27   3
ATOM      3  O   UNL     1      21.117   9.254  23.705  0.00  0.00    -0.491 OA
ATOM     30  C   UNL     1      21.585  10.526  23.263  0.00  0.00    +0.277 C 
ENDBRANCH  27   3
BRANCH  28   4
ATOM      4  O   UNL     1      22.575   7.254  22.442  0.00  0.00    -0.491 OA
ATOM     31  C   UNL     1      23.118   5.964  22.168  0.00  0.00    +0.277 C 
ENDBRANCH  28   4
ENDBRANCH  13  16
BRANCH  13   9
ATOM      6  N   UNL     1      10.916   7.304  20.639  0.00  0.00    -0.316 NA
ATOM      9  C   UNL     1      13.474   8.682  20.272  0.00  0.00    +0.004 C 
ATOM     10  C   UNL     1      12.262   8.962  19.351  0.00  0.00    +0.012 C 
ATOM     11  C   UNL     1      13.379   7.281  20.896  0.00  0.00    +0.019 C 
ATOM     12  C   UNL     1      10.958   8.672  20.117  0.00  0.00    +0.085 C 
ATOM     14  C   UNL     1      12.023   7.056  21.562  0.00  0.00    +0.081 C 
ATOM     33  H   UNL     1      10.954   6.636  19.871  0.00  0.00    +0.122 HD
BRANCH  10  15
ATOM     15  C   UNL     1      12.298   8.187  18.026  0.00  0.00    +0.064 C 
BRANCH  15  17
ATOM      2  O   UNL     1      12.509   9.896  14.865  0.00  0.00    -0.357 OA
ATOM      8  N   UNL     1      12.003   8.902  15.695  0.00  0.00    -0.083 NA
ATOM     17  C   UNL     1      12.609   9.092  16.870  0.00  0.00    +0.084 A 
ATOM     23  C   UNL     1      13.499  10.179  16.843  0.00  0.00    +0.073 A 
ATOM     26  C   UNL     1      13.399  10.650  15.560  0.00  0.00    +0.163 A 
BRANCH  26  29
ATOM     29  C   UNL     1      14.034  11.753  14.830  0.00  0.00    +0.236 C 
BRANCH  29   5
ATOM      5  O   UNL     1      13.624  11.743  13.460  0.00  0.00    -0.375 OA
ATOM     32  C   UNL     1      13.812  13.014  12.859  0.00  0.00    +0.194 C 
ENDBRANCH  29   5
ENDBRANCH  26  29
ENDBRANCH  15  17
ENDBRANCH  10  15
ENDBRANCH  13   9
TORSDOF 8
ENDMDL
MODEL 9
REMARK VINA RESULT:      -6.1     27.930     30.182
REMARK  Name = 26743034
REMARK  11 active torsions:
REMARK  status: ('A' for Active; 'I' for Inactive)
REMARK    1  A    between atoms: O_3  and  C_27
REMARK    2  A    between atoms: O_3  and  C_30
REMARK    3  A    between atoms: O_4  and  C_28
REMARK    4  A    between atoms: O_4  and  C_31
REMARK    5  A    between atoms: O_5  and  C_29
REMARK    6  A    between atoms: O_5  and  C_32
REMARK    7  A    between atoms: C_9  and  C_13
REMARK    8  A    between atoms: C_10  and  C_15
REMARK    9  A    between atoms: C_13  and  C_16
REMARK   10  A    between atoms: C_15  and  C_17
REMARK   11  A    between atoms: C_26  and  C_29
REMARK                            x       y       z     vdW  Elec       q    Type
REMARK                         _______ _______ _______ _____ _____    ______ ____
ROOT
ATOM     13  C   UNL     1      -5.327 -11.292  15.605  0.00  0.00    +0.100 C 
ENDROOT
BRANCH  13  16
ATOM      1  O   UNL     1      -2.986 -11.630  15.421  0.00  0.00    -0.276 OA
ATOM      7  N   UNL     1      -4.035 -10.599  13.618  0.00  0.00    -0.297 N 
ATOM     16  C   UNL     1      -4.006 -11.192  14.883  0.00  0.00    +0.216 C 
ATOM     18  C   UNL     1      -2.779 -10.318  12.924  0.00  0.00    +0.113 C 
ATOM     19  C   UNL     1      -5.254 -10.079  12.982  0.00  0.00    +0.143 C 
ATOM     20  C   UNL     1      -2.819 -10.859  11.500  0.00  0.00    +0.054 C 
ATOM     21  C   UNL     1      -5.197 -10.011  11.475  0.00  0.00    -0.023 A 
ATOM     22  C   UNL     1      -4.036 -10.366  10.766  0.00  0.00    -0.038 A 
ATOM     24  C   UNL     1      -6.327  -9.573  10.769  0.00  0.00    +0.054 A 
ATOM     25  C   UNL     1      -4.035 -10.309   9.365  0.00  0.00    +0.053 A 
ATOM     27  C   UNL     1      -6.310  -9.507   9.376  0.00  0.00    +0.162 A 
ATOM     28  C   UNL     1      -5.166  -9.877   8.674  0.00  0.00    +0.162 A 
BRANCH  27   3
ATOM      3  O   UNL     1      -7.423  -9.082   8.713  0.00  0.00    -0.491 OA
ATOM     30  C   UNL     1      -7.639  -7.674   8.646  0.00  0.00    +0.277 C 
ENDBRANCH  27   3
BRANCH  28   4
ATOM      4  O   UNL     1      -5.139  -9.822   7.314  0.00  0.00    -0.491 OA
ATOM     31  C   UNL     1      -5.102 -11.065   6.616  0.00  0.00    +0.277 C 
ENDBRANCH  28   4
ENDBRANCH  13  16
BRANCH  13   9
ATOM      6  N   UNL     1      -5.842 -11.419  19.915  0.00  0.00    -0.316 NA
ATOM      9  C   UNL     1      -5.121 -11.056  17.100  0.00  0.00    +0.004 C 
ATOM     10  C   UNL     1      -6.262 -10.241  17.758  0.00  0.00    +0.012 C 
ATOM     11  C   UNL     1      -4.897 -12.384  17.839  0.00  0.00    +0.019 C 
ATOM     12  C   UNL     1      -5.995 -10.114  19.269  0.00  0.00    +0.085 C 
ATOM     14  C   UNL     1      -4.723 -12.166  19.341  0.00  0.00    +0.081 C 
ATOM     33  H   UNL     1      -6.699 -11.960  19.818  0.00  0.00    +0.122 HD
BRANCH  10  15
ATOM     15  C   UNL     1      -7.661 -10.815  17.499  0.00  0.00    +0.064 C 
BRANCH  15  17
ATOM      2  O   UNL     1      -9.508  -8.519  15.431  0.00  0.00    -0.357 OA
ATOM      8  N   UNL     1      -8.548  -9.506  15.619  0.00  0.00    -0.083 NA
ATOM     17  C   UNL     1      -8.582  -9.776  16.926  0.00  0.00    +0.084 A 
ATOM     23  C   UNL     1      -9.533  -8.997  17.608  0.00  0.00    +0.073 A 
ATOM     26  C   UNL     1     -10.088  -8.225  16.622  0.00  0.00    +0.163 A 
BRANCH  26  29
ATOM     29  C   UNL     1     -11.133  -7.194  16.607  0.00  0.00    +0.236 C 
BRANCH  29   5
ATOM      5  O   UNL     1     -10.705  -6.066  15.839  0.00  0.00    -0.375 OA
ATOM     32  C   UNL     1     -11.632  -5.767  14.808  0.00  0.00    +0.194 C 
ENDBRANCH  29   5
ENDBRANCH  26  29
ENDBRANCH  15  17
ENDBRANCH  10  15
ENDBRANCH  13   9
TORSDOF 8
ENDMDL
MODEL 10
REMARK VINA RESULT:      -6.1     26.833     29.975
REMARK  Name = 26743034
REMARK  11 active torsions:
REMARK  status: ('A' for Active; 'I' for Inactive)
REMARK    1  A    between atoms: O_3  and  C_27
REMARK    2  A    between atoms: O_3  and  C_30
REMARK    3  A    between atoms: O_4  and  C_28
REMARK    4  A    between atoms: O_4  and  C_31
REMARK    5  A    between atoms: O_5  and  C_29
REMARK    6  A    between atoms: O_5  and  C_32
REMARK    7  A    between atoms: C_9  and  C_13
REMARK    8  A    between atoms: C_10  and  C_15
REMARK    9  A    between atoms: C_13  and  C_16
REMARK   10  A    between atoms: C_15  and  C_17
REMARK   11  A    between atoms: C_26  and  C_29
REMARK                            x       y       z     vdW  Elec       q    Type
REMARK                         _______ _______ _______ _____ _____    ______ ____
ROOT
ATOM     13  C   UNL     1      -3.086 -11.153  11.285  0.00  0.00    +0.100 C 
ENDROOT
BRANCH  13  16
ATOM      1  O   UNL     1      -1.226  -9.935  12.113  0.00  0.00    -0.276 OA
ATOM      7  N   UNL     1      -2.451 -11.154  13.671  0.00  0.00    -0.297 N 
ATOM     16  C   UNL     1      -2.164 -10.689  12.385  0.00  0.00    +0.216 C 
ATOM     18  C   UNL     1      -1.514 -10.884  14.761  0.00  0.00    +0.113 C 
ATOM     19  C   UNL     1      -3.570 -12.052  13.990  0.00  0.00    +0.143 C 
ATOM     20  C   UNL     1      -2.245 -10.297  15.963  0.00  0.00    +0.054 C 
ATOM     21  C   UNL     1      -4.044 -11.983  15.421  0.00  0.00    -0.023 A 
ATOM     22  C   UNL     1      -3.408 -11.161  16.368  0.00  0.00    -0.038 A 
ATOM     24  C   UNL     1      -5.139 -12.765  15.816  0.00  0.00    +0.054 A 
ATOM     25  C   UNL     1      -3.895 -11.111  17.681  0.00  0.00    +0.053 A 
ATOM     27  C   UNL     1      -5.607 -12.719  17.129  0.00  0.00    +0.162 A 
ATOM     28  C   UNL     1      -4.987 -11.890  18.061  0.00  0.00    +0.162 A 
BRANCH  27   3
ATOM      3  O   UNL     1      -6.675 -13.486  17.486  0.00  0.00    -0.491 OA
ATOM     30  C   UNL     1      -7.968 -13.000  17.134  0.00  0.00    +0.277 C 
ENDBRANCH  27   3
BRANCH  28   4
ATOM      4  O   UNL     1      -5.438 -11.831  19.344  0.00  0.00    -0.491 OA
ATOM     31  C   UNL     1      -6.222 -10.696  19.703  0.00  0.00    +0.277 C 
ENDBRANCH  28   4
ENDBRANCH  13  16
BRANCH  13   9
ATOM      6  N   UNL     1      -6.586  -8.923  10.006  0.00  0.00    -0.316 NA
ATOM      9  C   UNL     1      -4.002 -10.008  10.858  0.00  0.00    +0.004 C 
ATOM     10  C   UNL     1      -4.487 -10.121   9.391  0.00  0.00    +0.012 C 
ATOM     11  C   UNL     1      -5.191  -9.869  11.821  0.00  0.00    +0.019 C 
ATOM     12  C   UNL     1      -5.453  -8.963   9.080  0.00  0.00    +0.085 C 
ATOM     14  C   UNL     1      -6.135  -8.749  11.387  0.00  0.00    +0.081 C 
ATOM     33  H   UNL     1      -7.130  -9.780   9.930  0.00  0.00    +0.122 HD
BRANCH  10  15
ATOM     15  C   UNL     1      -5.134 -11.472   9.056  0.00  0.00    +0.064 C 
BRANCH  15  17
ATOM      2  O   UNL     1      -3.667 -13.473   6.447  0.00  0.00    -0.357 OA
ATOM      8  N   UNL     1      -4.069 -13.269   7.761  0.00  0.00    -0.083 NA
ATOM     17  C   UNL     1      -4.588 -12.038   7.777  0.00  0.00    +0.084 A 
ATOM     23  C   UNL     1      -4.540 -11.422   6.514  0.00  0.00    +0.073 A 
ATOM     26  C   UNL     1      -3.953 -12.367   5.714  0.00  0.00    +0.163 A 
BRANCH  26  29
ATOM     29  C   UNL     1      -3.591 -12.411   4.292  0.00  0.00    +0.236 C 
BRANCH  29   5
ATOM      5  O   UNL     1      -4.744 -12.171   3.480  0.00  0.00    -0.375 OA
ATOM     32  C   UNL     1      -5.221 -13.374   2.899  0.00  0.00    +0.194 C 
ENDBRANCH  29   5
ENDBRANCH  26  29
ENDBRANCH  15  17
ENDBRANCH  10  15
ENDBRANCH  13   9
TORSDOF 8
ENDMDL
