REMARK  Name = 75536291
REMARK  9 active torsions:
REMARK  status: ('A' for Active; 'I' for Inactive)
REMARK    1  A    between atoms: O_2  and  C_9
REMARK    2  A    between atoms: O_4  and  C_23
REMARK    3  A    between atoms: O_4  and  C_24
REMARK    4  A    between atoms: N_5  and  C_7
REMARK    5  A    between atoms: N_5  and  C_12
REMARK    6  A    between atoms: C_8  and  C_12
REMARK    7  A    between atoms: C_13  and  C_19
REMARK    8  A    between atoms: C_19  and  C_20
REMARK    9  A    between atoms: C_22  and  C_23
REMARK                            x       y       z     vdW  Elec       q    Type
REMARK                         _______ _______ _______ _____ _____    ______ ____
ROOT
ATOM      1  O   UNL     1       2.218  -0.415   0.833  0.00  0.00    -0.369 OA
ATOM      8  C   UNL     1       2.611   0.959   0.948  0.00  0.00    +0.161 C 
ATOM      9  C   UNL     1       4.044   1.174   0.446  0.00  0.00    +0.145 C 
ATOM     13  C   UNL     1       2.337  -0.974  -0.478  0.00  0.00    +0.125 C 
ATOM     14  C   UNL     1       4.277   0.556  -0.930  0.00  0.00    +0.036 C 
ATOM     15  C   UNL     1       3.780  -0.887  -0.971  0.00  0.00    +0.034 C 
ENDROOT
BRANCH   9   2
ATOM      2  O   UNL     1       4.951   0.554   1.362  0.00  0.00    -0.389 OA
ATOM     26  H   UNL     1       5.854   0.741   1.053  0.00  0.00    +0.210 HD
ENDBRANCH   9   2
BRANCH   8  12
ATOM     12  C   UNL     1       1.597   1.880   0.271  0.00  0.00    +0.115 C 
BRANCH  12   5
ATOM      5  N   UNL     1       0.260   1.655   0.797  0.00  0.00    -0.311 NA
ATOM     25  H   UNL     1       0.272   1.814   1.804  0.00  0.00    +0.122 HD
BRANCH   5   7
ATOM      7  C   UNL     1      -0.708   2.551   0.167  0.00  0.00    +0.054 C 
ATOM     10  C   UNL     1      -1.940   2.703   1.067  0.00  0.00    +0.019 C 
ATOM     11  C   UNL     1      -1.096   2.011  -1.214  0.00  0.00    +0.019 C 
ATOM     16  C   UNL     1      -3.008   3.573   0.406  0.00  0.00    +0.002 C 
ATOM     17  C   UNL     1      -2.166   2.881  -1.872  0.00  0.00    +0.002 C 
ATOM     18  C   UNL     1      -3.389   3.045  -0.974  0.00  0.00    +0.000 C 
ENDBRANCH   5   7
ENDBRANCH  12   5
ENDBRANCH   8  12
BRANCH  13  19
ATOM     19  C   UNL     1       1.876  -2.424  -0.401  0.00  0.00    +0.090 C 
BRANCH  19  20
ATOM      3  O   UNL     1      -1.641  -2.715  -1.133  0.00  0.00    -0.357 OA
ATOM      6  N   UNL     1      -0.307  -2.634  -1.516  0.00  0.00    -0.083 NA
ATOM     20  C   UNL     1       0.375  -2.531  -0.372  0.00  0.00    +0.086 A 
ATOM     21  C   UNL     1      -0.466  -2.542   0.754  0.00  0.00    +0.073 A 
ATOM     22  C   UNL     1      -1.722  -2.659   0.221  0.00  0.00    +0.163 A 
BRANCH  22  23
ATOM     23  C   UNL     1      -3.069  -2.732   0.799  0.00  0.00    +0.236 C 
BRANCH  23   4
ATOM      4  O   UNL     1      -3.755  -1.490   0.620  0.00  0.00    -0.375 OA
ATOM     24  C   UNL     1      -5.060  -1.539   1.173  0.00  0.00    +0.194 C 
ENDBRANCH  23   4
ENDBRANCH  22  23
ENDBRANCH  19  20
ENDBRANCH  13  19
TORSDOF 8
