REMARK  Name = 11867206
REMARK  3 active torsions:
REMARK  status: ('A' for Active; 'I' for Inactive)
REMARK    1  A    between atoms: S_2  and  N_8
REMARK    2  A    between atoms: S_2  and  C_20
REMARK    3  A    between atoms: N_8  and  C_18
REMARK                            x       y       z     vdW  Elec       q    Type
REMARK                         _______ _______ _______ _____ _____    ______ ____
ROOT
ATOM      3  O   UNL     1      -1.049  -2.370  -0.055  0.00  0.00    -0.266 OA
ATOM      6  N   UNL     1      -2.489  -0.564   0.335  0.00  0.00    -0.310 N 
ATOM      7  N   UNL     1      -4.043   1.304  -1.748  0.00  0.00    -0.315 NA
ATOM      9  C   UNL     1      -4.958  -0.564  -0.347  0.00  0.00    +0.023 C 
ATOM     10  C   UNL     1      -4.001   1.408   0.749  0.00  0.00    +0.050 C 
ATOM     11  C   UNL     1      -5.130   0.383   0.834  0.00  0.00    +0.017 C 
ATOM     12  C   UNL     1      -3.634  -1.323  -0.184  0.00  0.00    +0.130 C 
ATOM     13  C   UNL     1      -5.027   0.226  -1.669  0.00  0.00    +0.086 C 
ATOM     14  C   UNL     1      -4.111   2.186  -0.580  0.00  0.00    +0.090 C 
ATOM     15  C   UNL     1      -2.648   0.728   0.856  0.00  0.00    +0.026 A 
ATOM     16  C   UNL     1      -1.610   1.366   1.427  0.00  0.00    +0.024 A 
ATOM     17  C   UNL     1      -1.248  -1.234   0.371  0.00  0.00    +0.274 A 
ATOM     18  C   UNL     1      -0.136  -0.471   0.994  0.00  0.00    +0.112 A 
ATOM     19  C   UNL     1      -0.312   0.751   1.498  0.00  0.00    +0.031 A 
ATOM     26  H   UNL     1      -4.196   1.848  -2.597  0.00  0.00    +0.122 HD
ENDROOT
BRANCH  18   8
ATOM      8  N   UNL     1       1.149  -1.034   1.078  0.00  0.00    -0.211 N 
ATOM     27  H   UNL     1       1.753  -0.551   1.758  0.00  0.00    +0.174 HD
BRANCH   8   2
ATOM      2  S   UNL     1       1.911  -1.436  -0.380  0.00  0.00    +0.072 S 
ATOM      4  O   UNL     1       2.353  -2.817  -0.335  0.00  0.00    -0.150 OA
ATOM      5  O   UNL     1       1.114  -0.960  -1.494  0.00  0.00    -0.150 OA
BRANCH   2  20
ATOM      1 CL   UNL     1       7.013   2.169  -0.052  0.00  0.00    -0.084 Cl
ATOM     20  C   UNL     1       3.354  -0.418  -0.288  0.00  0.00    +0.109 A 
ATOM     21  C   UNL     1       4.499  -0.921   0.303  0.00  0.00    +0.030 A 
ATOM     22  C   UNL     1       3.309   0.863  -0.809  0.00  0.00    +0.030 A 
ATOM     23  C   UNL     1       5.636  -0.117   0.376  0.00  0.00    +0.022 A 
ATOM     24  C   UNL     1       4.447   1.667  -0.737  0.00  0.00    +0.022 A 
ATOM     25  C   UNL     1       5.610   1.177  -0.144  0.00  0.00    +0.041 A 
ENDBRANCH   2  20
ENDBRANCH   8   2
ENDBRANCH  18   8
TORSDOF 3
