REMARK  Name = 51136910
REMARK  5 active torsions:
REMARK  status: ('A' for Active; 'I' for Inactive)
REMARK    1  A    between atoms: N_2  and  C_9
REMARK    2  A    between atoms: N_3  and  C_19
REMARK    3  A    between atoms: C_10  and  C_18
REMARK    4  A    between atoms: C_20  and  C_21
REMARK    5  A    between atoms: C_25  and  C_26
REMARK                            x       y       z     vdW  Elec       q    Type
REMARK                         _______ _______ _______ _____ _____    ______ ____
ROOT
ATOM      1  O   UNL     1      -1.702   2.177  -1.728  0.00  0.00    -0.336 OA
ATOM      4  N   UNL     1      -1.039   1.125   0.135  0.00  0.00    -0.190 NA
ATOM      5  N   UNL     1      -0.329   1.944  -1.880  0.00  0.00    -0.056 NA
ATOM     18  C   UNL     1      -2.039   1.664  -0.515  0.00  0.00    +0.245 A 
ATOM     20  C   UNL     1      -0.011   1.320  -0.742  0.00  0.00    +0.204 A 
ENDROOT
BRANCH  20  21
ATOM      6  N   UNL     1       3.634   0.697  -1.134  0.00  0.00    -0.254 NA
ATOM     21  C   UNL     1       1.322   0.881  -0.449  0.00  0.00    +0.041 A 
ATOM     22  C   UNL     1       1.618   0.236   0.747  0.00  0.00    +0.015 A 
ATOM     23  C   UNL     1       2.357   1.086  -1.348  0.00  0.00    +0.123 A 
ATOM     24  C   UNL     1       2.920  -0.179   1.004  0.00  0.00    +0.029 A 
ATOM     25  C   UNL     1       3.883   0.073   0.040  0.00  0.00    +0.074 A 
BRANCH  25  26
ATOM      7  N   UNL     1       6.867  -1.834   1.202  0.00  0.00    -0.243 NA
ATOM      8  N   UNL     1       7.605   0.022  -0.146  0.00  0.00    -0.243 NA
ATOM     26  C   UNL     1       5.255  -0.328   0.238  0.00  0.00    +0.037 A 
ATOM     27  C   UNL     1       5.596  -1.431   0.994  0.00  0.00    +0.124 A 
ATOM     28  C   UNL     1       6.312   0.367  -0.313  0.00  0.00    +0.124 A 
ATOM     29  C   UNL     1       7.808  -1.073   0.612  0.00  0.00    +0.221 A 
ENDBRANCH  25  26
ENDBRANCH  20  21
BRANCH  18  10
ATOM      2  N   UNL     1      -3.917   0.726   0.821  0.00  0.00    -0.288 NA
ATOM     10  C   UNL     1      -3.492   1.791  -0.109  0.00  0.00    +0.146 C 
ATOM     11  C   UNL     1      -4.979   1.298   1.648  0.00  0.00    +0.085 C 
ATOM     14  C   UNL     1      -3.787   3.104   0.640  0.00  0.00    +0.030 C 
ATOM     15  C   UNL     1      -4.431   2.678   1.952  0.00  0.00    +0.017 C 
BRANCH   2   9
ATOM      3  N   UNL     1      -4.005  -3.359  -0.351  0.00  0.00    -0.305 NA
ATOM      9  C   UNL     1      -4.346  -0.494   0.141  0.00  0.00    +0.060 C 
ATOM     12  C   UNL     1      -4.761  -1.554   1.165  0.00  0.00    +0.034 C 
ATOM     13  C   UNL     1      -3.232  -1.043  -0.756  0.00  0.00    +0.034 C 
ATOM     16  C   UNL     1      -5.119  -2.873   0.475  0.00  0.00    +0.085 C 
ATOM     17  C   UNL     1      -3.641  -2.379  -1.383  0.00  0.00    +0.085 C 
ATOM     19  C   UNL     1      -4.344  -4.644  -0.962  0.00  0.00    +0.104 C 
ENDBRANCH   2   9
ENDBRANCH  18  10
TORSDOF 4
