MODEL 1
REMARK VINA RESULT:      -7.8      0.000      0.000
REMARK  Name = 11911838
REMARK  8 active torsions:
REMARK  status: ('A' for Active; 'I' for Inactive)
REMARK    1  A    between atoms: N_7  and  C_14
REMARK    2  A    between atoms: N_8  and  C_15
REMARK    3  A    between atoms: N_11  and  C_35
REMARK    4  A    between atoms: N_11  and  C_36
REMARK    5  A    between atoms: N_11  and  C_37
REMARK    6  A    between atoms: C_18  and  C_20
REMARK    7  A    between atoms: C_21  and  C_26
REMARK    8  A    between atoms: C_29  and  C_32
REMARK                            x       y       z     vdW  Elec       q    Type
REMARK                         _______ _______ _______ _____ _____    ______ ____
ROOT
ATOM      4  O   UNL     1       9.837  11.709  12.232  0.00  0.00    -0.370 OA
ATOM      5  O   UNL     1      10.836  14.057  10.436  0.00  0.00    -0.370 OA
ATOM     12  C   UNL     1      10.863  12.628  10.292  0.00  0.00    +0.171 C 
ATOM     13  C   UNL     1      11.116  12.040  11.666  0.00  0.00    +0.171 C 
ATOM     14  C   UNL     1       9.492  12.111   9.918  0.00  0.00    +0.130 C 
ATOM     15  C   UNL     1      11.754  13.170  12.439  0.00  0.00    +0.130 C 
ATOM     16  C   UNL     1       8.810  11.993  11.271  0.00  0.00    +0.185 C 
ATOM     17  C   UNL     1      11.143  14.401  11.796  0.00  0.00    +0.185 C 
ENDROOT
BRANCH  15   8
ATOM      8  N   UNL     1      13.187  13.160  12.238  0.00  0.00    -0.306 N 
ATOM      9  N   UNL     1      13.547  11.749  14.079  0.00  0.00    -0.214 NA
ATOM     10  N   UNL     1      15.392  12.536  12.743  0.00  0.00    -0.223 NA
ATOM     19  C   UNL     1      14.068  12.461  13.045  0.00  0.00    +0.216 A 
ATOM     21  C   UNL     1      14.434  11.080  14.844  0.00  0.00    +0.076 A 
ATOM     24  C   UNL     1      16.222  11.842  13.549  0.00  0.00    +0.116 A 
ATOM     25  C   UNL     1      15.796  11.089  14.624  0.00  0.00    +0.048 A 
ATOM     39  H   UNL     1      13.582  13.644  11.439  0.00  0.00    +0.149 HD
BRANCH  21  26
ATOM     26  C   UNL     1      13.859  10.331  15.935  0.00  0.00    +0.001 A 
ATOM     30  C   UNL     1      14.525  10.254  17.160  0.00  0.00    +0.012 A 
ATOM     31  C   UNL     1      12.636   9.677  15.769  0.00  0.00    +0.012 A 
ATOM     33  C   UNL     1      13.971   9.529  18.215  0.00  0.00    +0.024 A 
ATOM     34  C   UNL     1      12.081   8.952  16.823  0.00  0.00    +0.024 A 
ATOM     35  C   UNL     1      12.748   8.878  18.046  0.00  0.00    +0.029 A 
BRANCH  35  11
ATOM     11  N   UNL     1      12.187   8.144  19.113  0.00  0.00    -0.336 N 
ATOM     36  C   UNL     1      12.744   6.862  19.494  0.00  0.00    +0.129 C 
ATOM     37  C   UNL     1      11.038   8.656  19.831  0.00  0.00    +0.129 C 
ENDBRANCH  35  11
ENDBRANCH  21  26
ENDBRANCH  15   8
BRANCH  14   7
ATOM      6  O   UNL     1       9.275  11.610   7.099  0.00  0.00    -0.270 OA
ATOM      7  N   UNL     1       9.578  10.829   9.262  0.00  0.00    -0.304 N 
ATOM     18  C   UNL     1       9.460  10.686   7.887  0.00  0.00    +0.244 C 
ATOM     38  H   UNL     1       9.614  10.010   9.860  0.00  0.00    +0.149 HD
BRANCH  18  20
ATOM     20  C   UNL     1       9.545   9.297   7.369  0.00  0.00    +0.037 A 
ATOM     22  C   UNL     1      10.108   9.082   6.128  0.00  0.00    +0.013 A 
ATOM     23  C   UNL     1       9.058   8.266   8.145  0.00  0.00    +0.013 A 
ATOM     27  C   UNL     1      10.186   7.777   5.640  0.00  0.00    +0.013 A 
ATOM     28  C   UNL     1       9.136   6.960   7.657  0.00  0.00    +0.013 A 
ATOM     29  C   UNL     1       9.700   6.717   6.405  0.00  0.00    +0.055 A 
BRANCH  29  32
ATOM      1  F   UNL     1       9.833   4.373   6.866  0.00  0.00    -0.166 F 
ATOM      2  F   UNL     1      10.888   5.091   5.113  0.00  0.00    -0.166 F 
ATOM      3  F   UNL     1       8.716   4.988   5.104  0.00  0.00    -0.166 F 
ATOM     32  C   UNL     1       9.785   5.322   5.885  0.00  0.00    +0.417 C 
ENDBRANCH  29  32
ENDBRANCH  18  20
ENDBRANCH  14   7
TORSDOF 6
ENDMDL
MODEL 2
REMARK VINA RESULT:      -7.7     10.804     15.864
REMARK  Name = 11911838
REMARK  8 active torsions:
REMARK  status: ('A' for Active; 'I' for Inactive)
REMARK    1  A    between atoms: N_7  and  C_14
REMARK    2  A    between atoms: N_8  and  C_15
REMARK    3  A    between atoms: N_11  and  C_35
REMARK    4  A    between atoms: N_11  and  C_36
REMARK    5  A    between atoms: N_11  and  C_37
REMARK    6  A    between atoms: C_18  and  C_20
REMARK    7  A    between atoms: C_21  and  C_26
REMARK    8  A    between atoms: C_29  and  C_32
REMARK                            x       y       z     vdW  Elec       q    Type
REMARK                         _______ _______ _______ _____ _____    ______ ____
ROOT
ATOM      4  O   UNL     1       6.650   7.085  -2.545  0.00  0.00    -0.370 OA
ATOM      5  O   UNL     1       8.123   7.472  -5.268  0.00  0.00    -0.370 OA
ATOM     12  C   UNL     1       7.257   6.447  -4.754  0.00  0.00    +0.171 C 
ATOM     13  C   UNL     1       7.580   6.277  -3.283  0.00  0.00    +0.171 C 
ATOM     14  C   UNL     1       5.820   6.919  -4.762  0.00  0.00    +0.130 C 
ATOM     15  C   UNL     1       8.979   6.831  -3.147  0.00  0.00    +0.130 C 
ATOM     16  C   UNL     1       5.727   7.695  -3.459  0.00  0.00    +0.185 C 
ATOM     17  C   UNL     1       9.025   7.890  -4.232  0.00  0.00    +0.185 C 
ENDROOT
BRANCH  15   8
ATOM      8  N   UNL     1       9.951   5.794  -3.418  0.00  0.00    -0.306 N 
ATOM      9  N   UNL     1      10.339   5.408  -1.135  0.00  0.00    -0.214 NA
ATOM     10  N   UNL     1      11.508   4.143  -2.821  0.00  0.00    -0.223 NA
ATOM     19  C   UNL     1      10.619   5.095  -2.428  0.00  0.00    +0.216 A 
ATOM     21  C   UNL     1      11.007   4.706  -0.197  0.00  0.00    +0.076 A 
ATOM     24  C   UNL     1      12.140   3.480  -1.831  0.00  0.00    +0.116 A 
ATOM     25  C   UNL     1      11.929   3.721  -0.489  0.00  0.00    +0.048 A 
ATOM     39  H   UNL     1      10.129   5.516  -4.376  0.00  0.00    +0.149 HD
BRANCH  21  26
ATOM     26  C   UNL     1      10.694   5.054   1.167  0.00  0.00    +0.001 A 
ATOM     30  C   UNL     1      10.090   6.280   1.458  0.00  0.00    +0.012 A 
ATOM     31  C   UNL     1      10.996   4.167   2.203  0.00  0.00    +0.012 A 
ATOM     33  C   UNL     1       9.788   6.616   2.777  0.00  0.00    +0.024 A 
ATOM     34  C   UNL     1      10.694   4.503   3.523  0.00  0.00    +0.024 A 
ATOM     35  C   UNL     1      10.090   5.728   3.810  0.00  0.00    +0.029 A 
BRANCH  35  11
ATOM     11  N   UNL     1       9.785   6.069   5.145  0.00  0.00    -0.336 N 
ATOM     36  C   UNL     1       8.406   6.190   5.574  0.00  0.00    +0.129 C 
ATOM     37  C   UNL     1      10.846   6.315   6.100  0.00  0.00    +0.129 C 
ENDBRANCH  35  11
ENDBRANCH  21  26
ENDBRANCH  15   8
BRANCH  14   7
ATOM      6  O   UNL     1       3.079   6.964  -5.615  0.00  0.00    -0.270 OA
ATOM      7  N   UNL     1       4.904   5.805  -4.775  0.00  0.00    -0.304 N 
ATOM     18  C   UNL     1       3.590   5.925  -5.207  0.00  0.00    +0.244 C 
ATOM     38  H   UNL     1       5.223   4.944  -4.343  0.00  0.00    +0.149 HD
BRANCH  18  20
ATOM     20  C   UNL     1       2.767   4.691  -5.134  0.00  0.00    +0.037 A 
ATOM     22  C   UNL     1       1.578   4.724  -4.436  0.00  0.00    +0.013 A 
ATOM     23  C   UNL     1       3.219   3.551  -5.766  0.00  0.00    +0.013 A 
ATOM     27  C   UNL     1       0.806   3.564  -4.365  0.00  0.00    +0.013 A 
ATOM     28  C   UNL     1       2.447   2.391  -5.695  0.00  0.00    +0.013 A 
ATOM     29  C   UNL     1       1.240   2.398  -4.995  0.00  0.00    +0.055 A 
BRANCH  29  32
ATOM      1  F   UNL     1      -0.522   1.064  -5.909  0.00  0.00    -0.166 F 
ATOM      2  F   UNL     1      -0.286   1.037  -3.754  0.00  0.00    -0.166 F 
ATOM      3  F   UNL     1       1.164   0.022  -5.016  0.00  0.00    -0.166 F 
ATOM     32  C   UNL     1       0.414   1.158  -4.920  0.00  0.00    +0.417 C 
ENDBRANCH  29  32
ENDBRANCH  18  20
ENDBRANCH  14   7
TORSDOF 6
ENDMDL
MODEL 3
REMARK VINA RESULT:      -7.7      8.023     12.569
REMARK  Name = 11911838
REMARK  8 active torsions:
REMARK  status: ('A' for Active; 'I' for Inactive)
REMARK    1  A    between atoms: N_7  and  C_14
REMARK    2  A    between atoms: N_8  and  C_15
REMARK    3  A    between atoms: N_11  and  C_35
REMARK    4  A    between atoms: N_11  and  C_36
REMARK    5  A    between atoms: N_11  and  C_37
REMARK    6  A    between atoms: C_18  and  C_20
REMARK    7  A    between atoms: C_21  and  C_26
REMARK    8  A    between atoms: C_29  and  C_32
REMARK                            x       y       z     vdW  Elec       q    Type
REMARK                         _______ _______ _______ _____ _____    ______ ____
ROOT
ATOM      4  O   UNL     1       4.714  10.238   3.585  0.00  0.00    -0.370 OA
ATOM      5  O   UNL     1       6.426  12.847   3.551  0.00  0.00    -0.370 OA
ATOM     12  C   UNL     1       6.373  11.716   4.436  0.00  0.00    +0.171 C 
ATOM     13  C   UNL     1       4.921  11.291   4.541  0.00  0.00    +0.171 C 
ATOM     14  C   UNL     1       7.060  10.524   3.807  0.00  0.00    +0.130 C 
ATOM     15  C   UNL     1       4.147  12.524   4.138  0.00  0.00    +0.130 C 
ATOM     16  C   UNL     1       5.960   9.936   2.939  0.00  0.00    +0.185 C 
ATOM     17  C   UNL     1       5.091  13.208   3.167  0.00  0.00    +0.185 C 
ENDROOT
BRANCH  15   8
ATOM      8  N   UNL     1       3.920  13.366   5.292  0.00  0.00    -0.306 N 
ATOM      9  N   UNL     1       1.798  12.445   5.685  0.00  0.00    -0.214 NA
ATOM     10  N   UNL     1       2.682  14.172   7.115  0.00  0.00    -0.223 NA
ATOM     19  C   UNL     1       2.765  13.326   6.053  0.00  0.00    +0.216 A 
ATOM     21  C   UNL     1       0.686  12.433   6.449  0.00  0.00    +0.076 A 
ATOM     24  C   UNL     1       1.543  14.106   7.835  0.00  0.00    +0.116 A 
ATOM     25  C   UNL     1       0.501  13.248   7.546  0.00  0.00    +0.048 A 
ATOM     39  H   UNL     1       4.656  13.988   5.607  0.00  0.00    +0.149 HD
BRANCH  21  26
ATOM     26  C   UNL     1      -0.327  11.490   6.041  0.00  0.00    +0.001 A 
ATOM     30  C   UNL     1      -0.879  10.606   6.972  0.00  0.00    +0.012 A 
ATOM     31  C   UNL     1      -0.759  11.456   4.713  0.00  0.00    +0.012 A 
ATOM     33  C   UNL     1      -1.858   9.695   6.578  0.00  0.00    +0.024 A 
ATOM     34  C   UNL     1      -1.739  10.545   4.318  0.00  0.00    +0.024 A 
ATOM     35  C   UNL     1      -2.288   9.664   5.250  0.00  0.00    +0.029 A 
BRANCH  35  11
ATOM     11  N   UNL     1      -3.278   8.741   4.851  0.00  0.00    -0.336 N 
ATOM     36  C   UNL     1      -4.266   9.110   3.857  0.00  0.00    +0.129 C 
ATOM     37  C   UNL     1      -3.328   7.419   5.440  0.00  0.00    +0.129 C 
ENDBRANCH  35  11
ENDBRANCH  21  26
ENDBRANCH  15   8
BRANCH  14   7
ATOM      6  O   UNL     1       8.553   8.112   3.362  0.00  0.00    -0.270 OA
ATOM      7  N   UNL     1       7.494   9.582   4.810  0.00  0.00    -0.304 N 
ATOM     18  C   UNL     1       8.215   8.438   4.497  0.00  0.00    +0.244 C 
ATOM     38  H   UNL     1       7.151   9.728   5.754  0.00  0.00    +0.149 HD
BRANCH  18  20
ATOM     20  C   UNL     1       8.565   7.557   5.640  0.00  0.00    +0.037 A 
ATOM     22  C   UNL     1       8.506   8.071   6.919  0.00  0.00    +0.013 A 
ATOM     23  C   UNL     1       8.937   6.253   5.386  0.00  0.00    +0.013 A 
ATOM     27  C   UNL     1       8.836   7.243   7.993  0.00  0.00    +0.013 A 
ATOM     28  C   UNL     1       9.268   5.426   6.460  0.00  0.00    +0.013 A 
ATOM     29  C   UNL     1       9.217   5.921   7.763  0.00  0.00    +0.055 A 
BRANCH  29  32
ATOM      1  F   UNL     1       9.894   3.764   8.541  0.00  0.00    -0.166 F 
ATOM      2  F   UNL     1       8.561   4.896   9.822  0.00  0.00    -0.166 F 
ATOM      3  F   UNL     1      10.640   5.498   9.620  0.00  0.00    -0.166 F 
ATOM     32  C   UNL     1       9.569   5.037   8.911  0.00  0.00    +0.417 C 
ENDBRANCH  29  32
ENDBRANCH  18  20
ENDBRANCH  14   7
TORSDOF 6
ENDMDL
MODEL 4
REMARK VINA RESULT:      -7.6     25.888     29.005
REMARK  Name = 11911838
REMARK  8 active torsions:
REMARK  status: ('A' for Active; 'I' for Inactive)
REMARK    1  A    between atoms: N_7  and  C_14
REMARK    2  A    between atoms: N_8  and  C_15
REMARK    3  A    between atoms: N_11  and  C_35
REMARK    4  A    between atoms: N_11  and  C_36
REMARK    5  A    between atoms: N_11  and  C_37
REMARK    6  A    between atoms: C_18  and  C_20
REMARK    7  A    between atoms: C_21  and  C_26
REMARK    8  A    between atoms: C_29  and  C_32
REMARK                            x       y       z     vdW  Elec       q    Type
REMARK                         _______ _______ _______ _____ _____    ______ ____
ROOT
ATOM      4  O   UNL     1      -5.314 -11.445  10.605  0.00  0.00    -0.370 OA
ATOM      5  O   UNL     1      -3.754  -8.795  10.082  0.00  0.00    -0.370 OA
ATOM     12  C   UNL     1      -4.539  -9.273  11.187  0.00  0.00    +0.171 C 
ATOM     13  C   UNL     1      -5.699 -10.061  10.609  0.00  0.00    +0.171 C 
ATOM     14  C   UNL     1      -3.760 -10.296  11.982  0.00  0.00    +0.130 C 
ATOM     15  C   UNL     1      -5.824  -9.548   9.194  0.00  0.00    +0.130 C 
ATOM     16  C   UNL     1      -4.017 -11.576  11.204  0.00  0.00    +0.185 C 
ATOM     17  C   UNL     1      -4.398  -9.160   8.852  0.00  0.00    +0.185 C 
ENDROOT
BRANCH  15   8
ATOM      8  N   UNL     1      -6.681  -8.383   9.164  0.00  0.00    -0.306 N 
ATOM      9  N   UNL     1      -7.406  -8.836   6.978  0.00  0.00    -0.214 NA
ATOM     10  N   UNL     1      -8.220  -6.911   8.179  0.00  0.00    -0.223 NA
ATOM     19  C   UNL     1      -7.459  -8.033   8.074  0.00  0.00    +0.216 A 
ATOM     21  C   UNL     1      -8.177  -8.466   5.935  0.00  0.00    +0.076 A 
ATOM     24  C   UNL     1      -8.967  -6.601   7.099  0.00  0.00    +0.116 A 
ATOM     25  C   UNL     1      -8.986  -7.348   5.938  0.00  0.00    +0.048 A 
ATOM     39  H   UNL     1      -6.768  -7.807   9.993  0.00  0.00    +0.149 HD
BRANCH  21  26
ATOM     26  C   UNL     1      -8.107  -9.332   4.784  0.00  0.00    +0.001 A 
ATOM     30  C   UNL     1      -7.122 -10.319   4.707  0.00  0.00    +0.012 A 
ATOM     31  C   UNL     1      -9.024  -9.186   3.740  0.00  0.00    +0.012 A 
ATOM     33  C   UNL     1      -7.053 -11.155   3.593  0.00  0.00    +0.024 A 
ATOM     34  C   UNL     1      -8.956 -10.022   2.626  0.00  0.00    +0.024 A 
ATOM     35  C   UNL     1      -7.971 -11.007   2.552  0.00  0.00    +0.029 A 
BRANCH  35  11
ATOM     11  N   UNL     1      -7.902 -11.853   1.426  0.00  0.00    -0.336 N 
ATOM     36  C   UNL     1      -8.300 -11.369   0.119  0.00  0.00    +0.129 C 
ATOM     37  C   UNL     1      -7.445 -13.221   1.562  0.00  0.00    +0.129 C 
ENDBRANCH  35  11
ENDBRANCH  21  26
ENDBRANCH  15   8
BRANCH  14   7
ATOM      6  O   UNL     1      -2.193 -10.656  14.361  0.00  0.00    -0.270 OA
ATOM      7  N   UNL     1      -4.256 -10.396  13.333  0.00  0.00    -0.304 N 
ATOM     18  C   UNL     1      -3.416 -10.571  14.424  0.00  0.00    +0.244 C 
ATOM     38  H   UNL     1      -5.262 -10.450  13.448  0.00  0.00    +0.149 HD
BRANCH  18  20
ATOM     20  C   UNL     1      -4.084 -10.681  15.746  0.00  0.00    +0.037 A 
ATOM     22  C   UNL     1      -3.411 -11.291  16.784  0.00  0.00    +0.013 A 
ATOM     23  C   UNL     1      -5.357 -10.171  15.894  0.00  0.00    +0.013 A 
ATOM     27  C   UNL     1      -4.040 -11.397  18.025  0.00  0.00    +0.013 A 
ATOM     28  C   UNL     1      -5.986 -10.277  17.135  0.00  0.00    +0.013 A 
ATOM     29  C   UNL     1      -5.327 -10.890  18.200  0.00  0.00    +0.055 A 
BRANCH  29  32
ATOM      1  F   UNL     1      -7.158 -11.722  19.494  0.00  0.00    -0.166 F 
ATOM      2  F   UNL     1      -6.343  -9.796  20.070  0.00  0.00    -0.166 F 
ATOM      3  F   UNL     1      -5.214 -11.612  20.462  0.00  0.00    -0.166 F 
ATOM     32  C   UNL     1      -5.998 -11.002  19.527  0.00  0.00    +0.417 C 
ENDBRANCH  29  32
ENDBRANCH  18  20
ENDBRANCH  14   7
TORSDOF 6
ENDMDL
MODEL 5
REMARK VINA RESULT:      -7.5     25.056     27.138
REMARK  Name = 11911838
REMARK  8 active torsions:
REMARK  status: ('A' for Active; 'I' for Inactive)
REMARK    1  A    between atoms: N_7  and  C_14
REMARK    2  A    between atoms: N_8  and  C_15
REMARK    3  A    between atoms: N_11  and  C_35
REMARK    4  A    between atoms: N_11  and  C_36
REMARK    5  A    between atoms: N_11  and  C_37
REMARK    6  A    between atoms: C_18  and  C_20
REMARK    7  A    between atoms: C_21  and  C_26
REMARK    8  A    between atoms: C_29  and  C_32
REMARK                            x       y       z     vdW  Elec       q    Type
REMARK                         _______ _______ _______ _____ _____    ______ ____
ROOT
ATOM      4  O   UNL     1      -5.699 -12.008  10.042  0.00  0.00    -0.370 OA
ATOM      5  O   UNL     1      -4.885  -8.997  10.145  0.00  0.00    -0.370 OA
ATOM     12  C   UNL     1      -4.346 -10.140   9.459  0.00  0.00    +0.171 C 
ATOM     13  C   UNL     1      -4.481 -11.329  10.389  0.00  0.00    +0.171 C 
ATOM     14  C   UNL     1      -5.214 -10.500   8.274  0.00  0.00    +0.130 C 
ATOM     15  C   UNL     1      -4.598 -10.713  11.763  0.00  0.00    +0.130 C 
ATOM     16  C   UNL     1      -6.297 -11.354   8.912  0.00  0.00    +0.185 C 
ATOM     17  C   UNL     1      -5.267  -9.381  11.474  0.00  0.00    +0.185 C 
ENDROOT
BRANCH  15   8
ATOM      8  N   UNL     1      -3.282 -10.500  12.324  0.00  0.00    -0.306 N 
ATOM      9  N   UNL     1      -4.054 -10.778  14.523  0.00  0.00    -0.214 NA
ATOM     10  N   UNL     1      -1.731 -10.318  14.075  0.00  0.00    -0.223 NA
ATOM     19  C   UNL     1      -3.014 -10.533  13.682  0.00  0.00    +0.216 A 
ATOM     21  C   UNL     1      -3.757 -10.804  15.838  0.00  0.00    +0.076 A 
ATOM     24  C   UNL     1      -1.506 -10.358  15.405  0.00  0.00    +0.116 A 
ATOM     25  C   UNL     1      -2.489 -10.599  16.343  0.00  0.00    +0.048 A 
ATOM     39  H   UNL     1      -2.491 -10.369  11.704  0.00  0.00    +0.149 HD
BRANCH  21  26
ATOM     26  C   UNL     1      -4.874 -11.066  16.713  0.00  0.00    +0.001 A 
ATOM     30  C   UNL     1      -6.151 -11.263  16.181  0.00  0.00    +0.012 A 
ATOM     31  C   UNL     1      -4.683 -11.123  18.096  0.00  0.00    +0.012 A 
ATOM     33  C   UNL     1      -7.230 -11.516  17.027  0.00  0.00    +0.024 A 
ATOM     34  C   UNL     1      -5.763 -11.376  18.942  0.00  0.00    +0.024 A 
ATOM     35  C   UNL     1      -7.037 -11.573  18.408  0.00  0.00    +0.029 A 
BRANCH  35  11
ATOM     11  N   UNL     1      -8.129 -11.829  19.263  0.00  0.00    -0.336 N 
ATOM     36  C   UNL     1      -9.215 -10.875  19.371  0.00  0.00    +0.129 C 
ATOM     37  C   UNL     1      -8.172 -13.040  20.056  0.00  0.00    +0.129 C 
ENDBRANCH  35  11
ENDBRANCH  21  26
ENDBRANCH  15   8
BRANCH  14   7
ATOM      6  O   UNL     1      -5.895 -10.838   5.505  0.00  0.00    -0.270 OA
ATOM      7  N   UNL     1      -4.470 -11.247   7.290  0.00  0.00    -0.304 N 
ATOM     18  C   UNL     1      -4.882 -11.354   5.968  0.00  0.00    +0.244 C 
ATOM     38  H   UNL     1      -3.686 -11.794   7.627  0.00  0.00    +0.149 HD
BRANCH  18  20
ATOM     20  C   UNL     1      -4.020 -12.181   5.085  0.00  0.00    +0.037 A 
ATOM     22  C   UNL     1      -4.291 -12.216   3.733  0.00  0.00    +0.013 A 
ATOM     23  C   UNL     1      -2.976 -12.887   5.646  0.00  0.00    +0.013 A 
ATOM     27  C   UNL     1      -3.482 -12.995   2.904  0.00  0.00    +0.013 A 
ATOM     28  C   UNL     1      -2.167 -13.666   4.817  0.00  0.00    +0.013 A 
ATOM     29  C   UNL     1      -2.420 -13.719   3.446  0.00  0.00    +0.055 A 
BRANCH  29  32
ATOM      1  F   UNL     1      -1.048 -15.659   3.174  0.00  0.00    -0.166 F 
ATOM      2  F   UNL     1      -0.467 -13.882   2.075  0.00  0.00    -0.166 F 
ATOM      3  F   UNL     1      -2.220 -15.011   1.461  0.00  0.00    -0.166 F 
ATOM     32  C   UNL     1      -1.555 -14.550   2.560  0.00  0.00    +0.417 C 
ENDBRANCH  29  32
ENDBRANCH  18  20
ENDBRANCH  14   7
TORSDOF 6
ENDMDL
MODEL 6
REMARK VINA RESULT:      -7.3     26.469     29.097
REMARK  Name = 11911838
REMARK  8 active torsions:
REMARK  status: ('A' for Active; 'I' for Inactive)
REMARK    1  A    between atoms: N_7  and  C_14
REMARK    2  A    between atoms: N_8  and  C_15
REMARK    3  A    between atoms: N_11  and  C_35
REMARK    4  A    between atoms: N_11  and  C_36
REMARK    5  A    between atoms: N_11  and  C_37
REMARK    6  A    between atoms: C_18  and  C_20
REMARK    7  A    between atoms: C_21  and  C_26
REMARK    8  A    between atoms: C_29  and  C_32
REMARK                            x       y       z     vdW  Elec       q    Type
REMARK                         _______ _______ _______ _____ _____    ______ ____
ROOT
ATOM      4  O   UNL     1     -15.155   7.488  22.122  0.00  0.00    -0.370 OA
ATOM      5  O   UNL     1     -13.601   4.878  22.834  0.00  0.00    -0.370 OA
ATOM     12  C   UNL     1     -13.920   5.526  21.591  0.00  0.00    +0.171 C 
ATOM     13  C   UNL     1     -15.310   6.113  21.733  0.00  0.00    +0.171 C 
ATOM     14  C   UNL     1     -13.031   6.731  21.383  0.00  0.00    +0.130 C 
ATOM     15  C   UNL     1     -15.934   5.318  22.855  0.00  0.00    +0.130 C 
ATOM     16  C   UNL     1     -13.757   7.810  22.168  0.00  0.00    +0.185 C 
ATOM     17  C   UNL     1     -14.736   4.949  23.709  0.00  0.00    +0.185 C 
ENDROOT
BRANCH  15   8
ATOM      8  N   UNL     1     -16.559   4.125  22.327  0.00  0.00    -0.306 N 
ATOM      9  N   UNL     1     -16.583   3.076  24.427  0.00  0.00    -0.214 NA
ATOM     10  N   UNL     1     -17.465   1.965  22.478  0.00  0.00    -0.223 NA
ATOM     19  C   UNL     1     -16.878   3.022  23.101  0.00  0.00    +0.216 A 
ATOM     21  C   UNL     1     -16.907   1.985  25.150  0.00  0.00    +0.076 A 
ATOM     24  C   UNL     1     -17.763   0.909  23.262  0.00  0.00    +0.116 A 
ATOM     25  C   UNL     1     -17.505   0.861  24.617  0.00  0.00    +0.048 A 
ATOM     39  H   UNL     1     -16.832   4.095  21.351  0.00  0.00    +0.149 HD
BRANCH  21  26
ATOM     26  C   UNL     1     -16.586   2.063  26.554  0.00  0.00    +0.001 A 
ATOM     30  C   UNL     1     -16.778   0.953  27.381  0.00  0.00    +0.012 A 
ATOM     31  C   UNL     1     -16.082   3.249  27.093  0.00  0.00    +0.012 A 
ATOM     33  C   UNL     1     -16.469   1.029  28.738  0.00  0.00    +0.024 A 
ATOM     34  C   UNL     1     -15.772   3.325  28.451  0.00  0.00    +0.024 A 
ATOM     35  C   UNL     1     -15.965   2.215  29.274  0.00  0.00    +0.029 A 
BRANCH  35  11
ATOM     11  N   UNL     1     -15.652   2.292  30.647  0.00  0.00    -0.336 N 
ATOM     36  C   UNL     1     -14.974   1.194  31.308  0.00  0.00    +0.129 C 
ATOM     37  C   UNL     1     -16.016   3.462  31.418  0.00  0.00    +0.129 C 
ENDBRANCH  35  11
ENDBRANCH  21  26
ENDBRANCH  15   8
BRANCH  14   7
ATOM      6  O   UNL     1     -10.832   8.046  20.086  0.00  0.00    -0.270 OA
ATOM      7  N   UNL     1     -12.936   7.075  19.985  0.00  0.00    -0.304 N 
ATOM     18  C   UNL     1     -11.827   7.713  19.448  0.00  0.00    +0.244 C 
ATOM     38  H   UNL     1     -13.768   6.935  19.422  0.00  0.00    +0.149 HD
BRANCH  18  20
ATOM     20  C   UNL     1     -11.896   8.022  17.997  0.00  0.00    +0.037 A 
ATOM     22  C   UNL     1     -10.720   8.161  17.289  0.00  0.00    +0.013 A 
ATOM     23  C   UNL     1     -13.133   8.161  17.403  0.00  0.00    +0.013 A 
ATOM     27  C   UNL     1     -10.784   8.454  15.926  0.00  0.00    +0.013 A 
ATOM     28  C   UNL     1     -13.198   8.453  16.040  0.00  0.00    +0.013 A 
ATOM     29  C   UNL     1     -12.023   8.599  15.302  0.00  0.00    +0.055 A 
BRANCH  29  32
ATOM      1  F   UNL     1     -11.408   8.024  13.064  0.00  0.00    -0.166 F 
ATOM      2  F   UNL     1     -11.583  10.136  13.523  0.00  0.00    -0.166 F 
ATOM      3  F   UNL     1     -13.371   8.908  13.368  0.00  0.00    -0.166 F 
ATOM     32  C   UNL     1     -12.092   8.910  13.845  0.00  0.00    +0.417 C 
ENDBRANCH  29  32
ENDBRANCH  18  20
ENDBRANCH  14   7
TORSDOF 6
ENDMDL
MODEL 7
REMARK VINA RESULT:      -7.2     31.153     34.314
REMARK  Name = 11911838
REMARK  8 active torsions:
REMARK  status: ('A' for Active; 'I' for Inactive)
REMARK    1  A    between atoms: N_7  and  C_14
REMARK    2  A    between atoms: N_8  and  C_15
REMARK    3  A    between atoms: N_11  and  C_35
REMARK    4  A    between atoms: N_11  and  C_36
REMARK    5  A    between atoms: N_11  and  C_37
REMARK    6  A    between atoms: C_18  and  C_20
REMARK    7  A    between atoms: C_21  and  C_26
REMARK    8  A    between atoms: C_29  and  C_32
REMARK                            x       y       z     vdW  Elec       q    Type
REMARK                         _______ _______ _______ _____ _____    ______ ____
ROOT
ATOM      4  O   UNL     1     -14.028   7.073  32.046  0.00  0.00    -0.370 OA
ATOM      5  O   UNL     1     -15.834   6.007  34.356  0.00  0.00    -0.370 OA
ATOM     12  C   UNL     1     -14.420   6.233  34.237  0.00  0.00    +0.171 C 
ATOM     13  C   UNL     1     -14.022   5.863  32.822  0.00  0.00    +0.171 C 
ATOM     14  C   UNL     1     -14.114   7.711  34.330  0.00  0.00    +0.130 C 
ATOM     15  C   UNL     1     -15.122   4.938  32.358  0.00  0.00    +0.130 C 
ATOM     16  C   UNL     1     -14.341   8.180  32.904  0.00  0.00    +0.185 C 
ATOM     17  C   UNL     1     -16.327   5.439  33.134  0.00  0.00    +0.185 C 
ENDROOT
BRANCH  15   8
ATOM      8  N   UNL     1     -14.815   3.576  32.736  0.00  0.00    -0.306 N 
ATOM      9  N   UNL     1     -15.410   2.740  30.625  0.00  0.00    -0.214 NA
ATOM     10  N   UNL     1     -14.631   1.266  32.365  0.00  0.00    -0.223 NA
ATOM     19  C   UNL     1     -14.956   2.495  31.883  0.00  0.00    +0.216 A 
ATOM     21  C   UNL     1     -15.535   1.665  29.820  0.00  0.00    +0.076 A 
ATOM     24  C   UNL     1     -14.779   0.236  31.506  0.00  0.00    +0.116 A 
ATOM     25  C   UNL     1     -15.232   0.376  30.210  0.00  0.00    +0.048 A 
ATOM     39  H   UNL     1     -14.427   3.388  33.653  0.00  0.00    +0.149 HD
BRANCH  21  26
ATOM     26  C   UNL     1     -16.017   1.947  28.490  0.00  0.00    +0.001 A 
ATOM     30  C   UNL     1     -15.879   3.229  27.951  0.00  0.00    +0.012 A 
ATOM     31  C   UNL     1     -16.625   0.941  27.736  0.00  0.00    +0.012 A 
ATOM     33  C   UNL     1     -16.346   3.502  26.666  0.00  0.00    +0.024 A 
ATOM     34  C   UNL     1     -17.091   1.213  26.450  0.00  0.00    +0.024 A 
ATOM     35  C   UNL     1     -16.952   2.494  25.915  0.00  0.00    +0.029 A 
BRANCH  35  11
ATOM     11  N   UNL     1     -17.424   2.771  24.615  0.00  0.00    -0.336 N 
ATOM     36  C   UNL     1     -18.836   2.652  24.306  0.00  0.00    +0.129 C 
ATOM     37  C   UNL     1     -16.504   3.162  23.567  0.00  0.00    +0.129 C 
ENDBRANCH  35  11
ENDBRANCH  21  26
ENDBRANCH  15   8
BRANCH  14   7
ATOM      6  O   UNL     1     -13.040  10.126  35.452  0.00  0.00    -0.270 OA
ATOM      7  N   UNL     1     -12.750   7.936  34.745  0.00  0.00    -0.304 N 
ATOM     18  C   UNL     1     -12.324   9.145  35.279  0.00  0.00    +0.244 C 
ATOM     38  H   UNL     1     -12.078   7.209  34.524  0.00  0.00    +0.149 HD
BRANCH  18  20
ATOM     20  C   UNL     1     -10.883   9.226  35.631  0.00  0.00    +0.037 A 
ATOM     22  C   UNL     1     -10.064  10.059  34.899  0.00  0.00    +0.013 A 
ATOM     23  C   UNL     1     -10.410   8.464  36.680  0.00  0.00    +0.013 A 
ATOM     27  C   UNL     1      -8.710  10.134  35.230  0.00  0.00    +0.013 A 
ATOM     28  C   UNL     1      -9.057   8.538  37.010  0.00  0.00    +0.013 A 
ATOM     29  C   UNL     1      -8.207   9.374  36.285  0.00  0.00    +0.055 A 
BRANCH  29  32
ATOM      1  F   UNL     1      -6.438  10.559  37.373  0.00  0.00    -0.166 F 
ATOM      2  F   UNL     1      -5.933   9.494  35.552  0.00  0.00    -0.166 F 
ATOM      3  F   UNL     1      -6.341   8.387  37.379  0.00  0.00    -0.166 F 
ATOM     32  C   UNL     1      -6.761   9.454  36.639  0.00  0.00    +0.417 C 
ENDBRANCH  29  32
ENDBRANCH  18  20
ENDBRANCH  14   7
TORSDOF 6
ENDMDL
MODEL 8
REMARK VINA RESULT:      -7.2     11.314     18.403
REMARK  Name = 11911838
REMARK  8 active torsions:
REMARK  status: ('A' for Active; 'I' for Inactive)
REMARK    1  A    between atoms: N_7  and  C_14
REMARK    2  A    between atoms: N_8  and  C_15
REMARK    3  A    between atoms: N_11  and  C_35
REMARK    4  A    between atoms: N_11  and  C_36
REMARK    5  A    between atoms: N_11  and  C_37
REMARK    6  A    between atoms: C_18  and  C_20
REMARK    7  A    between atoms: C_21  and  C_26
REMARK    8  A    between atoms: C_29  and  C_32
REMARK                            x       y       z     vdW  Elec       q    Type
REMARK                         _______ _______ _______ _____ _____    ______ ____
ROOT
ATOM      4  O   UNL     1       8.460   4.294  -3.586  0.00  0.00    -0.370 OA
ATOM      5  O   UNL     1       9.981   6.822  -4.602  0.00  0.00    -0.370 OA
ATOM     12  C   UNL     1       9.471   6.431  -3.317  0.00  0.00    +0.171 C 
ATOM     13  C   UNL     1       8.164   5.700  -3.553  0.00  0.00    +0.171 C 
ATOM     14  C   UNL     1      10.368   5.386  -2.691  0.00  0.00    +0.130 C 
ATOM     15  C   UNL     1       7.717   6.173  -4.916  0.00  0.00    +0.130 C 
ATOM     16  C   UNL     1       9.857   4.101  -3.320  0.00  0.00    +0.185 C 
ATOM     17  C   UNL     1       9.032   6.459  -5.617  0.00  0.00    +0.185 C 
ENDROOT
BRANCH  15   8
ATOM      8  N   UNL     1       6.944   7.389  -4.789  0.00  0.00    -0.306 N 
ATOM      9  N   UNL     1       4.904   6.241  -4.962  0.00  0.00    -0.214 NA
ATOM     10  N   UNL     1       4.958   8.634  -4.680  0.00  0.00    -0.223 NA
ATOM     19  C   UNL     1       5.560   7.422  -4.811  0.00  0.00    +0.216 A 
ATOM     21  C   UNL     1       3.557   6.310  -4.979  0.00  0.00    +0.076 A 
ATOM     24  C   UNL     1       3.608   8.628  -4.705  0.00  0.00    +0.116 A 
ATOM     25  C   UNL     1       2.848   7.486  -4.853  0.00  0.00    +0.048 A 
ATOM     39  H   UNL     1       7.421   8.268  -4.623  0.00  0.00    +0.149 HD
BRANCH  21  26
ATOM     26  C   UNL     1       2.881   5.045  -5.139  0.00  0.00    +0.001 A 
ATOM     30  C   UNL     1       1.711   4.780  -4.423  0.00  0.00    +0.012 A 
ATOM     31  C   UNL     1       3.395   4.081  -6.009  0.00  0.00    +0.012 A 
ATOM     33  C   UNL     1       1.058   3.557  -4.577  0.00  0.00    +0.024 A 
ATOM     34  C   UNL     1       2.742   2.858  -6.164  0.00  0.00    +0.024 A 
ATOM     35  C   UNL     1       1.573   2.596  -5.448  0.00  0.00    +0.029 A 
BRANCH  35  11
ATOM     11  N   UNL     1       0.913   1.359  -5.604  0.00  0.00    -0.336 N 
ATOM     36  C   UNL     1      -0.256   1.254  -6.454  0.00  0.00    +0.129 C 
ATOM     37  C   UNL     1       1.386   0.182  -4.905  0.00  0.00    +0.129 C 
ENDBRANCH  35  11
ENDBRANCH  21  26
ENDBRANCH  15   8
BRANCH  14   7
ATOM      6  O   UNL     1      12.397   4.729  -0.769  0.00  0.00    -0.270 OA
ATOM      7  N   UNL     1      10.219   5.362  -1.256  0.00  0.00    -0.304 N 
ATOM     18  C   UNL     1      11.264   5.030  -0.405  0.00  0.00    +0.244 C 
ATOM     38  H   UNL     1       9.281   5.486  -0.891  0.00  0.00    +0.149 HD
BRANCH  18  20
ATOM     20  C   UNL     1      10.942   5.025   1.046  0.00  0.00    +0.037 A 
ATOM     22  C   UNL     1      10.276   6.107   1.583  0.00  0.00    +0.013 A 
ATOM     23  C   UNL     1      11.320   3.940   1.808  0.00  0.00    +0.013 A 
ATOM     27  C   UNL     1       9.976   6.103   2.946  0.00  0.00    +0.013 A 
ATOM     28  C   UNL     1      11.020   3.936   3.171  0.00  0.00    +0.013 A 
ATOM     29  C   UNL     1      10.348   5.018   3.739  0.00  0.00    +0.055 A 
BRANCH  29  32
ATOM      1  F   UNL     1       8.825   5.593   5.492  0.00  0.00    -0.166 F 
ATOM      2  F   UNL     1      10.941   5.681   5.960  0.00  0.00    -0.166 F 
ATOM      3  F   UNL     1       9.963   3.754   5.716  0.00  0.00    -0.166 F 
ATOM     32  C   UNL     1      10.026   5.014   5.195  0.00  0.00    +0.417 C 
ENDBRANCH  29  32
ENDBRANCH  18  20
ENDBRANCH  14   7
TORSDOF 6
ENDMDL
MODEL 9
REMARK VINA RESULT:      -7.2     19.983     24.839
REMARK  Name = 11911838
REMARK  8 active torsions:
REMARK  status: ('A' for Active; 'I' for Inactive)
REMARK    1  A    between atoms: N_7  and  C_14
REMARK    2  A    between atoms: N_8  and  C_15
REMARK    3  A    between atoms: N_11  and  C_35
REMARK    4  A    between atoms: N_11  and  C_36
REMARK    5  A    between atoms: N_11  and  C_37
REMARK    6  A    between atoms: C_18  and  C_20
REMARK    7  A    between atoms: C_21  and  C_26
REMARK    8  A    between atoms: C_29  and  C_32
REMARK                            x       y       z     vdW  Elec       q    Type
REMARK                         _______ _______ _______ _____ _____    ______ ____
ROOT
ATOM      4  O   UNL     1      21.424  -9.917  23.778  0.00  0.00    -0.370 OA
ATOM      5  O   UNL     1      24.142  -8.445  23.355  0.00  0.00    -0.370 OA
ATOM     12  C   UNL     1      22.776  -8.083  23.096  0.00  0.00    +0.171 C 
ATOM     13  C   UNL     1      22.058  -9.334  22.629  0.00  0.00    +0.171 C 
ATOM     14  C   UNL     1      22.075  -7.717  24.385  0.00  0.00    +0.130 C 
ATOM     15  C   UNL     1      23.166 -10.231  22.130  0.00  0.00    +0.130 C 
ATOM     16  C   UNL     1      21.647  -9.074  24.918  0.00  0.00    +0.185 C 
ATOM     17  C   UNL     1      24.342  -9.821  22.997  0.00  0.00    +0.185 C 
ENDROOT
BRANCH  15   8
ATOM      8  N   UNL     1      23.446  -9.946  20.740  0.00  0.00    -0.306 N 
ATOM      9  N   UNL     1      21.890 -11.533  19.987  0.00  0.00    -0.214 NA
ATOM     10  N   UNL     1      23.175 -10.221  18.425  0.00  0.00    -0.223 NA
ATOM     19  C   UNL     1      22.818 -10.586  19.686  0.00  0.00    +0.216 A 
ATOM     21  C   UNL     1      21.298 -12.137  18.936  0.00  0.00    +0.076 A 
ATOM     24  C   UNL     1      22.542 -10.865  17.422  0.00  0.00    +0.116 A 
ATOM     25  C   UNL     1      21.586 -11.841  17.619  0.00  0.00    +0.048 A 
ATOM     39  H   UNL     1      24.098  -9.206  20.504  0.00  0.00    +0.149 HD
BRANCH  21  26
ATOM     26  C   UNL     1      20.316 -13.137  19.277  0.00  0.00    +0.001 A 
ATOM     30  C   UNL     1      20.118 -13.499  20.612  0.00  0.00    +0.012 A 
ATOM     31  C   UNL     1      19.561 -13.749  18.274  0.00  0.00    +0.012 A 
ATOM     33  C   UNL     1      19.170 -14.467  20.942  0.00  0.00    +0.024 A 
ATOM     34  C   UNL     1      18.612 -14.717  18.603  0.00  0.00    +0.024 A 
ATOM     35  C   UNL     1      18.417 -15.076  19.937  0.00  0.00    +0.029 A 
BRANCH  35  11
ATOM     11  N   UNL     1      17.457 -16.056  20.271  0.00  0.00    -0.336 N 
ATOM     36  C   UNL     1      17.535 -16.757  21.537  0.00  0.00    +0.129 C 
ATOM     37  C   UNL     1      16.391 -16.383  19.346  0.00  0.00    +0.129 C 
ENDBRANCH  35  11
ENDBRANCH  21  26
ENDBRANCH  15   8
BRANCH  14   7
ATOM      6  O   UNL     1      22.001  -4.852  24.555  0.00  0.00    -0.270 OA
ATOM      7  N   UNL     1      20.935  -6.869  24.137  0.00  0.00    -0.304 N 
ATOM     18  C   UNL     1      20.997  -5.486  24.245  0.00  0.00    +0.244 C 
ATOM     38  H   UNL     1      20.044  -7.331  23.989  0.00  0.00    +0.149 HD
BRANCH  18  20
ATOM     20  C   UNL     1      19.729  -4.757  23.982  0.00  0.00    +0.037 A 
ATOM     22  C   UNL     1      18.672  -5.441  23.420  0.00  0.00    +0.013 A 
ATOM     23  C   UNL     1      19.651  -3.419  24.309  0.00  0.00    +0.013 A 
ATOM     27  C   UNL     1      17.482  -4.756  23.172  0.00  0.00    +0.013 A 
ATOM     28  C   UNL     1      18.461  -2.734  24.060  0.00  0.00    +0.013 A 
ATOM     29  C   UNL     1      17.377  -3.403  23.492  0.00  0.00    +0.055 A 
BRANCH  29  32
ATOM      1  F   UNL     1      15.288  -3.299  22.333  0.00  0.00    -0.166 F 
ATOM      2  F   UNL     1      16.292  -1.416  22.719  0.00  0.00    -0.166 F 
ATOM      3  F   UNL     1      15.354  -2.500  24.354  0.00  0.00    -0.166 F 
ATOM     32  C   UNL     1      16.105  -2.670  23.228  0.00  0.00    +0.417 C 
ENDBRANCH  29  32
ENDBRANCH  18  20
ENDBRANCH  14   7
TORSDOF 6
ENDMDL
MODEL 10
REMARK VINA RESULT:      -7.0      7.895     11.301
REMARK  Name = 11911838
REMARK  8 active torsions:
REMARK  status: ('A' for Active; 'I' for Inactive)
REMARK    1  A    between atoms: N_7  and  C_14
REMARK    2  A    between atoms: N_8  and  C_15
REMARK    3  A    between atoms: N_11  and  C_35
REMARK    4  A    between atoms: N_11  and  C_36
REMARK    5  A    between atoms: N_11  and  C_37
REMARK    6  A    between atoms: C_18  and  C_20
REMARK    7  A    between atoms: C_21  and  C_26
REMARK    8  A    between atoms: C_29  and  C_32
REMARK                            x       y       z     vdW  Elec       q    Type
REMARK                         _______ _______ _______ _____ _____    ______ ____
ROOT
ATOM      4  O   UNL     1      13.923   8.837   3.533  0.00  0.00    -0.370 OA
ATOM      5  O   UNL     1      16.218   7.412   5.095  0.00  0.00    -0.370 OA
ATOM     12  C   UNL     1      15.176   6.938   4.226  0.00  0.00    +0.171 C 
ATOM     13  C   UNL     1      13.943   7.775   4.500  0.00  0.00    +0.171 C 
ATOM     14  C   UNL     1      15.514   7.243   2.784  0.00  0.00    +0.130 C 
ATOM     15  C   UNL     1      14.175   8.332   5.885  0.00  0.00    +0.130 C 
ATOM     16  C   UNL     1      15.030   8.675   2.634  0.00  0.00    +0.185 C 
ATOM     17  C   UNL     1      15.688   8.433   5.954  0.00  0.00    +0.185 C 
ENDROOT
BRANCH  15   8
ATOM      8  N   UNL     1      13.690   7.402   6.881  0.00  0.00    -0.306 N 
ATOM      9  N   UNL     1      11.466   7.625   6.166  0.00  0.00    -0.214 NA
ATOM     10  N   UNL     1      12.037   6.165   7.997  0.00  0.00    -0.223 NA
ATOM     19  C   UNL     1      12.358   7.054   7.018  0.00  0.00    +0.216 A 
ATOM     21  C   UNL     1      10.177   7.263   6.328  0.00  0.00    +0.076 A 
ATOM     24  C   UNL     1      10.730   5.848   8.102  0.00  0.00    +0.116 A 
ATOM     25  C   UNL     1       9.746   6.371   7.288  0.00  0.00    +0.048 A 
ATOM     39  H   UNL     1      14.353   6.931   7.487  0.00  0.00    +0.149 HD
BRANCH  21  26
ATOM     26  C   UNL     1       9.248   7.880   5.413  0.00  0.00    +0.001 A 
ATOM     30  C   UNL     1       9.139   7.411   4.101  0.00  0.00    +0.012 A 
ATOM     31  C   UNL     1       8.454   8.950   5.834  0.00  0.00    +0.012 A 
ATOM     33  C   UNL     1       8.242   8.007   3.216  0.00  0.00    +0.024 A 
ATOM     34  C   UNL     1       7.556   9.546   4.949  0.00  0.00    +0.024 A 
ATOM     35  C   UNL     1       7.450   9.076   3.640  0.00  0.00    +0.029 A 
BRANCH  35  11
ATOM     11  N   UNL     1       6.542   9.679   2.745  0.00  0.00    -0.336 N 
ATOM     36  C   UNL     1       6.802   9.671   1.319  0.00  0.00    +0.129 C 
ATOM     37  C   UNL     1       5.345  10.329   3.240  0.00  0.00    +0.129 C 
ENDBRANCH  35  11
ENDBRANCH  21  26
ENDBRANCH  15   8
BRANCH  14   7
ATOM      6  O   UNL     1      16.500   6.197   0.298  0.00  0.00    -0.270 OA
ATOM      7  N   UNL     1      14.815   6.357   1.885  0.00  0.00    -0.304 N 
ATOM     18  C   UNL     1      15.377   5.903   0.700  0.00  0.00    +0.244 C 
ATOM     38  H   UNL     1      13.841   6.166   2.095  0.00  0.00    +0.149 HD
BRANCH  18  20
ATOM     20  C   UNL     1      14.519   5.018  -0.128  0.00  0.00    +0.037 A 
ATOM     22  C   UNL     1      13.731   4.076   0.501  0.00  0.00    +0.013 A 
ATOM     23  C   UNL     1      14.537   5.166  -1.500  0.00  0.00    +0.013 A 
ATOM     27  C   UNL     1      12.926   3.243  -0.278  0.00  0.00    +0.013 A 
ATOM     28  C   UNL     1      13.732   4.333  -2.278  0.00  0.00    +0.013 A 
ATOM     29  C   UNL     1      12.927   3.372  -1.666  0.00  0.00    +0.055 A 
BRANCH  29  32
ATOM      1  F   UNL     1      12.030   1.190  -2.059  0.00  0.00    -0.166 F 
ATOM      2  F   UNL     1      12.459   2.405  -3.804  0.00  0.00    -0.166 F 
ATOM      3  F   UNL     1      10.764   2.894  -2.532  0.00  0.00    -0.166 F 
ATOM     32  C   UNL     1      12.065   2.482  -2.498  0.00  0.00    +0.417 C 
ENDBRANCH  29  32
ENDBRANCH  18  20
ENDBRANCH  14   7
TORSDOF 6
ENDMDL
