REMARK  Name = 51136847
REMARK  7 active torsions:
REMARK  status: ('A' for Active; 'I' for Inactive)
REMARK    1  A    between atoms: O_2  and  C_31
REMARK    2  A    between atoms: O_2  and  C_32
REMARK    3  A    between atoms: N_3  and  C_13
REMARK    4  A    between atoms: N_5  and  C_24
REMARK    5  A    between atoms: C_9  and  C_14
REMARK    6  A    between atoms: C_13  and  C_15
REMARK    7  A    between atoms: C_20  and  C_25
REMARK                            x       y       z     vdW  Elec       q    Type
REMARK                         _______ _______ _______ _____ _____    ______ ____
ROOT
ATOM      1  O   UNL     1      -2.826  -1.555   1.996  0.00  0.00    -0.336 OA
ATOM      6  N   UNL     1      -1.890  -1.108   0.011  0.00  0.00    -0.190 NA
ATOM      7  N   UNL     1      -1.446  -1.476   2.225  0.00  0.00    -0.056 NA
ATOM     14  C   UNL     1      -3.001  -1.327   0.668  0.00  0.00    +0.245 A 
ATOM     20  C   UNL     1      -0.964  -1.209   1.008  0.00  0.00    +0.204 A 
ENDROOT
BRANCH  20  25
ATOM      4  N   UNL     1       4.451  -0.538  -0.068  0.00  0.00    -0.313 N 
ATOM      5  N   UNL     1       7.168  -0.017  -0.780  0.00  0.00    -0.302 NA
ATOM      8  N   UNL     1       2.210  -0.596  -0.829  0.00  0.00    -0.240 NA
ATOM     16  C   UNL     1       4.950  -0.918  -1.395  0.00  0.00    +0.122 C 
ATOM     17  C   UNL     1       5.195   0.529   0.608  0.00  0.00    +0.122 C 
ATOM     18  C   UNL     1       6.459  -1.169  -1.350  0.00  0.00    +0.103 C 
ATOM     19  C   UNL     1       6.697   0.232   0.588  0.00  0.00    +0.103 C 
ATOM     21  C   UNL     1       3.087  -0.707   0.195  0.00  0.00    +0.121 A 
ATOM     24  C   UNL     1       8.612  -0.245  -0.792  0.00  0.00    +0.105 C 
ATOM     25  C   UNL     1       0.437  -1.040   0.754  0.00  0.00    +0.041 A 
ATOM     26  C   UNL     1       2.721  -0.978   1.503  0.00  0.00    +0.044 A 
ATOM     27  C   UNL     1       1.369  -1.147   1.780  0.00  0.00    +0.016 A 
ATOM     30  C   UNL     1       0.904  -0.766  -0.521  0.00  0.00    +0.124 A 
ENDBRANCH  20  25
BRANCH  14   9
ATOM      3  N   UNL     1      -4.622  -0.516  -1.037  0.00  0.00    -0.287 NA
ATOM      9  C   UNL     1      -4.427  -1.358   0.160  0.00  0.00    +0.146 C 
ATOM     10  C   UNL     1      -4.872  -2.767  -0.276  0.00  0.00    +0.030 C 
ATOM     11  C   UNL     1      -5.356  -2.604  -1.710  0.00  0.00    +0.017 C 
ATOM     12  C   UNL     1      -5.704  -1.133  -1.805  0.00  0.00    +0.085 C 
BRANCH   3  13
ATOM     13  C   UNL     1      -4.901   0.878  -0.719  0.00  0.00    +0.120 C 
BRANCH  13  15
ATOM     15  C   UNL     1      -3.646   1.637  -0.376  0.00  0.00    -0.033 A 
ATOM     22  C   UNL     1      -3.524   2.259   0.866  0.00  0.00    +0.008 A 
ATOM     23  C   UNL     1      -2.606   1.718  -1.302  0.00  0.00    +0.008 A 
ATOM     28  C   UNL     1      -2.362   2.962   1.184  0.00  0.00    +0.046 A 
ATOM     29  C   UNL     1      -1.443   2.420  -0.984  0.00  0.00    +0.046 A 
ATOM     31  C   UNL     1      -1.321   3.042   0.258  0.00  0.00    +0.120 A 
BRANCH  31   2
ATOM      2  O   UNL     1      -0.187   3.727   0.568  0.00  0.00    -0.495 OA
ATOM     32  C   UNL     1       0.838   3.769  -0.424  0.00  0.00    +0.277 C 
ENDBRANCH  31   2
ENDBRANCH  13  15
ENDBRANCH   3  13
ENDBRANCH  14   9
TORSDOF 5
