REMARK  Name = 11885261
REMARK  2 active torsions:
REMARK  status: ('A' for Active; 'I' for Inactive)
REMARK    1  A    between atoms: C_14  and  C_15
REMARK    2  A    between atoms: C_23  and  C_25
REMARK                            x       y       z     vdW  Elec       q    Type
REMARK                         _______ _______ _______ _____ _____    ______ ____
ROOT
ATOM      1  O   UNL     1       2.999   0.425   2.136  0.00  0.00    -0.275 OA
ATOM      2  O   UNL     1      -1.984  -1.456   1.665  0.00  0.00    -0.267 OA
ATOM      3  N   UNL     1       2.820  -0.972   0.288  0.00  0.00    -0.300 N 
ATOM      4  N   UNL     1      -0.257  -1.814   0.140  0.00  0.00    -0.311 N 
ATOM      7  C   UNL     1       1.810  -3.217   0.704  0.00  0.00    +0.027 C 
ATOM      8  C   UNL     1       1.606  -2.180  -1.516  0.00  0.00    +0.054 C 
ATOM      9  C   UNL     1       1.853  -3.502  -0.793  0.00  0.00    +0.018 C 
ATOM     10  C   UNL     1       2.892  -2.194   1.090  0.00  0.00    +0.113 C 
ATOM     11  C   UNL     1       2.726  -1.182  -1.165  0.00  0.00    +0.117 C 
ATOM     12  C   UNL     1       0.402  -2.736   1.075  0.00  0.00    +0.130 C 
ATOM     13  C   UNL     1       0.259  -1.594  -1.140  0.00  0.00    +0.027 A 
ATOM     15  C   UNL     1       2.922   0.271   0.914  0.00  0.00    +0.219 C 
ATOM     20  C   UNL     1      -0.423  -0.844  -2.020  0.00  0.00    +0.022 A 
ATOM     22  C   UNL     1      -1.481  -1.257   0.557  0.00  0.00    +0.259 A 
ATOM     23  C   UNL     1      -2.204  -0.390  -0.439  0.00  0.00    +0.050 A 
ATOM     24  C   UNL     1      -1.669  -0.230  -1.658  0.00  0.00    +0.015 A 
ENDROOT
BRANCH  23  25
ATOM      5  N   UNL     1      -5.869   0.269   0.004  0.00  0.00    -0.243 NA
ATOM      6  N   UNL     1      -4.638   2.183   0.795  0.00  0.00    -0.243 NA
ATOM     25  C   UNL     1      -3.469   0.280  -0.091  0.00  0.00    +0.024 A 
ATOM     26  C   UNL     1      -4.692  -0.316  -0.302  0.00  0.00    +0.122 A 
ATOM     27  C   UNL     1      -3.498   1.540   0.464  0.00  0.00    +0.122 A 
ATOM     28  C   UNL     1      -5.770   1.500   0.541  0.00  0.00    +0.221 A 
ENDBRANCH  23  25
BRANCH  15  14
ATOM     14  C   UNL     1       2.927   1.476   0.021  0.00  0.00    +0.075 C 
ATOM     16  C   UNL     1       1.492   1.939  -0.238  0.00  0.00    +0.013 C 
ATOM     17  C   UNL     1       3.770   2.587   0.650  0.00  0.00    +0.013 C 
ATOM     18  C   UNL     1       1.454   3.220  -1.067  0.00  0.00    +0.001 C 
ATOM     19  C   UNL     1       3.727   3.867  -0.181  0.00  0.00    +0.001 C 
ATOM     21  C   UNL     1       2.294   4.326  -0.434  0.00  0.00    +0.000 C 
ENDBRANCH  15  14
TORSDOF 2
