MODEL 1
REMARK VINA RESULT:      -6.6      0.000      0.000
REMARK  Name = 45361174
REMARK  9 active torsions:
REMARK  status: ('A' for Active; 'I' for Inactive)
REMARK    1  A    between atoms: O_4  and  C_26
REMARK    2  A    between atoms: O_4  and  C_30
REMARK    3  A    between atoms: N_5  and  C_18
REMARK    4  A    between atoms: N_6  and  C_17
REMARK    5  A    between atoms: C_12  and  C_16
REMARK    6  A    between atoms: C_16  and  C_19
REMARK    7  A    between atoms: C_17  and  C_25
REMARK    8  A    between atoms: C_19  and  C_23
REMARK    9  A    between atoms: C_20  and  C_26
REMARK                            x       y       z     vdW  Elec       q    Type
REMARK                         _______ _______ _______ _____ _____    ______ ____
ROOT
ATOM      2  O   UNL     1      20.331   6.255  24.164  0.00  0.00    -0.274 OA
ATOM      5  N   UNL     1      18.518   6.568  20.758  0.00  0.00    -0.296 NA
ATOM      6  N   UNL     1      21.762   5.442  22.023  0.00  0.00    -0.285 NA
ATOM      7  N   UNL     1      19.362   8.031  23.096  0.00  0.00    -0.312 N 
ATOM      9  C   UNL     1      19.964   6.284  20.626  0.00  0.00    +0.084 C 
ATOM     10  C   UNL     1      20.898   6.621  21.825  0.00  0.00    +0.161 C 
ATOM     11  C   UNL     1      20.290   4.801  20.373  0.00  0.00    +0.036 C 
ATOM     12  C   UNL     1      18.186   8.011  20.917  0.00  0.00    +0.074 C 
ATOM     13  C   UNL     1      21.745   4.686  20.776  0.00  0.00    +0.087 C 
ATOM     14  C   UNL     1      19.100   8.786  21.886  0.00  0.00    +0.123 C 
ATOM     15  C   UNL     1      20.180   6.919  23.140  0.00  0.00    +0.232 C 
ATOM     18  C   UNL     1      17.767   5.993  19.629  0.00  0.00    +0.105 C 
ATOM     31  H   UNL     1      18.916   8.329  23.958  0.00  0.00    +0.149 HD
ENDROOT
BRANCH  12  16
ATOM     16  C   UNL     1      16.734   8.179  21.414  0.00  0.00    +0.029 C 
BRANCH  16  19
ATOM     19  C   UNL     1      15.867   8.897  20.398  0.00  0.00    +0.097 C 
BRANCH  19  23
ATOM      3  O   UNL     1      14.164   7.380  21.083  0.00  0.00    -0.276 OA
ATOM      8  N   UNL     1      13.733   8.678  19.216  0.00  0.00    -0.296 N 
ATOM     20  C   UNL     1      12.436   8.079  18.894  0.00  0.00    +0.102 C 
ATOM     21  C   UNL     1      12.167   8.544  17.461  0.00  0.00    +0.026 C 
ATOM     22  C   UNL     1      14.107   9.692  18.235  0.00  0.00    +0.108 C 
ATOM     23  C   UNL     1      14.515   8.241  20.274  0.00  0.00    +0.216 C 
ATOM     24  C   UNL     1      12.855   9.902  17.395  0.00  0.00    +0.021 C 
BRANCH  20  26
ATOM     26  C   UNL     1      11.351   8.543  19.863  0.00  0.00    +0.181 C 
BRANCH  26   4
ATOM      4  O   UNL     1      10.900   7.422  20.602  0.00  0.00    -0.381 OA
ATOM     30  C   UNL     1      10.740   7.730  21.982  0.00  0.00    +0.194 C 
ENDBRANCH  26   4
ENDBRANCH  20  26
ENDBRANCH  19  23
ENDBRANCH  16  19
ENDBRANCH  12  16
BRANCH   6  17
ATOM     17  C   UNL     1      23.117   5.783  22.439  0.00  0.00    +0.127 C 
BRANCH  17  25
ATOM      1  S   UNL     1      23.326   3.561  24.099  0.00  0.00    -0.100 S 
ATOM     25  C   UNL     1      23.904   4.561  22.836  0.00  0.00    +0.004 A 
ATOM     27  C   UNL     1      25.087   4.095  22.309  0.00  0.00    +0.012 A 
ATOM     28  C   UNL     1      25.526   2.901  22.950  0.00  0.00    +0.008 A 
ATOM     29  C   UNL     1      24.661   2.500  23.944  0.00  0.00    +0.045 A 
ENDBRANCH  17  25
ENDBRANCH   6  17
TORSDOF 7
ENDMDL
MODEL 2
REMARK VINA RESULT:      -6.4      1.539      2.045
REMARK  Name = 45361174
REMARK  9 active torsions:
REMARK  status: ('A' for Active; 'I' for Inactive)
REMARK    1  A    between atoms: O_4  and  C_26
REMARK    2  A    between atoms: O_4  and  C_30
REMARK    3  A    between atoms: N_5  and  C_18
REMARK    4  A    between atoms: N_6  and  C_17
REMARK    5  A    between atoms: C_12  and  C_16
REMARK    6  A    between atoms: C_16  and  C_19
REMARK    7  A    between atoms: C_17  and  C_25
REMARK    8  A    between atoms: C_19  and  C_23
REMARK    9  A    between atoms: C_20  and  C_26
REMARK                            x       y       z     vdW  Elec       q    Type
REMARK                         _______ _______ _______ _____ _____    ______ ____
ROOT
ATOM      2  O   UNL     1      20.146   6.289  23.919  0.00  0.00    -0.274 OA
ATOM      5  N   UNL     1      17.989   6.836  20.750  0.00  0.00    -0.296 NA
ATOM      6  N   UNL     1      21.250   5.418  21.614  0.00  0.00    -0.285 NA
ATOM      7  N   UNL     1      19.213   8.165  22.999  0.00  0.00    -0.312 N 
ATOM      9  C   UNL     1      19.382   6.439  20.448  0.00  0.00    +0.084 C 
ATOM     10  C   UNL     1      20.471   6.667  21.536  0.00  0.00    +0.161 C 
ATOM     11  C   UNL     1      19.551   4.941  20.135  0.00  0.00    +0.036 C 
ATOM     12  C   UNL     1      17.799   8.296  20.970  0.00  0.00    +0.074 C 
ATOM     13  C   UNL     1      21.028   4.697  20.365  0.00  0.00    +0.087 C 
ATOM     14  C   UNL     1      18.879   8.969  21.839  0.00  0.00    +0.123 C 
ATOM     15  C   UNL     1      19.935   6.989  22.930  0.00  0.00    +0.232 C 
ATOM     18  C   UNL     1      17.069   6.353  19.707  0.00  0.00    +0.105 C 
ATOM     31  H   UNL     1      18.894   8.476  23.911  0.00  0.00    +0.149 HD
ENDROOT
BRANCH  12  16
ATOM     16  C   UNL     1      16.432   8.568  21.634  0.00  0.00    +0.029 C 
BRANCH  16  19
ATOM     19  C   UNL     1      15.620   9.591  20.862  0.00  0.00    +0.097 C 
BRANCH  19  23
ATOM      3  O   UNL     1      13.838   8.259  20.015  0.00  0.00    -0.276 OA
ATOM      8  N   UNL     1      13.293   9.890  21.564  0.00  0.00    -0.296 N 
ATOM     20  C   UNL     1      11.844   9.684  21.520  0.00  0.00    +0.102 C 
ATOM     21  C   UNL     1      11.279  10.936  22.196  0.00  0.00    +0.026 C 
ATOM     22  C   UNL     1      13.646  10.984  22.465  0.00  0.00    +0.108 C 
ATOM     23  C   UNL     1      14.173   9.178  20.765  0.00  0.00    +0.216 C 
ATOM     24  C   UNL     1      12.358  11.310  23.205  0.00  0.00    +0.021 C 
BRANCH  20  26
ATOM     26  C   UNL     1      11.440   8.404  22.249  0.00  0.00    +0.181 C 
BRANCH  26   4
ATOM      4  O   UNL     1      10.837   7.528  21.314  0.00  0.00    -0.381 OA
ATOM     30  C   UNL     1      11.306   6.192  21.466  0.00  0.00    +0.194 C 
ENDBRANCH  26   4
ENDBRANCH  20  26
ENDBRANCH  19  23
ENDBRANCH  16  19
ENDBRANCH  12  16
BRANCH   6  17
ATOM     17  C   UNL     1      22.667   5.636  21.876  0.00  0.00    +0.127 C 
BRANCH  17  25
ATOM      1  S   UNL     1      22.902   3.295  23.358  0.00  0.00    -0.100 S 
ATOM     25  C   UNL     1      23.401   4.340  22.097  0.00  0.00    +0.004 A 
ATOM     27  C   UNL     1      24.477   3.834  21.402  0.00  0.00    +0.012 A 
ATOM     28  C   UNL     1      24.897   2.571  21.911  0.00  0.00    +0.008 A 
ATOM     29  C   UNL     1      24.127   2.160  22.976  0.00  0.00    +0.045 A 
ENDBRANCH  17  25
ENDBRANCH   6  17
TORSDOF 7
ENDMDL
MODEL 3
REMARK VINA RESULT:      -6.4      1.996      2.320
REMARK  Name = 45361174
REMARK  9 active torsions:
REMARK  status: ('A' for Active; 'I' for Inactive)
REMARK    1  A    between atoms: O_4  and  C_26
REMARK    2  A    between atoms: O_4  and  C_30
REMARK    3  A    between atoms: N_5  and  C_18
REMARK    4  A    between atoms: N_6  and  C_17
REMARK    5  A    between atoms: C_12  and  C_16
REMARK    6  A    between atoms: C_16  and  C_19
REMARK    7  A    between atoms: C_17  and  C_25
REMARK    8  A    between atoms: C_19  and  C_23
REMARK    9  A    between atoms: C_20  and  C_26
REMARK                            x       y       z     vdW  Elec       q    Type
REMARK                         _______ _______ _______ _____ _____    ______ ____
ROOT
ATOM      2  O   UNL     1      20.120   6.217  23.801  0.00  0.00    -0.274 OA
ATOM      5  N   UNL     1      17.855   6.701  20.699  0.00  0.00    -0.296 NA
ATOM      6  N   UNL     1      21.129   5.268  21.483  0.00  0.00    -0.285 NA
ATOM      7  N   UNL     1      19.176   8.078  22.863  0.00  0.00    -0.312 N 
ATOM      9  C   UNL     1      19.232   6.279  20.358  0.00  0.00    +0.084 C 
ATOM     10  C   UNL     1      20.363   6.525  21.399  0.00  0.00    +0.161 C 
ATOM     11  C   UNL     1      19.373   4.771  20.081  0.00  0.00    +0.036 C 
ATOM     12  C   UNL     1      17.689   8.170  20.884  0.00  0.00    +0.074 C 
ATOM     13  C   UNL     1      20.854   4.516  20.264  0.00  0.00    +0.087 C 
ATOM     14  C   UNL     1      18.808   8.853  21.694  0.00  0.00    +0.123 C 
ATOM     15  C   UNL     1      19.881   6.892  22.801  0.00  0.00    +0.232 C 
ATOM     18  C   UNL     1      16.892   6.201  19.703  0.00  0.00    +0.105 C 
ATOM     31  H   UNL     1      18.894   8.418  23.777  0.00  0.00    +0.149 HD
ENDROOT
BRANCH  12  16
ATOM     16  C   UNL     1      16.351   8.477  21.590  0.00  0.00    +0.029 C 
BRANCH  16  19
ATOM     19  C   UNL     1      15.548   9.528  20.847  0.00  0.00    +0.097 C 
BRANCH  19  23
ATOM      3  O   UNL     1      14.391  10.614  22.622  0.00  0.00    -0.276 OA
ATOM      8  N   UNL     1      13.115   9.420  21.105  0.00  0.00    -0.296 N 
ATOM     20  C   UNL     1      11.830   9.613  21.781  0.00  0.00    +0.102 C 
ATOM     21  C   UNL     1      10.918   8.570  21.131  0.00  0.00    +0.026 C 
ATOM     22  C   UNL     1      12.969   8.582  19.918  0.00  0.00    +0.108 C 
ATOM     23  C   UNL     1      14.307   9.909  21.615  0.00  0.00    +0.216 C 
ATOM     24  C   UNL     1      11.467   8.454  19.714  0.00  0.00    +0.021 C 
BRANCH  20  26
ATOM     26  C   UNL     1      11.307  11.035  21.588  0.00  0.00    +0.181 C 
BRANCH  26   4
ATOM      4  O   UNL     1      11.414  11.723  22.821  0.00  0.00    -0.381 OA
ATOM     30  C   UNL     1      10.918  10.944  23.905  0.00  0.00    +0.194 C 
ENDBRANCH  26   4
ENDBRANCH  20  26
ENDBRANCH  19  23
ENDBRANCH  16  19
ENDBRANCH  12  16
BRANCH   6  17
ATOM     17  C   UNL     1      22.558   5.477  21.688  0.00  0.00    +0.127 C 
BRANCH  17  25
ATOM      1  S   UNL     1      24.522   4.328  20.089  0.00  0.00    -0.100 S 
ATOM     25  C   UNL     1      23.358   4.249  21.341  0.00  0.00    +0.004 A 
ATOM     27  C   UNL     1      23.295   2.996  21.909  0.00  0.00    +0.012 A 
ATOM     28  C   UNL     1      24.215   2.089  21.308  0.00  0.00    +0.008 A 
ATOM     29  C   UNL     1      24.946   2.683  20.303  0.00  0.00    +0.045 A 
ENDBRANCH  17  25
ENDBRANCH   6  17
TORSDOF 7
ENDMDL
MODEL 4
REMARK VINA RESULT:      -6.3     28.266     31.879
REMARK  Name = 45361174
REMARK  9 active torsions:
REMARK  status: ('A' for Active; 'I' for Inactive)
REMARK    1  A    between atoms: O_4  and  C_26
REMARK    2  A    between atoms: O_4  and  C_30
REMARK    3  A    between atoms: N_5  and  C_18
REMARK    4  A    between atoms: N_6  and  C_17
REMARK    5  A    between atoms: C_12  and  C_16
REMARK    6  A    between atoms: C_16  and  C_19
REMARK    7  A    between atoms: C_17  and  C_25
REMARK    8  A    between atoms: C_19  and  C_23
REMARK    9  A    between atoms: C_20  and  C_26
REMARK                            x       y       z     vdW  Elec       q    Type
REMARK                         _______ _______ _______ _____ _____    ______ ____
ROOT
ATOM      2  O   UNL     1      -5.903  -9.257  16.253  0.00  0.00    -0.274 OA
ATOM      5  N   UNL     1      -9.154 -10.195  18.135  0.00  0.00    -0.296 NA
ATOM      6  N   UNL     1      -6.000 -11.789  17.185  0.00  0.00    -0.285 NA
ATOM      7  N   UNL     1      -8.108  -9.181  15.645  0.00  0.00    -0.312 N 
ATOM      9  C   UNL     1      -8.305 -11.364  17.816  0.00  0.00    +0.084 C 
ATOM     10  C   UNL     1      -7.263 -11.233  16.666  0.00  0.00    +0.161 C 
ATOM     11  C   UNL     1      -7.429 -11.839  18.989  0.00  0.00    +0.036 C 
ATOM     12  C   UNL     1     -10.069  -9.779  17.035  0.00  0.00    +0.074 C 
ATOM     13  C   UNL     1      -6.343 -12.648  18.313  0.00  0.00    +0.087 C 
ATOM     14  C   UNL     1      -9.434  -9.769  15.631  0.00  0.00    +0.123 C 
ATOM     15  C   UNL     1      -7.003  -9.805  16.191  0.00  0.00    +0.232 C 
ATOM     18  C   UNL     1      -9.917 -10.425  19.373  0.00  0.00    +0.105 C 
ATOM     31  H   UNL     1      -7.983  -8.259  15.239  0.00  0.00    +0.149 HD
ENDROOT
BRANCH  12  16
ATOM     16  C   UNL     1     -10.627  -8.365  17.303  0.00  0.00    +0.029 C 
BRANCH  16  19
ATOM     19  C   UNL     1     -11.977  -8.155  16.644  0.00  0.00    +0.097 C 
BRANCH  19  23
ATOM      3  O   UNL     1     -11.328  -5.879  16.385  0.00  0.00    -0.276 OA
ATOM      8  N   UNL     1     -13.012  -6.661  15.004  0.00  0.00    -0.296 N 
ATOM     20  C   UNL     1     -13.298  -5.382  14.350  0.00  0.00    +0.102 C 
ATOM     21  C   UNL     1     -14.651  -5.615  13.672  0.00  0.00    +0.026 C 
ATOM     22  C   UNL     1     -13.908  -7.712  14.527  0.00  0.00    +0.108 C 
ATOM     23  C   UNL     1     -12.068  -6.790  16.009  0.00  0.00    +0.216 C 
ATOM     24  C   UNL     1     -14.625  -7.100  13.332  0.00  0.00    +0.021 C 
BRANCH  20  26
ATOM     26  C   UNL     1     -12.207  -5.013  13.346  0.00  0.00    +0.181 C 
BRANCH  26   4
ATOM      4  O   UNL     1     -12.351  -3.645  13.011  0.00  0.00    -0.381 OA
ATOM     30  C   UNL     1     -12.403  -3.450  11.601  0.00  0.00    +0.194 C 
ENDBRANCH  26   4
ENDBRANCH  20  26
ENDBRANCH  19  23
ENDBRANCH  16  19
ENDBRANCH  12  16
BRANCH   6  17
ATOM     17  C   UNL     1      -5.222 -12.495  16.174  0.00  0.00    +0.127 C 
BRANCH  17  25
ATOM      1  S   UNL     1      -3.029 -12.141  14.502  0.00  0.00    -0.100 S 
ATOM     25  C   UNL     1      -3.871 -11.864  15.966  0.00  0.00    +0.004 A 
ATOM     27  C   UNL     1      -3.164 -11.049  16.823  0.00  0.00    +0.012 A 
ATOM     28  C   UNL     1      -1.914 -10.647  16.269  0.00  0.00    +0.008 A 
ATOM     29  C   UNL     1      -1.713 -11.170  15.011  0.00  0.00    +0.045 A 
ENDBRANCH  17  25
ENDBRANCH   6  17
TORSDOF 7
ENDMDL
MODEL 5
REMARK VINA RESULT:      -6.2     28.214     30.834
REMARK  Name = 45361174
REMARK  9 active torsions:
REMARK  status: ('A' for Active; 'I' for Inactive)
REMARK    1  A    between atoms: O_4  and  C_26
REMARK    2  A    between atoms: O_4  and  C_30
REMARK    3  A    between atoms: N_5  and  C_18
REMARK    4  A    between atoms: N_6  and  C_17
REMARK    5  A    between atoms: C_12  and  C_16
REMARK    6  A    between atoms: C_16  and  C_19
REMARK    7  A    between atoms: C_17  and  C_25
REMARK    8  A    between atoms: C_19  and  C_23
REMARK    9  A    between atoms: C_20  and  C_26
REMARK                            x       y       z     vdW  Elec       q    Type
REMARK                         _______ _______ _______ _____ _____    ______ ____
ROOT
ATOM      2  O   UNL     1      -1.182 -10.970  15.380  0.00  0.00    -0.274 OA
ATOM      5  N   UNL     1      -4.429 -12.827  16.380  0.00  0.00    -0.296 NA
ATOM      6  N   UNL     1      -2.389 -12.329  13.383  0.00  0.00    -0.285 NA
ATOM      7  N   UNL     1      -3.130 -10.251  16.341  0.00  0.00    -0.312 N 
ATOM      9  C   UNL     1      -4.220 -12.761  14.916  0.00  0.00    +0.084 C 
ATOM     10  C   UNL     1      -3.278 -11.658  14.350  0.00  0.00    +0.161 C 
ATOM     11  C   UNL     1      -3.615 -14.041  14.313  0.00  0.00    +0.036 C 
ATOM     12  C   UNL     1      -5.093 -11.627  16.962  0.00  0.00    +0.074 C 
ATOM     13  C   UNL     1      -3.044 -13.572  12.991  0.00  0.00    +0.087 C 
ATOM     14  C   UNL     1      -4.577 -10.276  16.430  0.00  0.00    +0.123 C 
ATOM     15  C   UNL     1      -2.412 -10.952  15.392  0.00  0.00    +0.232 C 
ATOM     18  C   UNL     1      -5.166 -14.047  16.749  0.00  0.00    +0.105 C 
ATOM     31  H   UNL     1      -2.613  -9.696  17.016  0.00  0.00    +0.149 HD
ENDROOT
BRANCH  12  16
ATOM     16  C   UNL     1      -4.933 -11.614  18.497  0.00  0.00    +0.029 C 
BRANCH  16  19
ATOM     19  C   UNL     1      -5.826 -10.576  19.150  0.00  0.00    +0.097 C 
BRANCH  19  23
ATOM      3  O   UNL     1      -7.430 -12.035  20.135  0.00  0.00    -0.276 OA
ATOM      8  N   UNL     1      -8.213 -10.481  18.609  0.00  0.00    -0.296 N 
ATOM     20  C   UNL     1      -9.605 -10.934  18.609  0.00  0.00    +0.102 C 
ATOM     21  C   UNL     1     -10.203 -10.270  17.367  0.00  0.00    +0.026 C 
ATOM     22  C   UNL     1      -8.013  -9.381  17.669  0.00  0.00    +0.108 C 
ATOM     23  C   UNL     1      -7.223 -11.107  19.350  0.00  0.00    +0.216 C 
ATOM     24  C   UNL     1      -9.417  -8.971  17.246  0.00  0.00    +0.021 C 
BRANCH  20  26
ATOM     26  C   UNL     1     -10.327 -10.517  19.889  0.00  0.00    +0.181 C 
BRANCH  26   4
ATOM      4  O   UNL     1     -11.715 -10.737  19.714  0.00  0.00    -0.381 OA
ATOM     30  C   UNL     1     -12.493  -9.907  20.569  0.00  0.00    +0.194 C 
ENDBRANCH  26   4
ENDBRANCH  20  26
ENDBRANCH  19  23
ENDBRANCH  16  19
ENDBRANCH  12  16
BRANCH   6  17
ATOM     17  C   UNL     1      -2.059 -11.497  12.232  0.00  0.00    +0.127 C 
BRANCH  17  25
ATOM      1  S   UNL     1      -4.261  -9.973  11.482  0.00  0.00    -0.100 S 
ATOM     25  C   UNL     1      -3.234 -11.332  11.305  0.00  0.00    +0.004 A 
ATOM     27  C   UNL     1      -3.636 -12.152  10.275  0.00  0.00    +0.012 A 
ATOM     28  C   UNL     1      -4.803 -11.659   9.622  0.00  0.00    +0.008 A 
ATOM     29  C   UNL     1      -5.249 -10.481  10.179  0.00  0.00    +0.045 A 
ENDBRANCH  17  25
ENDBRANCH   6  17
TORSDOF 7
ENDMDL
MODEL 6
REMARK VINA RESULT:      -6.2     17.864     22.009
REMARK  Name = 45361174
REMARK  9 active torsions:
REMARK  status: ('A' for Active; 'I' for Inactive)
REMARK    1  A    between atoms: O_4  and  C_26
REMARK    2  A    between atoms: O_4  and  C_30
REMARK    3  A    between atoms: N_5  and  C_18
REMARK    4  A    between atoms: N_6  and  C_17
REMARK    5  A    between atoms: C_12  and  C_16
REMARK    6  A    between atoms: C_16  and  C_19
REMARK    7  A    between atoms: C_17  and  C_25
REMARK    8  A    between atoms: C_19  and  C_23
REMARK    9  A    between atoms: C_20  and  C_26
REMARK                            x       y       z     vdW  Elec       q    Type
REMARK                         _______ _______ _______ _____ _____    ______ ____
ROOT
ATOM      2  O   UNL     1       9.976   4.811  -1.391  0.00  0.00    -0.274 OA
ATOM      5  N   UNL     1      12.639   5.444   1.347  0.00  0.00    -0.296 NA
ATOM      6  N   UNL     1      12.394   3.706  -1.864  0.00  0.00    -0.285 NA
ATOM      7  N   UNL     1       9.998   4.390   0.858  0.00  0.00    -0.312 N 
ATOM      9  C   UNL     1      13.043   4.414   0.365  0.00  0.00    +0.084 C 
ATOM     10  C   UNL     1      11.934   3.702  -0.463  0.00  0.00    +0.161 C 
ATOM     11  C   UNL     1      13.981   4.936  -0.738  0.00  0.00    +0.036 C 
ATOM     12  C   UNL     1      11.802   4.932   2.467  0.00  0.00    +0.074 C 
ATOM     13  C   UNL     1      13.838   3.906  -1.839  0.00  0.00    +0.087 C 
ATOM     14  C   UNL     1      10.692   3.946   2.052  0.00  0.00    +0.123 C 
ATOM     15  C   UNL     1      10.559   4.364  -0.404  0.00  0.00    +0.232 C 
ATOM     18  C   UNL     1      13.816   6.155   1.874  0.00  0.00    +0.105 C 
ATOM     31  H   UNL     1       9.052   4.747   0.953  0.00  0.00    +0.149 HD
ENDROOT
BRANCH  12  16
ATOM     16  C   UNL     1      11.127   6.102   3.215  0.00  0.00    +0.029 C 
BRANCH  16  19
ATOM     19  C   UNL     1       9.734   5.740   3.694  0.00  0.00    +0.097 C 
BRANCH  19  23
ATOM      3  O   UNL     1       9.927   4.209   5.507  0.00  0.00    -0.276 OA
ATOM      8  N   UNL     1       9.527   6.426   6.036  0.00  0.00    -0.296 N 
ATOM     20  C   UNL     1       9.404   6.232   7.482  0.00  0.00    +0.102 C 
ATOM     21  C   UNL     1       8.756   7.530   7.969  0.00  0.00    +0.026 C 
ATOM     22  C   UNL     1       9.299   7.820   5.666  0.00  0.00    +0.108 C 
ATOM     23  C   UNL     1       9.739   5.375   5.157  0.00  0.00    +0.216 C 
ATOM     24  C   UNL     1       9.276   8.574   6.988  0.00  0.00    +0.021 C 
BRANCH  20  26
ATOM     26  C   UNL     1      10.765   5.990   8.130  0.00  0.00    +0.181 C 
BRANCH  26   4
ATOM      4  O   UNL     1      10.579   5.180   9.277  0.00  0.00    -0.381 OA
ATOM     30  C   UNL     1       9.466   4.305   9.129  0.00  0.00    +0.194 C 
ENDBRANCH  26   4
ENDBRANCH  20  26
ENDBRANCH  19  23
ENDBRANCH  16  19
ENDBRANCH  12  16
BRANCH   6  17
ATOM     17  C   UNL     1      12.019   2.503  -2.598  0.00  0.00    +0.127 C 
BRANCH  17  25
ATOM      1  S   UNL     1       9.673   2.682  -4.080  0.00  0.00    -0.100 S 
ATOM     25  C   UNL     1      11.370   2.832  -3.916  0.00  0.00    +0.004 A 
ATOM     27  C   UNL     1      11.966   3.260  -5.082  0.00  0.00    +0.012 A 
ATOM     28  C   UNL     1      11.016   3.468  -6.123  0.00  0.00    +0.008 A 
ATOM     29  C   UNL     1       9.730   3.190  -5.715  0.00  0.00    +0.045 A 
ENDBRANCH  17  25
ENDBRANCH   6  17
TORSDOF 7
ENDMDL
MODEL 7
REMARK VINA RESULT:      -6.1     28.676     31.442
REMARK  Name = 45361174
REMARK  9 active torsions:
REMARK  status: ('A' for Active; 'I' for Inactive)
REMARK    1  A    between atoms: O_4  and  C_26
REMARK    2  A    between atoms: O_4  and  C_30
REMARK    3  A    between atoms: N_5  and  C_18
REMARK    4  A    between atoms: N_6  and  C_17
REMARK    5  A    between atoms: C_12  and  C_16
REMARK    6  A    between atoms: C_16  and  C_19
REMARK    7  A    between atoms: C_17  and  C_25
REMARK    8  A    between atoms: C_19  and  C_23
REMARK    9  A    between atoms: C_20  and  C_26
REMARK                            x       y       z     vdW  Elec       q    Type
REMARK                         _______ _______ _______ _____ _____    ______ ____
ROOT
ATOM      2  O   UNL     1      -6.836  -8.719  11.904  0.00  0.00    -0.274 OA
ATOM      5  N   UNL     1      -3.347 -10.319  12.413  0.00  0.00    -0.296 NA
ATOM      6  N   UNL     1      -5.628  -9.582   9.648  0.00  0.00    -0.285 NA
ATOM      7  N   UNL     1      -6.120 -10.466  13.197  0.00  0.00    -0.312 N 
ATOM      9  C   UNL     1      -3.899 -10.537  11.057  0.00  0.00    +0.084 C 
ATOM     10  C   UNL     1      -5.437 -10.411  10.852  0.00  0.00    +0.161 C 
ATOM     11  C   UNL     1      -3.353  -9.565   9.996  0.00  0.00    +0.036 C 
ATOM     12  C   UNL     1      -3.802 -11.308  13.429  0.00  0.00    +0.074 C 
ATOM     13  C   UNL     1      -4.384  -9.636   8.889  0.00  0.00    +0.087 C 
ATOM     14  C   UNL     1      -5.304 -11.651  13.376  0.00  0.00    +0.123 C 
ATOM     15  C   UNL     1      -6.191  -9.761  12.011  0.00  0.00    +0.232 C 
ATOM     18  C   UNL     1      -1.876 -10.265  12.377  0.00  0.00    +0.105 C 
ATOM     31  H   UNL     1      -6.663 -10.128  13.985  0.00  0.00    +0.149 HD
ENDROOT
BRANCH  12  16
ATOM     16  C   UNL     1      -3.492 -10.799  14.853  0.00  0.00    +0.029 C 
BRANCH  16  19
ATOM     19  C   UNL     1      -4.324 -11.512  15.903  0.00  0.00    +0.097 C 
BRANCH  19  23
ATOM      3  O   UNL     1      -5.462  -9.430  16.102  0.00  0.00    -0.276 OA
ATOM      8  N   UNL     1      -6.050 -11.102  17.590  0.00  0.00    -0.296 N 
ATOM     20  C   UNL     1      -6.992 -10.301  18.375  0.00  0.00    +0.102 C 
ATOM     21  C   UNL     1      -7.199 -11.127  19.647  0.00  0.00    +0.026 C 
ATOM     22  C   UNL     1      -5.921 -12.451  18.133  0.00  0.00    +0.108 C 
ATOM     23  C   UNL     1      -5.325 -10.576  16.532  0.00  0.00    +0.216 C 
ATOM     24  C   UNL     1      -7.032 -12.564  19.166  0.00  0.00    +0.021 C 
BRANCH  20  26
ATOM     26  C   UNL     1      -8.299 -10.074  17.617  0.00  0.00    +0.181 C 
BRANCH  26   4
ATOM      4  O   UNL     1      -8.428  -8.689  17.352  0.00  0.00    -0.381 OA
ATOM     30  C   UNL     1      -9.368  -8.438  16.312  0.00  0.00    +0.194 C 
ENDBRANCH  26   4
ENDBRANCH  20  26
ENDBRANCH  19  23
ENDBRANCH  16  19
ENDBRANCH  12  16
BRANCH   6  17
ATOM     17  C   UNL     1      -6.777  -9.986   8.847  0.00  0.00    +0.127 C 
BRANCH  17  25
ATOM      1  S   UNL     1      -7.439  -8.935   6.358  0.00  0.00    -0.100 S 
ATOM     25  C   UNL     1      -7.348  -8.832   8.065  0.00  0.00    +0.004 A 
ATOM     27  C   UNL     1      -7.837  -7.635   8.537  0.00  0.00    +0.012 A 
ATOM     28  C   UNL     1      -8.293  -6.790   7.485  0.00  0.00    +0.008 A 
ATOM     29  C   UNL     1      -8.134  -7.374   6.247  0.00  0.00    +0.045 A 
ENDBRANCH  17  25
ENDBRANCH   6  17
TORSDOF 7
ENDMDL
MODEL 8
REMARK VINA RESULT:      -5.9     28.113     31.166
REMARK  Name = 45361174
REMARK  9 active torsions:
REMARK  status: ('A' for Active; 'I' for Inactive)
REMARK    1  A    between atoms: O_4  and  C_26
REMARK    2  A    between atoms: O_4  and  C_30
REMARK    3  A    between atoms: N_5  and  C_18
REMARK    4  A    between atoms: N_6  and  C_17
REMARK    5  A    between atoms: C_12  and  C_16
REMARK    6  A    between atoms: C_16  and  C_19
REMARK    7  A    between atoms: C_17  and  C_25
REMARK    8  A    between atoms: C_19  and  C_23
REMARK    9  A    between atoms: C_20  and  C_26
REMARK                            x       y       z     vdW  Elec       q    Type
REMARK                         _______ _______ _______ _____ _____    ______ ____
ROOT
ATOM      2  O   UNL     1      -5.852  -9.493  13.231  0.00  0.00    -0.274 OA
ATOM      5  N   UNL     1      -3.116 -10.848  15.612  0.00  0.00    -0.296 NA
ATOM      6  N   UNL     1      -3.645 -10.459  12.012  0.00  0.00    -0.285 NA
ATOM      7  N   UNL     1      -5.893 -11.090  14.869  0.00  0.00    -0.312 N 
ATOM      9  C   UNL     1      -2.885 -11.202  14.194  0.00  0.00    +0.084 C 
ATOM     10  C   UNL     1      -4.097 -11.179  13.217  0.00  0.00    +0.161 C 
ATOM     11  C   UNL     1      -1.878 -10.286  13.477  0.00  0.00    +0.036 C 
ATOM     12  C   UNL     1      -4.023 -11.779  16.340  0.00  0.00    +0.074 C 
ATOM     13  C   UNL     1      -2.187 -10.501  12.010  0.00  0.00    +0.087 C 
ATOM     14  C   UNL     1      -5.278 -12.209  15.555  0.00  0.00    +0.123 C 
ATOM     15  C   UNL     1      -5.347 -10.485  13.754  0.00  0.00    +0.232 C 
ATOM     18  C   UNL     1      -1.839 -10.713  16.332  0.00  0.00    +0.105 C 
ATOM     31  H   UNL     1      -6.769 -10.723  15.230  0.00  0.00    +0.149 HD
ENDROOT
BRANCH  12  16
ATOM     16  C   UNL     1      -4.498 -11.143  17.664  0.00  0.00    +0.029 C 
BRANCH  16  19
ATOM     19  C   UNL     1      -4.909 -12.192  18.680  0.00  0.00    +0.097 C 
BRANCH  19  23
ATOM      3  O   UNL     1      -6.073 -10.921  20.323  0.00  0.00    -0.276 OA
ATOM      8  N   UNL     1      -7.323 -12.386  19.040  0.00  0.00    -0.296 N 
ATOM     20  C   UNL     1      -8.597 -12.164  19.727  0.00  0.00    +0.102 C 
ATOM     21  C   UNL     1      -9.468 -13.336  19.267  0.00  0.00    +0.026 C 
ATOM     22  C   UNL     1      -7.456 -13.394  17.990  0.00  0.00    +0.108 C 
ATOM     23  C   UNL     1      -6.146 -11.768  19.431  0.00  0.00    +0.216 C 
ATOM     24  C   UNL     1      -8.954 -13.627  17.862  0.00  0.00    +0.021 C 
BRANCH  20  26
ATOM     26  C   UNL     1      -9.205 -10.814  19.353  0.00  0.00    +0.181 C 
BRANCH  26   4
ATOM      4  O   UNL     1     -10.589 -10.846  19.650  0.00  0.00    -0.381 OA
ATOM     30  C   UNL     1     -11.346 -10.082  18.718  0.00  0.00    +0.194 C 
ENDBRANCH  26   4
ENDBRANCH  20  26
ENDBRANCH  19  23
ENDBRANCH  16  19
ENDBRANCH  12  16
BRANCH   6  17
ATOM     17  C   UNL     1      -4.211 -10.989  10.777  0.00  0.00    +0.127 C 
BRANCH  17  25
ATOM      1  S   UNL     1      -6.682 -10.507   9.597  0.00  0.00    -0.100 S 
ATOM     25  C   UNL     1      -5.131  -9.999  10.113  0.00  0.00    +0.004 A 
ATOM     27  C   UNL     1      -4.906  -8.669   9.840  0.00  0.00    +0.012 A 
ATOM     28  C   UNL     1      -6.021  -8.058   9.198  0.00  0.00    +0.008 A 
ATOM     29  C   UNL     1      -7.057  -8.944   9.005  0.00  0.00    +0.045 A 
ENDBRANCH  17  25
ENDBRANCH   6  17
TORSDOF 7
ENDMDL
MODEL 9
REMARK VINA RESULT:      -5.9      2.089      3.273
REMARK  Name = 45361174
REMARK  9 active torsions:
REMARK  status: ('A' for Active; 'I' for Inactive)
REMARK    1  A    between atoms: O_4  and  C_26
REMARK    2  A    between atoms: O_4  and  C_30
REMARK    3  A    between atoms: N_5  and  C_18
REMARK    4  A    between atoms: N_6  and  C_17
REMARK    5  A    between atoms: C_12  and  C_16
REMARK    6  A    between atoms: C_16  and  C_19
REMARK    7  A    between atoms: C_17  and  C_25
REMARK    8  A    between atoms: C_19  and  C_23
REMARK    9  A    between atoms: C_20  and  C_26
REMARK                            x       y       z     vdW  Elec       q    Type
REMARK                         _______ _______ _______ _____ _____    ______ ____
ROOT
ATOM      2  O   UNL     1      19.215   6.137  20.067  0.00  0.00    -0.274 OA
ATOM      5  N   UNL     1      18.564   9.823  21.057  0.00  0.00    -0.296 NA
ATOM      6  N   UNL     1      20.741   7.070  22.090  0.00  0.00    -0.285 NA
ATOM      7  N   UNL     1      17.320   7.243  20.718  0.00  0.00    -0.312 N 
ATOM      9  C   UNL     1      19.407   9.096  22.031  0.00  0.00    +0.084 C 
ATOM     10  C   UNL     1      19.345   7.541  22.052  0.00  0.00    +0.161 C 
ATOM     11  C   UNL     1      20.916   9.354  21.868  0.00  0.00    +0.036 C 
ATOM     12  C   UNL     1      17.099   9.650  21.259  0.00  0.00    +0.074 C 
ATOM     13  C   UNL     1      21.554   8.179  22.578  0.00  0.00    +0.087 C 
ATOM     14  C   UNL     1      16.653   8.207  21.570  0.00  0.00    +0.123 C 
ATOM     15  C   UNL     1      18.654   6.907  20.846  0.00  0.00    +0.232 C 
ATOM     18  C   UNL     1      18.909  11.255  21.031  0.00  0.00    +0.105 C 
ATOM     31  H   UNL     1      16.784   6.794  19.983  0.00  0.00    +0.149 HD
ENDROOT
BRANCH  12  16
ATOM     16  C   UNL     1      16.322  10.117  20.009  0.00  0.00    +0.029 C 
BRANCH  16  19
ATOM     19  C   UNL     1      14.959  10.677  20.367  0.00  0.00    +0.097 C 
BRANCH  19  23
ATOM      3  O   UNL     1      13.857  10.470  18.266  0.00  0.00    -0.276 OA
ATOM      8  N   UNL     1      12.990   9.259  20.037  0.00  0.00    -0.296 N 
ATOM     20  C   UNL     1      11.834   8.717  19.318  0.00  0.00    +0.102 C 
ATOM     21  C   UNL     1      10.925   8.195  20.432  0.00  0.00    +0.026 C 
ATOM     22  C   UNL     1      12.990   8.835  21.435  0.00  0.00    +0.108 C 
ATOM     23  C   UNL     1      13.890  10.135  19.451  0.00  0.00    +0.216 C 
ATOM     24  C   UNL     1      11.905   7.772  21.519  0.00  0.00    +0.021 C 
BRANCH  20  26
ATOM     26  C   UNL     1      12.250   7.613  18.348  0.00  0.00    +0.181 C 
BRANCH  26   4
ATOM      4  O   UNL     1      11.314   7.573  17.286  0.00  0.00    -0.381 OA
ATOM     30  C   UNL     1      11.191   8.838  16.644  0.00  0.00    +0.194 C 
ENDBRANCH  26   4
ENDBRANCH  20  26
ENDBRANCH  19  23
ENDBRANCH  16  19
ENDBRANCH  12  16
BRANCH   6  17
ATOM     17  C   UNL     1      20.922   5.864  22.890  0.00  0.00    +0.127 C 
BRANCH  17  25
ATOM      1  S   UNL     1      22.569   5.291  20.724  0.00  0.00    -0.100 S 
ATOM     25  C   UNL     1      21.895   4.909  22.251  0.00  0.00    +0.004 A 
ATOM     27  C   UNL     1      22.355   3.704  22.731  0.00  0.00    +0.012 A 
ATOM     28  C   UNL     1      23.273   3.085  21.835  0.00  0.00    +0.008 A 
ATOM     29  C   UNL     1      23.480   3.841  20.702  0.00  0.00    +0.045 A 
ENDBRANCH  17  25
ENDBRANCH   6  17
TORSDOF 7
ENDMDL
MODEL 10
REMARK VINA RESULT:      -5.8      2.665      4.331
REMARK  Name = 45361174
REMARK  9 active torsions:
REMARK  status: ('A' for Active; 'I' for Inactive)
REMARK    1  A    between atoms: O_4  and  C_26
REMARK    2  A    between atoms: O_4  and  C_30
REMARK    3  A    between atoms: N_5  and  C_18
REMARK    4  A    between atoms: N_6  and  C_17
REMARK    5  A    between atoms: C_12  and  C_16
REMARK    6  A    between atoms: C_16  and  C_19
REMARK    7  A    between atoms: C_17  and  C_25
REMARK    8  A    between atoms: C_19  and  C_23
REMARK    9  A    between atoms: C_20  and  C_26
REMARK                            x       y       z     vdW  Elec       q    Type
REMARK                         _______ _______ _______ _____ _____    ______ ____
ROOT
ATOM      2  O   UNL     1      17.964   5.893  19.354  0.00  0.00    -0.274 OA
ATOM      5  N   UNL     1      15.921   9.122  19.981  0.00  0.00    -0.296 NA
ATOM      6  N   UNL     1      18.853   7.439  21.382  0.00  0.00    -0.285 NA
ATOM      7  N   UNL     1      15.746   6.249  19.788  0.00  0.00    -0.312 N 
ATOM      9  C   UNL     1      16.880   8.817  21.066  0.00  0.00    +0.084 C 
ATOM     10  C   UNL     1      17.391   7.354  21.216  0.00  0.00    +0.161 C 
ATOM     11  C   UNL     1      18.197   9.608  20.976  0.00  0.00    +0.036 C 
ATOM     12  C   UNL     1      14.610   8.427  20.105  0.00  0.00    +0.074 C 
ATOM     13  C   UNL     1      19.155   8.796  21.823  0.00  0.00    +0.087 C 
ATOM     14  C   UNL     1      14.697   6.942  20.510  0.00  0.00    +0.123 C 
ATOM     15  C   UNL     1      17.092   6.441  20.028  0.00  0.00    +0.232 C 
ATOM     18  C   UNL     1      15.718  10.575  19.855  0.00  0.00    +0.105 C 
ATOM     31  H   UNL     1      15.480   5.592  19.061  0.00  0.00    +0.149 HD
ENDROOT
BRANCH  12  16
ATOM     16  C   UNL     1      13.832   8.500  18.774  0.00  0.00    +0.029 C 
BRANCH  16  19
ATOM     19  C   UNL     1      12.832   9.641  18.764  0.00  0.00    +0.097 C 
BRANCH  19  23
ATOM      3  O   UNL     1      11.538   8.710  20.533  0.00  0.00    -0.276 OA
ATOM      8  N   UNL     1      12.052  10.963  20.672  0.00  0.00    -0.296 N 
ATOM     20  C   UNL     1      11.284  11.233  21.889  0.00  0.00    +0.102 C 
ATOM     21  C   UNL     1      11.188  12.760  21.926  0.00  0.00    +0.026 C 
ATOM     22  C   UNL     1      12.675  12.179  20.157  0.00  0.00    +0.108 C 
ATOM     23  C   UNL     1      12.078   9.716  20.067  0.00  0.00    +0.216 C 
ATOM     24  C   UNL     1      12.481  13.212  21.258  0.00  0.00    +0.021 C 
BRANCH  20  26
ATOM     26  C   UNL     1      11.981  10.669  23.126  0.00  0.00    +0.181 C 
BRANCH  26   4
ATOM      4  O   UNL     1      12.054  11.690  24.104  0.00  0.00    -0.381 OA
ATOM     30  C   UNL     1      11.180  11.434  25.199  0.00  0.00    +0.194 C 
ENDBRANCH  26   4
ENDBRANCH  20  26
ENDBRANCH  19  23
ENDBRANCH  16  19
ENDBRANCH  12  16
BRANCH   6  17
ATOM     17  C   UNL     1      19.390   6.435  22.292  0.00  0.00    +0.127 C 
BRANCH  17  25
ATOM      1  S   UNL     1      22.047   5.916  22.928  0.00  0.00    -0.100 S 
ATOM     25  C   UNL     1      20.730   5.924  21.834  0.00  0.00    +0.004 A 
ATOM     27  C   UNL     1      21.083   5.432  20.597  0.00  0.00    +0.012 A 
ATOM     28  C   UNL     1      22.453   5.043  20.547  0.00  0.00    +0.008 A 
ATOM     29  C   UNL     1      23.096   5.254  21.747  0.00  0.00    +0.045 A 
ENDBRANCH  17  25
ENDBRANCH   6  17
TORSDOF 7
ENDMDL
