REMARK  Name = 56774336
REMARK  9 active torsions:
REMARK  status: ('A' for Active; 'I' for Inactive)
REMARK    1  A    between atoms: S_1  and  N_6
REMARK    2  A    between atoms: S_1  and  C_17
REMARK    3  A    between atoms: O_5  and  C_21
REMARK    4  A    between atoms: N_6  and  C_10
REMARK    5  A    between atoms: C_8  and  C_13
REMARK    6  A    between atoms: C_8  and  C_14
REMARK    7  A    between atoms: C_9  and  C_12
REMARK    8  A    between atoms: C_12  and  C_15
REMARK    9  A    between atoms: C_18  and  C_21
REMARK                            x       y       z     vdW  Elec       q    Type
REMARK                         _______ _______ _______ _____ _____    ______ ____
ROOT
ATOM      8  C   UNL     1      -0.028   2.309   0.399  0.00  0.00    -0.015 C 
ATOM      9  C   UNL     1       1.136   1.336   0.681  0.00  0.00    +0.004 C 
ATOM     10  C   UNL     1      -0.892   1.067   0.098  0.00  0.00    +0.083 C 
ATOM     11  C   UNL     1       0.420   0.332  -0.247  0.00  0.00    +0.025 C 
ATOM     13  C   UNL     1      -0.440   3.120   1.607  0.00  0.00    +0.013 C 
ATOM     14  C   UNL     1       0.145   3.216  -0.805  0.00  0.00    +0.013 C 
ENDROOT
BRANCH  10   6
ATOM      6  N   UNL     1      -1.887   1.169  -1.013  0.00  0.00    -0.186 NA
ATOM     25  H   UNL     1      -2.352   2.083  -1.091  0.00  0.00    +0.148 HD
BRANCH   6   1
ATOM      1  S   UNL     1      -2.748  -0.151  -1.695  0.00  0.00    +0.059 S 
ATOM      2  O   UNL     1      -1.784  -1.153  -2.130  0.00  0.00    -0.153 OA
ATOM      3  O   UNL     1      -3.724   0.368  -2.644  0.00  0.00    -0.153 OA
BRANCH   1  17
ATOM     17  C   UNL     1      -3.619  -0.769  -0.314  0.00  0.00    +0.105 A 
ATOM     19  C   UNL     1      -4.891  -0.281  -0.016  0.00  0.00    +0.028 A 
ATOM     20  C   UNL     1      -3.040  -1.747   0.494  0.00  0.00    +0.028 A 
ATOM     22  C   UNL     1      -5.585  -0.772   1.090  0.00  0.00    +0.002 A 
ATOM     23  C   UNL     1      -3.734  -2.238   1.600  0.00  0.00    +0.002 A 
ATOM     24  C   UNL     1      -5.006  -1.751   1.898  0.00  0.00    +0.000 A 
ENDBRANCH   1  17
ENDBRANCH   6   1
ENDBRANCH  10   6
BRANCH   9  12
ATOM     12  C   UNL     1       2.514   1.751   0.222  0.00  0.00    +0.063 C 
BRANCH  12  15
ATOM      4  O   UNL     1       4.927  -0.759   1.171  0.00  0.00    -0.357 OA
ATOM      7  N   UNL     1       4.162   0.372   1.429  0.00  0.00    -0.083 NA
ATOM     15  C   UNL     1       3.470   0.585   0.306  0.00  0.00    +0.084 A 
ATOM     16  C   UNL     1       3.755  -0.370  -0.685  0.00  0.00    +0.073 A 
ATOM     18  C   UNL     1       4.676  -1.191  -0.091  0.00  0.00    +0.163 A 
BRANCH  18  21
ATOM     21  C   UNL     1       5.406  -2.386  -0.532  0.00  0.00    +0.232 C 
BRANCH  21   5
ATOM      5  O   UNL     1       6.767  -2.057  -0.823  0.00  0.00    -0.387 OA
ATOM     26  H   UNL     1       7.202  -2.879  -1.107  0.00  0.00    +0.210 HD
ENDBRANCH  21   5
ENDBRANCH  18  21
ENDBRANCH  12  15
ENDBRANCH   9  12
TORSDOF 7
