REMARK  Name = 23983673
REMARK  6 active torsions:
REMARK  status: ('A' for Active; 'I' for Inactive)
REMARK    1  A    between atoms: O_4  and  C_30
REMARK    2  A    between atoms: O_4  and  C_31
REMARK    3  A    between atoms: N_5  and  C_13
REMARK    4  A    between atoms: N_6  and  C_14
REMARK    5  A    between atoms: N_9  and  C_21
REMARK    6  A    between atoms: C_19  and  C_20
REMARK                            x       y       z     vdW  Elec       q    Type
REMARK                         _______ _______ _______ _____ _____    ______ ____
ROOT
ATOM      3  O   UNL     1      -1.872  -2.106   1.178  0.00  0.00    -0.252 OA
ATOM      6  N   UNL     1      -0.307  -2.686  -0.423  0.00  0.00    -0.292 N 
ATOM      9  N   UNL     1      -2.294  -1.757  -1.104  0.00  0.00    -0.269 N 
ATOM     18  C   UNL     1      -1.539  -2.170  -0.003  0.00  0.00    +0.304 C 
ATOM     37  H   UNL     1      -0.081  -2.640  -1.412  0.00  0.00    +0.151 HD
ATOM     38  H   UNL     1      -1.870  -1.880  -2.021  0.00  0.00    +0.156 HD
ENDROOT
BRANCH   6  14
ATOM      1  O   UNL     1       2.347  -2.433   2.080  0.00  0.00    -0.370 OA
ATOM      2  O   UNL     1       2.642  -3.582  -0.810  0.00  0.00    -0.370 OA
ATOM     11  C   UNL     1       2.762  -2.258  -0.258  0.00  0.00    +0.175 C 
ATOM     12  C   UNL     1       1.711  -2.130   0.828  0.00  0.00    +0.171 C 
ATOM     13  C   UNL     1       4.086  -2.117   0.473  0.00  0.00    +0.166 C 
ATOM     14  C   UNL     1       0.693  -3.193   0.485  0.00  0.00    +0.131 C 
ATOM     15  C   UNL     1       3.745  -2.666   1.856  0.00  0.00    +0.190 C 
ATOM     16  C   UNL     1       1.547  -4.259  -0.177  0.00  0.00    +0.185 C 
BRANCH  13   5
ATOM      5  N   UNL     1       4.585  -0.684   0.443  0.00  0.00    -0.243 N 
ATOM      7  N   UNL     1       3.840   0.312   0.948  0.00  0.00    -0.065 NA
ATOM      8  N   UNL     1       4.525   1.439   0.784  0.00  0.00    -0.128 NA
ATOM     17  C   UNL     1       5.764  -0.225  -0.058  0.00  0.00    +0.140 A 
ATOM     19  C   UNL     1       5.706   1.127   0.169  0.00  0.00    +0.131 A 
BRANCH  19  20
ATOM     10  N   UNL     1       7.813   1.564  -0.782  0.00  0.00    -0.253 NA
ATOM     20  C   UNL     1       6.716   2.074  -0.178  0.00  0.00    +0.092 A 
ATOM     22  C   UNL     1       6.540   3.419   0.105  0.00  0.00    +0.030 A 
ATOM     25  C   UNL     1       7.556   4.298  -0.255  0.00  0.00    +0.004 A 
ATOM     26  C   UNL     1       8.779   2.449  -1.117  0.00  0.00    +0.111 A 
ATOM     29  C   UNL     1       8.700   3.811  -0.878  0.00  0.00    +0.020 A 
ENDBRANCH  19  20
ENDBRANCH  13   5
ENDBRANCH   6  14
BRANCH   9  21
ATOM     21  C   UNL     1      -3.587  -1.184  -1.105  0.00  0.00    +0.035 A 
ATOM     23  C   UNL     1      -4.193  -0.830  -2.311  0.00  0.00    +0.027 A 
ATOM     24  C   UNL     1      -4.258  -0.974   0.100  0.00  0.00    +0.027 A 
ATOM     27  C   UNL     1      -5.468  -0.266  -2.312  0.00  0.00    +0.048 A 
ATOM     28  C   UNL     1      -5.534  -0.410   0.099  0.00  0.00    +0.048 A 
ATOM     30  C   UNL     1      -6.139  -0.056  -1.107  0.00  0.00    +0.129 A 
BRANCH  30   4
ATOM      4  O   UNL     1      -7.385   0.492  -1.108  0.00  0.00    -0.456 OA
BRANCH   4  31
ATOM     31  C   UNL     1      -7.648   1.493  -0.188  0.00  0.00    +0.128 A 
ATOM     32  C   UNL     1      -6.725   2.519   0.011  0.00  0.00    +0.046 A 
ATOM     33  C   UNL     1      -8.837   1.474   0.542  0.00  0.00    +0.046 A 
ATOM     34  C   UNL     1      -6.990   3.526   0.939  0.00  0.00    +0.004 A 
ATOM     35  C   UNL     1      -9.103   2.481   1.469  0.00  0.00    +0.004 A 
ATOM     36  C   UNL     1      -8.179   3.507   1.668  0.00  0.00    +0.000 A 
ENDBRANCH   4  31
ENDBRANCH  30   4
ENDBRANCH   9  21
TORSDOF 6
