MODEL 1
REMARK VINA RESULT:      -7.3      0.000      0.000
REMARK  Name = 45783795
REMARK  7 active torsions:
REMARK  status: ('A' for Active; 'I' for Inactive)
REMARK    1  A    between atoms: N_3  and  C_9
REMARK    2  A    between atoms: N_8  and  C_26
REMARK    3  A    between atoms: N_8  and  C_27
REMARK    4  A    between atoms: N_8  and  C_28
REMARK    5  A    between atoms: C_10  and  C_18
REMARK    6  A    between atoms: C_19  and  C_20
REMARK    7  A    between atoms: C_21  and  C_22
REMARK                            x       y       z     vdW  Elec       q    Type
REMARK                         _______ _______ _______ _____ _____    ______ ____
ROOT
ATOM      3  N   UNL     1      12.200   8.212  19.622  0.00  0.00    -0.288 NA
ATOM     10  C   UNL     1      13.227   8.405  20.666  0.00  0.00    +0.146 C 
ATOM     11  C   UNL     1      10.905   8.279  20.299  0.00  0.00    +0.085 C 
ATOM     12  C   UNL     1      12.576   7.879  21.957  0.00  0.00    +0.030 C 
ATOM     15  C   UNL     1      11.165   7.472  21.554  0.00  0.00    +0.017 C 
ENDROOT
BRANCH   3   9
ATOM      2  O   UNL     1      15.159  10.104  14.575  0.00  0.00    -0.276 OA
ATOM      4  N   UNL     1      13.848  10.476  16.457  0.00  0.00    -0.302 N 
ATOM      9  C   UNL     1      12.300   9.178  18.530  0.00  0.00    +0.060 C 
ATOM     13  C   UNL     1      12.655   8.460  17.223  0.00  0.00    +0.038 C 
ATOM     14  C   UNL     1      13.357  10.240  18.863  0.00  0.00    +0.038 C 
ATOM     16  C   UNL     1      12.859   9.462  16.087  0.00  0.00    +0.109 C 
ATOM     17  C   UNL     1      13.549  11.207  17.694  0.00  0.00    +0.109 C 
ATOM     19  C   UNL     1      14.947  10.708  15.630  0.00  0.00    +0.212 C 
ATOM     20  C   UNL     1      15.922  11.766  16.081  0.00  0.00    +0.109 C 
ENDBRANCH   3   9
BRANCH  10  18
ATOM      1  O   UNL     1      14.485   6.787  19.334  0.00  0.00    -0.336 OA
ATOM      5  N   UNL     1      15.708   7.842  20.886  0.00  0.00    -0.190 NA
ATOM      6  N   UNL     1      15.785   6.278  19.218  0.00  0.00    -0.056 NA
ATOM     18  C   UNL     1      14.527   7.702  20.339  0.00  0.00    +0.245 A 
ATOM     21  C   UNL     1      16.447   6.948  20.165  0.00  0.00    +0.204 A 
BRANCH  21  22
ATOM      7  N   UNL     1      19.811   5.365  20.172  0.00  0.00    -0.240 NA
ATOM     22  C   UNL     1      17.845   6.750  20.417  0.00  0.00    +0.041 A 
ATOM     23  C   UNL     1      18.587   7.693  21.120  0.00  0.00    +0.016 A 
ATOM     24  C   UNL     1      18.498   5.614  19.969  0.00  0.00    +0.124 A 
ATOM     25  C   UNL     1      19.941   7.473  21.349  0.00  0.00    +0.044 A 
ATOM     26  C   UNL     1      20.501   6.305  20.859  0.00  0.00    +0.121 A 
BRANCH  26   8
ATOM      8  N   UNL     1      21.881   6.095  21.100  0.00  0.00    -0.321 N 
ATOM     27  C   UNL     1      22.356   4.800  21.534  0.00  0.00    +0.130 C 
ATOM     28  C   UNL     1      22.824   7.177  20.918  0.00  0.00    +0.130 C 
ENDBRANCH  26   8
ENDBRANCH  21  22
ENDBRANCH  10  18
TORSDOF 4
ENDMDL
MODEL 2
REMARK VINA RESULT:      -7.2      3.137      4.858
REMARK  Name = 45783795
REMARK  7 active torsions:
REMARK  status: ('A' for Active; 'I' for Inactive)
REMARK    1  A    between atoms: N_3  and  C_9
REMARK    2  A    between atoms: N_8  and  C_26
REMARK    3  A    between atoms: N_8  and  C_27
REMARK    4  A    between atoms: N_8  and  C_28
REMARK    5  A    between atoms: C_10  and  C_18
REMARK    6  A    between atoms: C_19  and  C_20
REMARK    7  A    between atoms: C_21  and  C_22
REMARK                            x       y       z     vdW  Elec       q    Type
REMARK                         _______ _______ _______ _____ _____    ______ ____
ROOT
ATOM      3  N   UNL     1      13.745  10.555  20.284  0.00  0.00    -0.288 NA
ATOM     10  C   UNL     1      13.488   9.342  19.481  0.00  0.00    +0.146 C 
ATOM     11  C   UNL     1      13.171  11.674  19.538  0.00  0.00    +0.085 C 
ATOM     12  C   UNL     1      13.422   9.843  18.027  0.00  0.00    +0.030 C 
ATOM     15  C   UNL     1      13.590  11.354  18.118  0.00  0.00    +0.017 C 
ENDROOT
BRANCH   3   9
ATOM      2  O   UNL     1       9.891  12.764  24.535  0.00  0.00    -0.276 OA
ATOM      4  N   UNL     1      11.840  11.679  23.885  0.00  0.00    -0.302 N 
ATOM      9  C   UNL     1      13.214  10.469  21.642  0.00  0.00    +0.060 C 
ATOM     13  C   UNL     1      11.697  10.695  21.629  0.00  0.00    +0.038 C 
ATOM     14  C   UNL     1      13.903  11.503  22.543  0.00  0.00    +0.038 C 
ATOM     16  C   UNL     1      11.134  10.705  23.049  0.00  0.00    +0.109 C 
ATOM     17  C   UNL     1      13.295  11.498  23.946  0.00  0.00    +0.109 C 
ATOM     19  C   UNL     1      11.119  12.654  24.574  0.00  0.00    +0.212 C 
ATOM     20  C   UNL     1      11.919  13.621  25.410  0.00  0.00    +0.109 C 
ENDBRANCH   3   9
BRANCH  10  18
ATOM      1  O   UNL     1      14.163   6.993  19.438  0.00  0.00    -0.336 OA
ATOM      5  N   UNL     1      15.788   8.401  20.068  0.00  0.00    -0.190 NA
ATOM      6  N   UNL     1      15.289   6.200  19.692  0.00  0.00    -0.056 NA
ATOM     18  C   UNL     1      14.543   8.275  19.684  0.00  0.00    +0.245 A 
ATOM     21  C   UNL     1      16.205   7.102  20.058  0.00  0.00    +0.204 A 
BRANCH  21  22
ATOM      7  N   UNL     1      19.472   7.095  21.834  0.00  0.00    -0.240 NA
ATOM     22  C   UNL     1      17.546   6.738  20.418  0.00  0.00    +0.041 A 
ATOM     23  C   UNL     1      18.218   5.724  19.747  0.00  0.00    +0.016 A 
ATOM     24  C   UNL     1      18.210   7.388  21.445  0.00  0.00    +0.124 A 
ATOM     25  C   UNL     1      19.517   5.393  20.118  0.00  0.00    +0.044 A 
ATOM     26  C   UNL     1      20.094   6.102  21.158  0.00  0.00    +0.121 A 
BRANCH  26   8
ATOM      8  N   UNL     1      21.417   5.755  21.525  0.00  0.00    -0.321 N 
ATOM     27  C   UNL     1      22.396   5.438  20.509  0.00  0.00    +0.130 C 
ATOM     28  C   UNL     1      21.796   5.708  22.921  0.00  0.00    +0.130 C 
ENDBRANCH  26   8
ENDBRANCH  21  22
ENDBRANCH  10  18
TORSDOF 4
ENDMDL
MODEL 3
REMARK VINA RESULT:      -7.2     28.642     33.040
REMARK  Name = 45783795
REMARK  7 active torsions:
REMARK  status: ('A' for Active; 'I' for Inactive)
REMARK    1  A    between atoms: N_3  and  C_9
REMARK    2  A    between atoms: N_8  and  C_26
REMARK    3  A    between atoms: N_8  and  C_27
REMARK    4  A    between atoms: N_8  and  C_28
REMARK    5  A    between atoms: C_10  and  C_18
REMARK    6  A    between atoms: C_19  and  C_20
REMARK    7  A    between atoms: C_21  and  C_22
REMARK                            x       y       z     vdW  Elec       q    Type
REMARK                         _______ _______ _______ _____ _____    ______ ____
ROOT
ATOM      3  N   UNL     1     -16.994   1.717  27.687  0.00  0.00    -0.288 NA
ATOM     10  C   UNL     1     -16.638   1.507  26.269  0.00  0.00    +0.146 C 
ATOM     11  C   UNL     1     -17.861   0.601  28.065  0.00  0.00    +0.085 C 
ATOM     12  C   UNL     1     -17.822   0.720  25.680  0.00  0.00    +0.030 C 
ATOM     15  C   UNL     1     -18.763   0.481  26.854  0.00  0.00    +0.017 C 
ENDROOT
BRANCH   3   9
ATOM      2  O   UNL     1     -14.703   1.483  33.388  0.00  0.00    -0.276 OA
ATOM      4  N   UNL     1     -14.693   2.244  31.192  0.00  0.00    -0.302 N 
ATOM      9  C   UNL     1     -15.829   1.829  28.562  0.00  0.00    +0.060 C 
ATOM     13  C   UNL     1     -15.874   0.737  29.638  0.00  0.00    +0.038 C 
ATOM     14  C   UNL     1     -15.790   3.220  29.210  0.00  0.00    +0.038 C 
ATOM     16  C   UNL     1     -14.716   0.894  30.623  0.00  0.00    +0.109 C 
ATOM     17  C   UNL     1     -14.634   3.328  30.205  0.00  0.00    +0.109 C 
ATOM     19  C   UNL     1     -14.689   2.413  32.577  0.00  0.00    +0.212 C 
ATOM     20  C   UNL     1     -14.667   3.833  33.084  0.00  0.00    +0.109 C 
ENDBRANCH   3   9
BRANCH  10  18
ATOM      1  O   UNL     1     -17.132   3.874  25.910  0.00  0.00    -0.336 OA
ATOM      5  N   UNL     1     -15.521   3.064  24.580  0.00  0.00    -0.190 NA
ATOM      6  N   UNL     1     -16.717   4.942  25.105  0.00  0.00    -0.056 NA
ATOM     18  C   UNL     1     -16.377   2.806  25.536  0.00  0.00    +0.245 A 
ATOM     21  C   UNL     1     -15.766   4.386  24.349  0.00  0.00    +0.204 A 
BRANCH  21  22
ATOM      7  N   UNL     1     -14.960   6.990  21.820  0.00  0.00    -0.240 NA
ATOM     22  C   UNL     1     -15.042   5.124  23.354  0.00  0.00    +0.041 A 
ATOM     23  C   UNL     1     -13.771   4.728  22.952  0.00  0.00    +0.016 A 
ATOM     24  C   UNL     1     -15.587   6.251  22.762  0.00  0.00    +0.124 A 
ATOM     25  C   UNL     1     -13.093   5.462  21.985  0.00  0.00    +0.044 A 
ATOM     26  C   UNL     1     -13.725   6.575  21.455  0.00  0.00    +0.121 A 
BRANCH  26   8
ATOM      8  N   UNL     1     -13.022   7.313  20.471  0.00  0.00    -0.321 N 
ATOM     27  C   UNL     1     -11.578   7.388  20.510  0.00  0.00    +0.130 C 
ATOM     28  C   UNL     1     -13.744   8.003  19.425  0.00  0.00    +0.130 C 
ENDBRANCH  26   8
ENDBRANCH  21  22
ENDBRANCH  10  18
TORSDOF 4
ENDMDL
MODEL 4
REMARK VINA RESULT:      -7.1      4.980      6.964
REMARK  Name = 45783795
REMARK  7 active torsions:
REMARK  status: ('A' for Active; 'I' for Inactive)
REMARK    1  A    between atoms: N_3  and  C_9
REMARK    2  A    between atoms: N_8  and  C_26
REMARK    3  A    between atoms: N_8  and  C_27
REMARK    4  A    between atoms: N_8  and  C_28
REMARK    5  A    between atoms: C_10  and  C_18
REMARK    6  A    between atoms: C_19  and  C_20
REMARK    7  A    between atoms: C_21  and  C_22
REMARK                            x       y       z     vdW  Elec       q    Type
REMARK                         _______ _______ _______ _____ _____    ______ ____
ROOT
ATOM      3  N   UNL     1      11.257   8.825  21.594  0.00  0.00    -0.288 NA
ATOM     10  C   UNL     1      12.283   7.915  21.047  0.00  0.00    +0.146 C 
ATOM     11  C   UNL     1      10.543   8.072  22.625  0.00  0.00    +0.085 C 
ATOM     12  C   UNL     1      11.699   6.504  21.244  0.00  0.00    +0.030 C 
ATOM     15  C   UNL     1      10.375   6.719  21.964  0.00  0.00    +0.017 C 
ENDROOT
BRANCH   3   9
ATOM      2  O   UNL     1      10.377  14.011  24.778  0.00  0.00    -0.276 OA
ATOM      4  N   UNL     1      11.441  12.755  23.139  0.00  0.00    -0.302 N 
ATOM      9  C   UNL     1      11.813  10.074  22.111  0.00  0.00    +0.060 C 
ATOM     13  C   UNL     1      11.303  10.325  23.536  0.00  0.00    +0.038 C 
ATOM     14  C   UNL     1      11.431  11.241  21.191  0.00  0.00    +0.038 C 
ATOM     16  C   UNL     1      11.795  11.673  24.061  0.00  0.00    +0.109 C 
ATOM     17  C   UNL     1      11.920  12.572  21.763  0.00  0.00    +0.109 C 
ATOM     19  C   UNL     1      10.738  13.864  23.607  0.00  0.00    +0.212 C 
ATOM     20  C   UNL     1      10.409  14.933  22.595  0.00  0.00    +0.109 C 
ENDBRANCH   3   9
BRANCH  10  18
ATOM      1  O   UNL     1      11.975   7.460  18.665  0.00  0.00    -0.336 OA
ATOM      5  N   UNL     1      13.434   9.103  19.101  0.00  0.00    -0.190 NA
ATOM      6  N   UNL     1      12.435   7.913  17.422  0.00  0.00    -0.056 NA
ATOM     18  C   UNL     1      12.613   8.214  19.599  0.00  0.00    +0.245 A 
ATOM     21  C   UNL     1      13.291   8.881  17.762  0.00  0.00    +0.204 A 
BRANCH  21  22
ATOM      7  N   UNL     1      15.043   9.765  14.604  0.00  0.00    -0.240 NA
ATOM     22  C   UNL     1      14.018   9.646  16.790  0.00  0.00    +0.041 A 
ATOM     23  C   UNL     1      14.403  10.956  17.051  0.00  0.00    +0.016 A 
ATOM     24  C   UNL     1      14.359   9.101  15.563  0.00  0.00    +0.124 A 
ATOM     25  C   UNL     1      15.108  11.672  16.089  0.00  0.00    +0.044 A 
ATOM     26  C   UNL     1      15.400  11.038  14.893  0.00  0.00    +0.121 A 
BRANCH  26   8
ATOM      8  N   UNL     1      16.118  11.780  13.923  0.00  0.00    -0.321 N 
ATOM     27  C   UNL     1      17.478  12.198  14.185  0.00  0.00    +0.130 C 
ATOM     28  C   UNL     1      15.493  12.130  12.667  0.00  0.00    +0.130 C 
ENDBRANCH  26   8
ENDBRANCH  21  22
ENDBRANCH  10  18
TORSDOF 4
ENDMDL
MODEL 5
REMARK VINA RESULT:      -7.1      4.942      8.240
REMARK  Name = 45783795
REMARK  7 active torsions:
REMARK  status: ('A' for Active; 'I' for Inactive)
REMARK    1  A    between atoms: N_3  and  C_9
REMARK    2  A    between atoms: N_8  and  C_26
REMARK    3  A    between atoms: N_8  and  C_27
REMARK    4  A    between atoms: N_8  and  C_28
REMARK    5  A    between atoms: C_10  and  C_18
REMARK    6  A    between atoms: C_19  and  C_20
REMARK    7  A    between atoms: C_21  and  C_22
REMARK                            x       y       z     vdW  Elec       q    Type
REMARK                         _______ _______ _______ _____ _____    ______ ____
ROOT
ATOM      3  N   UNL     1      12.931   7.933  21.279  0.00  0.00    -0.288 NA
ATOM     10  C   UNL     1      11.888   8.859  20.793  0.00  0.00    +0.146 C 
ATOM     11  C   UNL     1      12.377   6.585  21.156  0.00  0.00    +0.085 C 
ATOM     12  C   UNL     1      10.560   8.131  21.068  0.00  0.00    +0.030 C 
ATOM     15  C   UNL     1      10.959   6.782  21.650  0.00  0.00    +0.017 C 
ENDROOT
BRANCH   3   9
ATOM      2  O   UNL     1      18.306   5.431  19.647  0.00  0.00    -0.276 OA
ATOM      4  N   UNL     1      16.942   7.248  20.137  0.00  0.00    -0.302 N 
ATOM      9  C   UNL     1      14.201   8.073  20.570  0.00  0.00    +0.060 C 
ATOM     13  C   UNL     1      14.542   6.767  19.841  0.00  0.00    +0.038 C 
ATOM     14  C   UNL     1      15.317   8.443  21.556  0.00  0.00    +0.038 C 
ATOM     16  C   UNL     1      15.913   6.858  19.171  0.00  0.00    +0.109 C 
ATOM     17  C   UNL     1      16.673   8.501  20.853  0.00  0.00    +0.109 C 
ATOM     19  C   UNL     1      18.085   6.463  20.287  0.00  0.00    +0.212 C 
ATOM     20  C   UNL     1      19.096   6.929  21.304  0.00  0.00    +0.109 C 
ENDBRANCH   3   9
BRANCH  10  18
ATOM      1  O   UNL     1      12.041  11.293  20.633  0.00  0.00    -0.336 OA
ATOM      5  N   UNL     1      11.954  10.518  22.733  0.00  0.00    -0.190 NA
ATOM      6  N   UNL     1      12.096  12.418  21.466  0.00  0.00    -0.056 NA
ATOM     18  C   UNL     1      11.959  10.216  21.459  0.00  0.00    +0.245 A 
ATOM     21  C   UNL     1      12.039  11.879  22.688  0.00  0.00    +0.204 A 
BRANCH  21  22
ATOM      7  N   UNL     1      13.356  13.730  25.632  0.00  0.00    -0.240 NA
ATOM     22  C   UNL     1      12.065  12.672  23.883  0.00  0.00    +0.041 A 
ATOM     23  C   UNL     1      10.890  13.146  24.454  0.00  0.00    +0.016 A 
ATOM     24  C   UNL     1      13.262  12.989  24.505  0.00  0.00    +0.124 A 
ATOM     25  C   UNL     1      10.945  13.912  25.614  0.00  0.00    +0.044 A 
ATOM     26  C   UNL     1      12.191  14.174  26.158  0.00  0.00    +0.121 A 
BRANCH  26   8
ATOM      8  N   UNL     1      12.233  14.956  27.338  0.00  0.00    -0.321 N 
ATOM     27  C   UNL     1      13.489  15.180  28.020  0.00  0.00    +0.130 C 
ATOM     28  C   UNL     1      11.018  15.532  27.873  0.00  0.00    +0.130 C 
ENDBRANCH  26   8
ENDBRANCH  21  22
ENDBRANCH  10  18
TORSDOF 4
ENDMDL
MODEL 6
REMARK VINA RESULT:      -7.0     28.257     32.670
REMARK  Name = 45783795
REMARK  7 active torsions:
REMARK  status: ('A' for Active; 'I' for Inactive)
REMARK    1  A    between atoms: N_3  and  C_9
REMARK    2  A    between atoms: N_8  and  C_26
REMARK    3  A    between atoms: N_8  and  C_27
REMARK    4  A    between atoms: N_8  and  C_28
REMARK    5  A    between atoms: C_10  and  C_18
REMARK    6  A    between atoms: C_19  and  C_20
REMARK    7  A    between atoms: C_21  and  C_22
REMARK                            x       y       z     vdW  Elec       q    Type
REMARK                         _______ _______ _______ _____ _____    ______ ____
ROOT
ATOM      3  N   UNL     1     -16.818   4.566  20.902  0.00  0.00    -0.288 NA
ATOM     10  C   UNL     1     -17.926   4.278  21.835  0.00  0.00    +0.146 C 
ATOM     11  C   UNL     1     -17.429   4.804  19.594  0.00  0.00    +0.085 C 
ATOM     12  C   UNL     1     -19.031   3.669  20.953  0.00  0.00    +0.030 C 
ATOM     15  C   UNL     1     -18.478   3.713  19.535  0.00  0.00    +0.017 C 
ENDROOT
BRANCH   3   9
ATOM      2  O   UNL     1     -12.833   8.992  19.373  0.00  0.00    -0.276 OA
ATOM      4  N   UNL     1     -13.751   7.474  20.873  0.00  0.00    -0.302 N 
ATOM      9  C   UNL     1     -15.981   5.685  21.330  0.00  0.00    +0.060 C 
ATOM     13  C   UNL     1     -16.060   6.822  20.304  0.00  0.00    +0.038 C 
ATOM     14  C   UNL     1     -14.529   5.220  21.504  0.00  0.00    +0.038 C 
ATOM     16  C   UNL     1     -15.118   7.965  20.682  0.00  0.00    +0.109 C 
ATOM     17  C   UNL     1     -13.617   6.394  21.858  0.00  0.00    +0.109 C 
ATOM     19  C   UNL     1     -12.699   8.060  20.170  0.00  0.00    +0.212 C 
ATOM     20  C   UNL     1     -11.323   7.497  20.420  0.00  0.00    +0.109 C 
ENDBRANCH   3   9
BRANCH  10  18
ATOM      1  O   UNL     1     -17.342   2.051  22.654  0.00  0.00    -0.336 OA
ATOM      5  N   UNL     1     -17.284   3.647  24.225  0.00  0.00    -0.190 NA
ATOM      6  N   UNL     1     -16.965   1.414  23.843  0.00  0.00    -0.056 NA
ATOM     18  C   UNL     1     -17.510   3.363  22.967  0.00  0.00    +0.245 A 
ATOM     21  C   UNL     1     -16.952   2.420  24.722  0.00  0.00    +0.204 A 
BRANCH  21  22
ATOM      7  N   UNL     1     -16.478   0.763  28.017  0.00  0.00    -0.240 NA
ATOM     22  C   UNL     1     -16.612   2.234  26.104  0.00  0.00    +0.041 A 
ATOM     23  C   UNL     1     -16.108   3.283  26.865  0.00  0.00    +0.016 A 
ATOM     24  C   UNL     1     -16.778   1.005  26.721  0.00  0.00    +0.124 A 
ATOM     25  C   UNL     1     -15.788   3.073  28.202  0.00  0.00    +0.044 A 
ATOM     26  C   UNL     1     -15.990   1.807  28.726  0.00  0.00    +0.121 A 
BRANCH  26   8
ATOM      8  N   UNL     1     -15.659   1.608  30.088  0.00  0.00    -0.321 N 
ATOM     27  C   UNL     1     -15.395   0.276  30.587  0.00  0.00    +0.130 C 
ATOM     28  C   UNL     1     -15.587   2.735  30.992  0.00  0.00    +0.130 C 
ENDBRANCH  26   8
ENDBRANCH  21  22
ENDBRANCH  10  18
TORSDOF 4
ENDMDL
MODEL 7
REMARK VINA RESULT:      -7.0      2.538      7.835
REMARK  Name = 45783795
REMARK  7 active torsions:
REMARK  status: ('A' for Active; 'I' for Inactive)
REMARK    1  A    between atoms: N_3  and  C_9
REMARK    2  A    between atoms: N_8  and  C_26
REMARK    3  A    between atoms: N_8  and  C_27
REMARK    4  A    between atoms: N_8  and  C_28
REMARK    5  A    between atoms: C_10  and  C_18
REMARK    6  A    between atoms: C_19  and  C_20
REMARK    7  A    between atoms: C_21  and  C_22
REMARK                            x       y       z     vdW  Elec       q    Type
REMARK                         _______ _______ _______ _____ _____    ______ ____
ROOT
ATOM      3  N   UNL     1      14.996   8.111  20.568  0.00  0.00    -0.288 NA
ATOM     10  C   UNL     1      14.317   7.301  19.537  0.00  0.00    +0.146 C 
ATOM     11  C   UNL     1      14.468   7.667  21.858  0.00  0.00    +0.085 C 
ATOM     12  C   UNL     1      12.957   6.936  20.159  0.00  0.00    +0.030 C 
ATOM     15  C   UNL     1      12.989   7.531  21.561  0.00  0.00    +0.017 C 
ENDROOT
BRANCH   3   9
ATOM      2  O   UNL     1      20.210   6.113  23.143  0.00  0.00    -0.276 OA
ATOM      4  N   UNL     1      18.999   7.587  21.817  0.00  0.00    -0.302 N 
ATOM      9  C   UNL     1      16.453   8.015  20.508  0.00  0.00    +0.060 C 
ATOM     13  C   UNL     1      16.906   6.617  20.948  0.00  0.00    +0.038 C 
ATOM     14  C   UNL     1      17.089   9.090  21.399  0.00  0.00    +0.038 C 
ATOM     16  C   UNL     1      18.431   6.524  20.985  0.00  0.00    +0.109 C 
ATOM     17  C   UNL     1      18.610   8.948  21.428  0.00  0.00    +0.109 C 
ATOM     19  C   UNL     1      19.869   7.264  22.858  0.00  0.00    +0.212 C 
ATOM     20  C   UNL     1      20.410   8.414  23.669  0.00  0.00    +0.109 C 
ENDBRANCH   3   9
BRANCH  10  18
ATOM      1  O   UNL     1      13.653   7.326  17.184  0.00  0.00    -0.336 OA
ATOM      5  N   UNL     1      14.493   9.269  17.919  0.00  0.00    -0.190 NA
ATOM      6  N   UNL     1      13.626   8.201  16.091  0.00  0.00    -0.056 NA
ATOM     18  C   UNL     1      14.178   8.034  18.219  0.00  0.00    +0.245 A 
ATOM     21  C   UNL     1      14.136   9.325  16.602  0.00  0.00    +0.204 A 
BRANCH  21  22
ATOM      7  N   UNL     1      13.543  11.926  14.013  0.00  0.00    -0.240 NA
ATOM     22  C   UNL     1      14.302  10.520  15.827  0.00  0.00    +0.041 A 
ATOM     23  C   UNL     1      15.330  11.414  16.100  0.00  0.00    +0.016 A 
ATOM     24  C   UNL     1      13.443  10.819  14.782  0.00  0.00    +0.124 A 
ATOM     25  C   UNL     1      15.467  12.565  15.331  0.00  0.00    +0.044 A 
ATOM     26  C   UNL     1      14.556  12.773  14.309  0.00  0.00    +0.121 A 
BRANCH  26   8
ATOM      8  N   UNL     1      14.706  13.950  13.535  0.00  0.00    -0.321 N 
ATOM     27  C   UNL     1      15.856  14.112  12.673  0.00  0.00    +0.130 C 
ATOM     28  C   UNL     1      13.713  14.999  13.605  0.00  0.00    +0.130 C 
ENDBRANCH  26   8
ENDBRANCH  21  22
ENDBRANCH  10  18
TORSDOF 4
ENDMDL
MODEL 8
REMARK VINA RESULT:      -6.9     14.278     17.789
REMARK  Name = 45783795
REMARK  7 active torsions:
REMARK  status: ('A' for Active; 'I' for Inactive)
REMARK    1  A    between atoms: N_3  and  C_9
REMARK    2  A    between atoms: N_8  and  C_26
REMARK    3  A    between atoms: N_8  and  C_27
REMARK    4  A    between atoms: N_8  and  C_28
REMARK    5  A    between atoms: C_10  and  C_18
REMARK    6  A    between atoms: C_19  and  C_20
REMARK    7  A    between atoms: C_21  and  C_22
REMARK                            x       y       z     vdW  Elec       q    Type
REMARK                         _______ _______ _______ _____ _____    ______ ____
ROOT
ATOM      3  N   UNL     1       9.194   7.138   6.329  0.00  0.00    -0.288 NA
ATOM     10  C   UNL     1      10.553   6.571   6.220  0.00  0.00    +0.146 C 
ATOM     11  C   UNL     1       9.002   7.485   7.737  0.00  0.00    +0.085 C 
ATOM     12  C   UNL     1      10.833   5.958   7.604  0.00  0.00    +0.030 C 
ATOM     15  C   UNL     1       9.602   6.284   8.440  0.00  0.00    +0.017 C 
ENDROOT
BRANCH   3   9
ATOM      2  O   UNL     1       5.870  12.130   4.973  0.00  0.00    -0.276 OA
ATOM      4  N   UNL     1       7.245  10.349   4.392  0.00  0.00    -0.302 N 
ATOM      9  C   UNL     1       8.976   8.283   5.447  0.00  0.00    +0.060 C 
ATOM     13  C   UNL     1       8.606   9.520   6.273  0.00  0.00    +0.038 C 
ATOM     14  C   UNL     1       7.869   7.963   4.434  0.00  0.00    +0.038 C 
ATOM     16  C   UNL     1       8.279  10.705   5.365  0.00  0.00    +0.109 C 
ATOM     17  C   UNL     1       7.556   9.179   3.562  0.00  0.00    +0.109 C 
ATOM     19  C   UNL     1       6.093  11.129   4.287  0.00  0.00    +0.212 C 
ATOM     20  C   UNL     1       5.074  10.695   3.264  0.00  0.00    +0.109 C 
ENDBRANCH   3   9
BRANCH  10  18
ATOM      1  O   UNL     1      10.188   4.316   5.349  0.00  0.00    -0.336 OA
ATOM      5  N   UNL     1      11.182   5.706   3.901  0.00  0.00    -0.190 NA
ATOM      6  N   UNL     1      10.409   3.571   4.184  0.00  0.00    -0.056 NA
ATOM     18  C   UNL     1      10.673   5.561   5.098  0.00  0.00    +0.245 A 
ATOM     21  C   UNL     1      10.997   4.459   3.377  0.00  0.00    +0.204 A 
BRANCH  21  22
ATOM      7  N   UNL     1      10.882   4.016  -0.313  0.00  0.00    -0.240 NA
ATOM     22  C   UNL     1      11.412   4.134   2.043  0.00  0.00    +0.041 A 
ATOM     23  C   UNL     1      12.685   3.637   1.789  0.00  0.00    +0.016 A 
ATOM     24  C   UNL     1      10.555   4.303   0.967  0.00  0.00    +0.124 A 
ATOM     25  C   UNL     1      13.058   3.330   0.485  0.00  0.00    +0.044 A 
ATOM     26  C   UNL     1      12.129   3.535  -0.521  0.00  0.00    +0.121 A 
BRANCH  26   8
ATOM      8  N   UNL     1      12.524   3.219  -1.844  0.00  0.00    -0.321 N 
ATOM     27  C   UNL     1      11.930   2.093  -2.532  0.00  0.00    +0.130 C 
ATOM     28  C   UNL     1      13.527   4.016  -2.515  0.00  0.00    +0.130 C 
ENDBRANCH  26   8
ENDBRANCH  21  22
ENDBRANCH  10  18
TORSDOF 4
ENDMDL
MODEL 9
REMARK VINA RESULT:      -6.8     26.531     29.880
REMARK  Name = 45783795
REMARK  7 active torsions:
REMARK  status: ('A' for Active; 'I' for Inactive)
REMARK    1  A    between atoms: N_3  and  C_9
REMARK    2  A    between atoms: N_8  and  C_26
REMARK    3  A    between atoms: N_8  and  C_27
REMARK    4  A    between atoms: N_8  and  C_28
REMARK    5  A    between atoms: C_10  and  C_18
REMARK    6  A    between atoms: C_19  and  C_20
REMARK    7  A    between atoms: C_21  and  C_22
REMARK                            x       y       z     vdW  Elec       q    Type
REMARK                         _______ _______ _______ _____ _____    ______ ____
ROOT
ATOM      3  N   UNL     1      -3.310 -11.277  15.271  0.00  0.00    -0.288 NA
ATOM     10  C   UNL     1      -2.931 -10.323  14.208  0.00  0.00    +0.146 C 
ATOM     11  C   UNL     1      -2.425 -11.006  16.404  0.00  0.00    +0.085 C 
ATOM     12  C   UNL     1      -1.441 -10.029  14.460  0.00  0.00    +0.030 C 
ATOM     15  C   UNL     1      -1.088 -10.811  15.718  0.00  0.00    +0.017 C 
ENDROOT
BRANCH   3   9
ATOM      2  O   UNL     1      -7.509 -10.609  19.712  0.00  0.00    -0.276 OA
ATOM      4  N   UNL     1      -6.809 -11.388  17.638  0.00  0.00    -0.302 N 
ATOM      9  C   UNL     1      -4.720 -11.192  15.643  0.00  0.00    +0.060 C 
ATOM     13  C   UNL     1      -4.919 -10.107  16.708  0.00  0.00    +0.038 C 
ATOM     14  C   UNL     1      -5.209 -12.551  16.164  0.00  0.00    +0.038 C 
ATOM     16  C   UNL     1      -6.371 -10.067  17.182  0.00  0.00    +0.109 C 
ATOM     17  C   UNL     1      -6.655 -12.463  16.650  0.00  0.00    +0.109 C 
ATOM     19  C   UNL     1      -7.358 -11.536  18.912  0.00  0.00    +0.212 C 
ATOM     20  C   UNL     1      -7.781 -12.927  19.308  0.00  0.00    +0.109 C 
ENDBRANCH   3   9
BRANCH  10  18
ATOM      1  O   UNL     1      -2.750 -12.127  12.569  0.00  0.00    -0.336 OA
ATOM      5  N   UNL     1      -3.792 -10.297  11.804  0.00  0.00    -0.190 NA
ATOM      6  N   UNL     1      -3.102 -12.405  11.242  0.00  0.00    -0.056 NA
ATOM     18  C   UNL     1      -3.193 -10.866  12.820  0.00  0.00    +0.245 A 
ATOM     21  C   UNL     1      -3.712 -11.279  10.860  0.00  0.00    +0.204 A 
BRANCH  21  22
ATOM      7  N   UNL     1      -4.901 -12.081   7.429  0.00  0.00    -0.240 NA
ATOM     22  C   UNL     1      -4.254 -11.103   9.543  0.00  0.00    +0.041 A 
ATOM     23  C   UNL     1      -4.649  -9.849   9.092  0.00  0.00    +0.016 A 
ATOM     24  C   UNL     1      -4.399 -12.178   8.681  0.00  0.00    +0.124 A 
ATOM     25  C   UNL     1      -5.170  -9.709   7.810  0.00  0.00    +0.044 A 
ATOM     26  C   UNL     1      -5.274 -10.845   7.025  0.00  0.00    +0.121 A 
BRANCH  26   8
ATOM      8  N   UNL     1      -5.807 -10.687   5.722  0.00  0.00    -0.321 N 
ATOM     27  C   UNL     1      -5.506 -11.655   4.690  0.00  0.00    +0.130 C 
ATOM     28  C   UNL     1      -6.652  -9.554   5.414  0.00  0.00    +0.130 C 
ENDBRANCH  26   8
ENDBRANCH  21  22
ENDBRANCH  10  18
TORSDOF 4
ENDMDL
MODEL 10
REMARK VINA RESULT:      -6.7      3.877     10.736
REMARK  Name = 45783795
REMARK  7 active torsions:
REMARK  status: ('A' for Active; 'I' for Inactive)
REMARK    1  A    between atoms: N_3  and  C_9
REMARK    2  A    between atoms: N_8  and  C_26
REMARK    3  A    between atoms: N_8  and  C_27
REMARK    4  A    between atoms: N_8  and  C_28
REMARK    5  A    between atoms: C_10  and  C_18
REMARK    6  A    between atoms: C_19  and  C_20
REMARK    7  A    between atoms: C_21  and  C_22
REMARK                            x       y       z     vdW  Elec       q    Type
REMARK                         _______ _______ _______ _____ _____    ______ ____
ROOT
ATOM      3  N   UNL     1      23.138   5.007  20.864  0.00  0.00    -0.288 NA
ATOM     10  C   UNL     1      22.711   5.994  21.875  0.00  0.00    +0.146 C 
ATOM     11  C   UNL     1      24.489   5.391  20.455  0.00  0.00    +0.085 C 
ATOM     12  C   UNL     1      23.485   7.277  21.521  0.00  0.00    +0.030 C 
ATOM     15  C   UNL     1      24.365   6.896  20.339  0.00  0.00    +0.017 C 
ENDROOT
BRANCH   3   9
ATOM      2  O   UNL     1      25.371   0.691  24.630  0.00  0.00    -0.276 OA
ATOM      4  N   UNL     1      24.322   1.376  22.674  0.00  0.00    -0.302 N 
ATOM      9  C   UNL     1      23.080   3.628  21.345  0.00  0.00    +0.060 C 
ATOM     13  C   UNL     1      23.263   3.595  22.867  0.00  0.00    +0.038 C 
ATOM     14  C   UNL     1      24.161   2.785  20.655  0.00  0.00    +0.038 C 
ATOM     16  C   UNL     1      23.302   2.156  23.380  0.00  0.00    +0.109 C 
ATOM     17  C   UNL     1      24.183   1.361  21.213  0.00  0.00    +0.109 C 
ATOM     19  C   UNL     1      25.297   0.692  23.399  0.00  0.00    +0.212 C 
ATOM     20  C   UNL     1      26.312  -0.085  22.599  0.00  0.00    +0.109 C 
ENDBRANCH   3   9
BRANCH  10  18
ATOM      1  O   UNL     1      20.620   6.274  23.111  0.00  0.00    -0.336 OA
ATOM      5  N   UNL     1      20.380   6.324  20.884  0.00  0.00    -0.190 NA
ATOM      6  N   UNL     1      19.254   6.464  22.870  0.00  0.00    -0.056 NA
ATOM     18  C   UNL     1      21.211   6.202  21.889  0.00  0.00    +0.245 A 
ATOM     21  C   UNL     1      19.192   6.483  21.536  0.00  0.00    +0.204 A 
BRANCH  21  22
ATOM      7  N   UNL     1      15.791   7.717  20.679  0.00  0.00    -0.240 NA
ATOM     22  C   UNL     1      17.959   6.660  20.822  0.00  0.00    +0.041 A 
ATOM     23  C   UNL     1      17.718   5.986  19.631  0.00  0.00    +0.016 A 
ATOM     24  C   UNL     1      16.973   7.506  21.300  0.00  0.00    +0.124 A 
ATOM     25  C   UNL     1      16.514   6.177  18.962  0.00  0.00    +0.044 A 
ATOM     26  C   UNL     1      15.592   7.045  19.522  0.00  0.00    +0.121 A 
BRANCH  26   8
ATOM      8  N   UNL     1      14.370   7.230  18.829  0.00  0.00    -0.321 N 
ATOM     27  C   UNL     1      14.372   7.711  17.465  0.00  0.00    +0.130 C 
ATOM     28  C   UNL     1      13.112   6.944  19.483  0.00  0.00    +0.130 C 
ENDBRANCH  26   8
ENDBRANCH  21  22
ENDBRANCH  10  18
TORSDOF 4
ENDMDL
