REMARK  Name = 51137452
REMARK  7 active torsions:
REMARK  status: ('A' for Active; 'I' for Inactive)
REMARK    1  A    between atoms: O_2  and  C_21
REMARK    2  A    between atoms: O_2  and  C_27
REMARK    3  A    between atoms: N_3  and  C_11
REMARK    4  A    between atoms: C_7  and  C_12
REMARK    5  A    between atoms: C_11  and  C_13
REMARK    6  A    between atoms: C_14  and  C_17
REMARK    7  A    between atoms: C_18  and  C_25
REMARK                            x       y       z     vdW  Elec       q    Type
REMARK                         _______ _______ _______ _____ _____    ______ ____
ROOT
ATOM      3  N   UNL     1      -2.282  -0.272  -0.573  0.00  0.00    -0.297 NA
ATOM      7  C   UNL     1       0.003  -0.651  -0.205  0.00  0.00    +0.092 C 
ATOM      8  C   UNL     1      -0.717  -0.498   1.146  0.00  0.00    +0.029 C 
ATOM      9  C   UNL     1      -0.989  -0.101  -1.239  0.00  0.00    +0.097 C 
ATOM     10  C   UNL     1      -2.053   0.151   0.808  0.00  0.00    +0.085 C 
ENDROOT
BRANCH   7  12
ATOM      1  O   UNL     1       2.433  -0.745   0.080  0.00  0.00    -0.420 OA
ATOM      4  N   UNL     1       1.676   1.230  -0.646  0.00  0.00    -0.112 NA
ATOM      5  N   UNL     1       3.050   1.317  -0.531  0.00  0.00    -0.107 NA
ATOM     12  C   UNL     1       1.360   0.010  -0.280  0.00  0.00    +0.222 A 
ATOM     14  C   UNL     1       3.450   0.141  -0.104  0.00  0.00    +0.252 A 
BRANCH  14  17
ATOM     17  C   UNL     1       4.766  -0.344   0.192  0.00  0.00    +0.080 A 
ATOM     21  C   UNL     1       5.883   0.478   0.040  0.00  0.00    +0.132 A 
ATOM     22  C   UNL     1       4.922  -1.656   0.638  0.00  0.00    +0.017 A 
ATOM     23  C   UNL     1       7.155  -0.012   0.335  0.00  0.00    +0.046 A 
ATOM     24  C   UNL     1       6.194  -2.147   0.933  0.00  0.00    +0.001 A 
ATOM     26  C   UNL     1       7.311  -1.325   0.781  0.00  0.00    +0.004 A 
BRANCH  21   2
ATOM      2  O   UNL     1       5.760   1.765  -0.394  0.00  0.00    -0.494 OA
ATOM     27  C   UNL     1       6.962   2.523  -0.516  0.00  0.00    +0.277 C 
ENDBRANCH  21   2
ENDBRANCH  14  17
ENDBRANCH   7  12
BRANCH   3  11
ATOM     11  C   UNL     1      -3.343   0.487  -1.217  0.00  0.00    +0.119 C 
BRANCH  11  13
ATOM     13  C   UNL     1      -4.708  -0.014  -0.827  0.00  0.00    -0.032 A 
ATOM     15  C   UNL     1      -5.477   0.699   0.093  0.00  0.00    +0.023 A 
ATOM     16  C   UNL     1      -5.204  -1.192  -1.386  0.00  0.00    +0.005 A 
ATOM     18  C   UNL     1      -6.742   0.234   0.453  0.00  0.00    +0.052 A 
ATOM     19  C   UNL     1      -6.469  -1.656  -1.026  0.00  0.00    +0.002 A 
ATOM     20  C   UNL     1      -7.238  -0.944  -0.107  0.00  0.00    +0.019 A 
BRANCH  18  25
ATOM      6  N   UNL     1      -8.172   1.557   2.159  0.00  0.00    -0.191 NA
ATOM     25  C   UNL     1      -7.532   0.964   1.394  0.00  0.00    +0.099 C 
ENDBRANCH  18  25
ENDBRANCH  11  13
ENDBRANCH   3  11
TORSDOF 6
