REMARK  Name = 40777477
REMARK  7 active torsions:
REMARK  status: ('A' for Active; 'I' for Inactive)
REMARK    1  A    between atoms: N_4  and  C_18
REMARK    2  A    between atoms: C_7  and  C_13
REMARK    3  A    between atoms: C_8  and  C_12
REMARK    4  A    between atoms: C_12  and  C_14
REMARK    5  A    between atoms: C_13  and  C_15
REMARK    6  A    between atoms: C_17  and  C_20
REMARK    7  A    between atoms: C_18  and  C_19
REMARK                            x       y       z     vdW  Elec       q    Type
REMARK                         _______ _______ _______ _____ _____    ______ ____
ROOT
ATOM      3  N   UNL     1       0.071   3.241  -0.238  0.00  0.00    -0.316 NA
ATOM      7  C   UNL     1       0.913   0.454  -0.715  0.00  0.00    +0.004 C 
ATOM      8  C   UNL     1      -0.494   0.824  -0.188  0.00  0.00    +0.012 C 
ATOM      9  C   UNL     1       1.491   1.651  -1.486  0.00  0.00    +0.019 C 
ATOM     10  C   UNL     1      -0.482   2.158   0.576  0.00  0.00    +0.085 C 
ATOM     11  C   UNL     1       1.433   2.948  -0.680  0.00  0.00    +0.081 C 
ATOM     30  H   UNL     1       0.071   4.105   0.304  0.00  0.00    +0.122 HD
ENDROOT
BRANCH   8  12
ATOM     12  C   UNL     1      -1.124  -0.278   0.665  0.00  0.00    +0.064 C 
BRANCH  12  14
ATOM      2  O   UNL     1      -4.559   0.494   1.419  0.00  0.00    -0.353 OA
ATOM      5  N   UNL     1      -3.195   0.586   1.667  0.00  0.00    -0.083 NA
ATOM     14  C   UNL     1      -2.619  -0.148   0.711  0.00  0.00    +0.085 A 
ATOM     16  C   UNL     1      -3.560  -0.721  -0.162  0.00  0.00    +0.077 A 
ATOM     17  C   UNL     1      -4.764  -0.287   0.327  0.00  0.00    +0.186 A 
BRANCH  17  20
ATOM      6  N   UNL     1      -7.030   0.158   0.736  0.00  0.00    -0.252 NA
ATOM     20  C   UNL     1      -6.134  -0.475  -0.054  0.00  0.00    +0.109 A 
ATOM     23  C   UNL     1      -6.477  -1.250  -1.150  0.00  0.00    +0.031 A 
ATOM     26  C   UNL     1      -7.826  -1.383  -1.456  0.00  0.00    +0.004 A 
ATOM     28  C   UNL     1      -8.333   0.005   0.407  0.00  0.00    +0.111 A 
ATOM     29  C   UNL     1      -8.778  -0.747  -0.667  0.00  0.00    +0.020 A 
ENDBRANCH  17  20
ENDBRANCH  12  14
ENDBRANCH   8  12
BRANCH   7  13
ATOM     13  C   UNL     1       1.884  -0.013   0.376  0.00  0.00    +0.099 C 
BRANCH  13  15
ATOM      1  O   UNL     1       3.152  -1.091  -1.380  0.00  0.00    -0.276 OA
ATOM      4  N   UNL     1       3.906  -1.218   0.815  0.00  0.00    -0.311 N 
ATOM     15  C   UNL     1       3.031  -0.824  -0.187  0.00  0.00    +0.214 C 
ATOM     31  H   UNL     1       3.726  -0.931   1.773  0.00  0.00    +0.149 HD
BRANCH   4  18
ATOM     18  C   UNL     1       5.091  -2.006   0.563  0.00  0.00    +0.139 C 
BRANCH  18  19
ATOM     19  C   UNL     1       6.288  -1.146   0.280  0.00  0.00    -0.030 A 
ATOM     21  C   UNL     1       6.580  -0.767  -1.030  0.00  0.00    +0.005 A 
ATOM     22  C   UNL     1       7.109  -0.725   1.327  0.00  0.00    +0.005 A 
ATOM     24  C   UNL     1       7.693   0.032  -1.294  0.00  0.00    +0.000 A 
ATOM     25  C   UNL     1       8.221   0.074   1.064  0.00  0.00    +0.000 A 
ATOM     27  C   UNL     1       8.513   0.453  -0.246  0.00  0.00    +0.000 A 
ENDBRANCH  18  19
ENDBRANCH   4  18
ENDBRANCH  13  15
ENDBRANCH   7  13
TORSDOF 7
