REMARK  Name = 40780285
REMARK  9 active torsions:
REMARK  status: ('A' for Active; 'I' for Inactive)
REMARK    1  A    between atoms: O_2  and  C_21
REMARK    2  A    between atoms: O_2  and  C_34
REMARK    3  A    between atoms: N_5  and  C_12
REMARK    4  A    between atoms: N_5  and  C_22
REMARK    5  A    between atoms: N_7  and  C_32
REMARK    6  A    between atoms: C_10  and  C_18
REMARK    7  A    between atoms: C_14  and  C_21
REMARK    8  A    between atoms: C_22  and  C_27
REMARK    9  A    between atoms: C_27  and  C_32
REMARK                            x       y       z     vdW  Elec       q    Type
REMARK                         _______ _______ _______ _____ _____    ______ ____
ROOT
ATOM      4  N   UNL     1       1.316   0.564   0.073  0.00  0.00    -0.274 NA
ATOM      6  N   UNL     1       2.321  -3.053  -0.062  0.00  0.00    -0.356 N 
ATOM      9  C   UNL     1       1.109  -0.829  -0.432  0.00  0.00    +0.106 C 
ATOM     10  C   UNL     1       0.209   1.469  -0.326  0.00  0.00    +0.090 C 
ATOM     11  C   UNL     1      -0.221  -1.401   0.083  0.00  0.00    +0.044 C 
ATOM     12  C   UNL     1      -1.389  -0.516  -0.353  0.00  0.00    +0.057 C 
ATOM     13  C   UNL     1      -1.159   0.913   0.137  0.00  0.00    +0.042 C 
ATOM     14  C   UNL     1       2.682   1.085  -0.210  0.00  0.00    +0.172 C 
ATOM     15  C   UNL     1       2.272  -1.687  -0.034  0.00  0.00    +0.038 A 
ATOM     16  C   UNL     1       3.792   0.236   0.460  0.00  0.00    +0.068 C 
ATOM     17  C   UNL     1       3.508  -1.222   0.357  0.00  0.00    -0.016 A 
ATOM     19  C   UNL     1       4.336  -2.348   0.614  0.00  0.00    +0.003 A 
ATOM     20  C   UNL     1       3.566  -3.484   0.344  0.00  0.00    +0.047 A 
ATOM     25  C   UNL     1       5.667  -2.518   1.045  0.00  0.00    +0.010 A 
ATOM     26  C   UNL     1       4.066  -4.784   0.487  0.00  0.00    +0.026 A 
ATOM     28  C   UNL     1       6.178  -3.812   1.193  0.00  0.00    +0.001 A 
ATOM     31  C   UNL     1       5.388  -4.926   0.918  0.00  0.00    +0.002 A 
ATOM     39  H   UNL     1       1.563  -3.663  -0.335  0.00  0.00    +0.166 HD
ENDROOT
BRANCH  10  18
ATOM      1  F   UNL     1       0.688   6.731   1.692  0.00  0.00    -0.205 F 
ATOM     18  C   UNL     1       0.338   2.890   0.219  0.00  0.00    -0.030 A 
ATOM     23  C   UNL     1      -0.118   3.970  -0.536  0.00  0.00    +0.008 A 
ATOM     24  C   UNL     1       0.913   3.107   1.471  0.00  0.00    +0.008 A 
ATOM     29  C   UNL     1       0.000   5.268  -0.039  0.00  0.00    +0.038 A 
ATOM     30  C   UNL     1       1.031   4.404   1.969  0.00  0.00    +0.038 A 
ATOM     33  C   UNL     1       0.575   5.485   1.214  0.00  0.00    +0.123 A 
ENDBRANCH  10  18
BRANCH  14  21
ATOM      3  O   UNL     1       2.078   0.880  -2.536  0.00  0.00    -0.249 OA
ATOM     21  C   UNL     1       2.908   1.191  -1.692  0.00  0.00    +0.325 C 
BRANCH  21   2
ATOM      2  O   UNL     1       4.159   1.679  -1.928  0.00  0.00    -0.467 OA
ATOM     34  C   UNL     1       4.509   1.833  -3.307  0.00  0.00    +0.280 C 
ENDBRANCH  21   2
ENDBRANCH  14  21
BRANCH  12   5
ATOM      5  N   UNL     1      -2.646  -1.050   0.169  0.00  0.00    -0.313 NA
ATOM     38  H   UNL     1      -2.635  -2.069   0.118  0.00  0.00    +0.122 HD
BRANCH   5  22
ATOM     22  C   UNL     1      -3.776  -0.555  -0.602  0.00  0.00    +0.083 C 
BRANCH  22  27
ATOM     27  C   UNL     1      -5.081  -1.139  -0.065  0.00  0.00    +0.037 C 
BRANCH  27  32
ATOM     32  C   UNL     1      -6.282  -0.636  -0.870  0.00  0.00    +0.124 C 
BRANCH  32   7
ATOM      7  N   UNL     1      -7.582  -1.170  -0.325  0.00  0.00    -0.337 N 
ATOM      8  N   UNL     1      -9.518  -1.224   0.763  0.00  0.00    -0.244 NA
ATOM     35  C   UNL     1      -8.080  -2.429  -0.508  0.00  0.00    +0.106 A 
ATOM     36  C   UNL     1      -8.480  -0.483   0.444  0.00  0.00    +0.199 A 
ATOM     37  C   UNL     1      -9.275  -2.438   0.172  0.00  0.00    +0.130 A 
ENDBRANCH  32   7
ENDBRANCH  27  32
ENDBRANCH  22  27
ENDBRANCH   5  22
ENDBRANCH  12   5
TORSDOF 8
