REMARK  Name = 45783288
REMARK  4 active torsions:
REMARK  status: ('A' for Active; 'I' for Inactive)
REMARK    1  A    between atoms: N_4  and  C_13
REMARK    2  A    between atoms: C_9  and  C_14
REMARK    3  A    between atoms: C_13  and  C_15
REMARK    4  A    between atoms: C_16  and  C_21
REMARK                            x       y       z     vdW  Elec       q    Type
REMARK                         _______ _______ _______ _____ _____    ______ ____
ROOT
ATOM      2  O   UNL     1      -2.524   2.485   0.112  0.00  0.00    -0.336 OA
ATOM      5  N   UNL     1      -1.113   0.820   0.616  0.00  0.00    -0.190 NA
ATOM      7  N   UNL     1      -1.245   2.940  -0.236  0.00  0.00    -0.056 NA
ATOM     14  C   UNL     1      -2.356   1.230   0.605  0.00  0.00    +0.245 A 
ATOM     16  C   UNL     1      -0.468   1.903   0.091  0.00  0.00    +0.202 A 
ENDROOT
BRANCH  16  21
ATOM      3  O   UNL     1       5.510  -2.450   0.945  0.00  0.00    -0.377 OA
ATOM      6  N   UNL     1       3.837  -0.251   0.431  0.00  0.00    -0.311 N 
ATOM      8  N   UNL     1       3.726   1.941  -0.455  0.00  0.00    -0.240 NA
ATOM     19  C   UNL     1       3.572  -1.547  -0.203  0.00  0.00    +0.134 C 
ATOM     20  C   UNL     1       5.222  -0.042   0.875  0.00  0.00    +0.134 C 
ATOM     21  C   UNL     1       0.954   1.916  -0.093  0.00  0.00    +0.027 A 
ATOM     22  C   UNL     1       3.085   0.871   0.065  0.00  0.00    +0.122 A 
ATOM     23  C   UNL     1       4.127  -2.669   0.668  0.00  0.00    +0.178 C 
ATOM     24  C   UNL     1       5.688  -1.244   1.689  0.00  0.00    +0.178 C 
ATOM     25  C   UNL     1       1.715   0.808   0.264  0.00  0.00    +0.055 A 
ATOM     28  C   UNL     1       1.578   3.037  -0.631  0.00  0.00    +0.031 A 
ATOM     30  C   UNL     1       2.954   2.999  -0.790  0.00  0.00    +0.113 A 
ENDBRANCH  16  21
BRANCH  14   9
ATOM      4  N   UNL     1      -3.485  -0.959   0.962  0.00  0.00    -0.287 NA
ATOM      9  C   UNL     1      -3.609   0.510   1.057  0.00  0.00    +0.146 C 
ATOM     10  C   UNL     1      -3.948   0.778   2.535  0.00  0.00    +0.030 C 
ATOM     11  C   UNL     1      -4.054  -0.598   3.175  0.00  0.00    +0.017 C 
ATOM     12  C   UNL     1      -4.347  -1.515   2.004  0.00  0.00    +0.085 C 
BRANCH   4  13
ATOM     13  C   UNL     1      -3.817  -1.478  -0.359  0.00  0.00    +0.123 C 
BRANCH  13  15
ATOM      1  F   UNL     1      -1.245  -2.590   0.062  0.00  0.00    -0.205 F 
ATOM     15  C   UNL     1      -2.679  -1.308  -1.330  0.00  0.00    +0.002 A 
ATOM     17  C   UNL     1      -1.437  -1.883  -1.061  0.00  0.00    +0.128 A 
ATOM     18  C   UNL     1      -2.868  -0.574  -2.501  0.00  0.00    +0.008 A 
ATOM     26  C   UNL     1      -0.384  -1.724  -1.962  0.00  0.00    +0.038 A 
ATOM     27  C   UNL     1      -1.816  -0.415  -3.403  0.00  0.00    +0.000 A 
ATOM     29  C   UNL     1      -0.574  -0.990  -3.133  0.00  0.00    +0.003 A 
ENDBRANCH  13  15
ENDBRANCH   4  13
ENDBRANCH  14   9
TORSDOF 4
