MODEL 1
REMARK VINA RESULT:      -6.4      0.000      0.000
REMARK  Name = 45783479
REMARK  11 active torsions:
REMARK  status: ('A' for Active; 'I' for Inactive)
REMARK    1  A    between atoms: O_3  and  C_22
REMARK    2  A    between atoms: O_4  and  C_28
REMARK    3  A    between atoms: O_4  and  C_29
REMARK    4  A    between atoms: N_5  and  C_14
REMARK    5  A    between atoms: N_9  and  C_26
REMARK    6  A    between atoms: N_9  and  C_27
REMARK    7  A    between atoms: C_10  and  C_15
REMARK    8  A    between atoms: C_14  and  C_16
REMARK    9  A    between atoms: C_18  and  C_21
REMARK   10  A    between atoms: C_19  and  C_22
REMARK   11  A    between atoms: C_27  and  C_28
REMARK                            x       y       z     vdW  Elec       q    Type
REMARK                         _______ _______ _______ _____ _____    ______ ____
ROOT
ATOM      1  O   UNL     1      15.333   8.486  19.765  0.00  0.00    -0.336 OA
ATOM      6  N   UNL     1      16.173   6.521  19.096  0.00  0.00    -0.190 NA
ATOM      7  N   UNL     1      16.533   8.316  20.467  0.00  0.00    -0.056 NA
ATOM     15  C   UNL     1      15.196   7.385  18.981  0.00  0.00    +0.245 A 
ATOM     18  C   UNL     1      16.968   7.135  20.018  0.00  0.00    +0.204 A 
ENDROOT
BRANCH  18  21
ATOM      8  N   UNL     1      20.012   6.518  22.064  0.00  0.00    -0.240 NA
ATOM     21  C   UNL     1      18.193   6.541  20.472  0.00  0.00    +0.041 A 
ATOM     23  C   UNL     1      18.751   5.455  19.807  0.00  0.00    +0.016 A 
ATOM     24  C   UNL     1      18.856   7.031  21.585  0.00  0.00    +0.124 A 
ATOM     25  C   UNL     1      19.939   4.900  20.271  0.00  0.00    +0.044 A 
ATOM     26  C   UNL     1      20.524   5.462  21.393  0.00  0.00    +0.119 A 
BRANCH  26   9
ATOM      9  N   UNL     1      21.733   4.885  21.852  0.00  0.00    -0.327 N 
ATOM     31  H   UNL     1      22.477   5.530  22.097  0.00  0.00    +0.148 HD
BRANCH   9  27
ATOM     27  C   UNL     1      21.919   3.476  21.969  0.00  0.00    +0.131 C 
BRANCH  27  28
ATOM     28  C   UNL     1      23.162   3.050  21.205  0.00  0.00    +0.178 C 
BRANCH  28   4
ATOM      4  O   UNL     1      23.991   4.183  20.981  0.00  0.00    -0.381 OA
ATOM     29  C   UNL     1      24.639   4.112  19.719  0.00  0.00    +0.194 C 
ENDBRANCH  28   4
ENDBRANCH  27  28
ENDBRANCH   9  27
ENDBRANCH  26   9
ENDBRANCH  18  21
BRANCH  15  10
ATOM      5  N   UNL     1      12.780   7.939  18.751  0.00  0.00    -0.284 NA
ATOM     10  C   UNL     1      13.959   7.326  18.109  0.00  0.00    +0.146 C 
ATOM     11  C   UNL     1      14.128   8.095  16.785  0.00  0.00    +0.030 C 
ATOM     12  C   UNL     1      12.965   9.077  16.745  0.00  0.00    +0.017 C 
ATOM     13  C   UNL     1      11.940   8.453  17.669  0.00  0.00    +0.085 C 
BRANCH   5  14
ATOM     14  C   UNL     1      12.056   7.021  19.620  0.00  0.00    +0.159 C 
BRANCH  14  16
ATOM      2  O   UNL     1      12.061   8.928  21.132  0.00  0.00    -0.461 OA
ATOM     16  C   UNL     1      11.529   7.710  20.851  0.00  0.00    +0.119 A 
ATOM     17  C   UNL     1      10.591   7.363  21.794  0.00  0.00    +0.046 A 
ATOM     19  C   UNL     1      11.454   9.365  22.266  0.00  0.00    +0.131 A 
ATOM     20  C   UNL     1      10.542   8.437  22.714  0.00  0.00    +0.047 A 
BRANCH  19  22
ATOM     22  C   UNL     1      11.876  10.681  22.765  0.00  0.00    +0.230 C 
BRANCH  22   3
ATOM      3  O   UNL     1      11.840  10.704  24.194  0.00  0.00    -0.387 OA
ATOM     30  H   UNL     1      12.210  11.558  24.473  0.00  0.00    +0.210 HD
ENDBRANCH  22   3
ENDBRANCH  19  22
ENDBRANCH  14  16
ENDBRANCH   5  14
ENDBRANCH  15  10
TORSDOF 10
ENDMDL
MODEL 2
REMARK VINA RESULT:      -6.3      1.561      2.259
REMARK  Name = 45783479
REMARK  11 active torsions:
REMARK  status: ('A' for Active; 'I' for Inactive)
REMARK    1  A    between atoms: O_3  and  C_22
REMARK    2  A    between atoms: O_4  and  C_28
REMARK    3  A    between atoms: O_4  and  C_29
REMARK    4  A    between atoms: N_5  and  C_14
REMARK    5  A    between atoms: N_9  and  C_26
REMARK    6  A    between atoms: N_9  and  C_27
REMARK    7  A    between atoms: C_10  and  C_15
REMARK    8  A    between atoms: C_14  and  C_16
REMARK    9  A    between atoms: C_18  and  C_21
REMARK   10  A    between atoms: C_19  and  C_22
REMARK   11  A    between atoms: C_27  and  C_28
REMARK                            x       y       z     vdW  Elec       q    Type
REMARK                         _______ _______ _______ _____ _____    ______ ____
ROOT
ATOM      1  O   UNL     1      15.412   6.552  18.663  0.00  0.00    -0.336 OA
ATOM      6  N   UNL     1      16.546   7.683  20.228  0.00  0.00    -0.190 NA
ATOM      7  N   UNL     1      16.562   5.799  18.931  0.00  0.00    -0.056 NA
ATOM     15  C   UNL     1      15.480   7.644  19.468  0.00  0.00    +0.245 A 
ATOM     18  C   UNL     1      17.180   6.531  19.863  0.00  0.00    +0.204 A 
ENDROOT
BRANCH  18  21
ATOM      8  N   UNL     1      20.045   6.392  22.229  0.00  0.00    -0.240 NA
ATOM     21  C   UNL     1      18.430   6.141  20.448  0.00  0.00    +0.041 A 
ATOM     23  C   UNL     1      19.229   5.173  19.849  0.00  0.00    +0.016 A 
ATOM     24  C   UNL     1      18.878   6.715  21.625  0.00  0.00    +0.124 A 
ATOM     25  C   UNL     1      20.436   4.815  20.440  0.00  0.00    +0.044 A 
ATOM     26  C   UNL     1      20.795   5.447  21.618  0.00  0.00    +0.119 A 
BRANCH  26   9
ATOM      9  N   UNL     1      22.027   5.071  22.208  0.00  0.00    -0.327 N 
ATOM     31  H   UNL     1      22.693   5.817  22.377  0.00  0.00    +0.148 HD
BRANCH   9  27
ATOM     27  C   UNL     1      22.337   3.721  22.550  0.00  0.00    +0.131 C 
BRANCH  27  28
ATOM     28  C   UNL     1      23.785   3.416  22.205  0.00  0.00    +0.178 C 
BRANCH  28   4
ATOM      4  O   UNL     1      23.843   2.247  21.400  0.00  0.00    -0.381 OA
ATOM     29  C   UNL     1      24.673   2.439  20.262  0.00  0.00    +0.194 C 
ENDBRANCH  28   4
ENDBRANCH  27  28
ENDBRANCH   9  27
ENDBRANCH  26   9
ENDBRANCH  18  21
BRANCH  15  10
ATOM      5  N   UNL     1      14.608   9.892  20.084  0.00  0.00    -0.284 NA
ATOM     10  C   UNL     1      14.335   8.630  19.369  0.00  0.00    +0.146 C 
ATOM     11  C   UNL     1      14.041   9.057  17.919  0.00  0.00    +0.030 C 
ATOM     12  C   UNL     1      14.114  10.577  17.930  0.00  0.00    +0.017 C 
ATOM     13  C   UNL     1      13.863  10.936  19.380  0.00  0.00    +0.085 C 
BRANCH   5  14
ATOM     14  C   UNL     1      14.270   9.836  21.500  0.00  0.00    +0.159 C 
BRANCH  14  16
ATOM      2  O   UNL     1      12.632   8.038  21.575  0.00  0.00    -0.461 OA
ATOM     16  C   UNL     1      12.856   9.370  21.722  0.00  0.00    +0.119 A 
ATOM     17  C   UNL     1      11.691  10.023  22.054  0.00  0.00    +0.046 A 
ATOM     19  C   UNL     1      11.310   7.837  21.816  0.00  0.00    +0.131 A 
ATOM     20  C   UNL     1      10.688   9.027  22.115  0.00  0.00    +0.047 A 
BRANCH  19  22
ATOM     22  C   UNL     1      10.832   6.451  21.713  0.00  0.00    +0.230 C 
BRANCH  22   3
ATOM      3  O   UNL     1      11.939   5.554  21.599  0.00  0.00    -0.387 OA
ATOM     30  H   UNL     1      11.948   5.230  20.683  0.00  0.00    +0.210 HD
ENDBRANCH  22   3
ENDBRANCH  19  22
ENDBRANCH  14  16
ENDBRANCH   5  14
ENDBRANCH  15  10
TORSDOF 10
ENDMDL
MODEL 3
REMARK VINA RESULT:      -6.1      1.541      2.226
REMARK  Name = 45783479
REMARK  11 active torsions:
REMARK  status: ('A' for Active; 'I' for Inactive)
REMARK    1  A    between atoms: O_3  and  C_22
REMARK    2  A    between atoms: O_4  and  C_28
REMARK    3  A    between atoms: O_4  and  C_29
REMARK    4  A    between atoms: N_5  and  C_14
REMARK    5  A    between atoms: N_9  and  C_26
REMARK    6  A    between atoms: N_9  and  C_27
REMARK    7  A    between atoms: C_10  and  C_15
REMARK    8  A    between atoms: C_14  and  C_16
REMARK    9  A    between atoms: C_18  and  C_21
REMARK   10  A    between atoms: C_19  and  C_22
REMARK   11  A    between atoms: C_27  and  C_28
REMARK                            x       y       z     vdW  Elec       q    Type
REMARK                         _______ _______ _______ _____ _____    ______ ____
ROOT
ATOM      1  O   UNL     1      14.623   8.788  20.601  0.00  0.00    -0.336 OA
ATOM      6  N   UNL     1      15.378   6.852  19.765  0.00  0.00    -0.190 NA
ATOM      7  N   UNL     1      15.976   8.713  20.953  0.00  0.00    -0.056 NA
ATOM     15  C   UNL     1      14.352   7.654  19.904  0.00  0.00    +0.245 A 
ATOM     18  C   UNL     1      16.351   7.544  20.425  0.00  0.00    +0.204 A 
ENDROOT
BRANCH  18  21
ATOM      8  N   UNL     1      19.295   5.308  20.019  0.00  0.00    -0.240 NA
ATOM     21  C   UNL     1      17.689   7.039  20.539  0.00  0.00    +0.041 A 
ATOM     23  C   UNL     1      18.660   7.738  21.247  0.00  0.00    +0.016 A 
ATOM     24  C   UNL     1      18.053   5.840  19.949  0.00  0.00    +0.124 A 
ATOM     25  C   UNL     1      19.949   7.223  21.340  0.00  0.00    +0.044 A 
ATOM     26  C   UNL     1      20.213   6.016  20.714  0.00  0.00    +0.119 A 
BRANCH  26   9
ATOM      9  N   UNL     1      21.530   5.506  20.818  0.00  0.00    -0.327 N 
ATOM     31  H   UNL     1      22.059   5.442  19.955  0.00  0.00    +0.148 HD
BRANCH   9  27
ATOM     27  C   UNL     1      22.100   5.093  22.058  0.00  0.00    +0.131 C 
BRANCH  27  28
ATOM     28  C   UNL     1      22.109   3.576  22.148  0.00  0.00    +0.178 C 
BRANCH  28   4
ATOM      4  O   UNL     1      22.164   3.183  23.513  0.00  0.00    -0.381 OA
ATOM     29  C   UNL     1      23.156   2.189  23.729  0.00  0.00    +0.194 C 
ENDBRANCH  28   4
ENDBRANCH  27  28
ENDBRANCH   9  27
ENDBRANCH  26   9
ENDBRANCH  18  21
BRANCH  15  10
ATOM      5  N   UNL     1      12.090   8.670  19.688  0.00  0.00    -0.284 NA
ATOM     10  C   UNL     1      12.932   7.492  19.402  0.00  0.00    +0.146 C 
ATOM     11  C   UNL     1      12.858   7.319  17.873  0.00  0.00    +0.030 C 
ATOM     12  C   UNL     1      11.906   8.408  17.397  0.00  0.00    +0.017 C 
ATOM     13  C   UNL     1      11.083   8.726  18.628  0.00  0.00    +0.085 C 
BRANCH   5  14
ATOM     14  C   UNL     1      11.489   8.639  21.015  0.00  0.00    +0.159 C 
BRANCH  14  16
ATOM      2  O   UNL     1      11.200  10.031  22.990  0.00  0.00    -0.461 OA
ATOM     16  C   UNL     1      11.492   9.997  21.664  0.00  0.00    +0.119 A 
ATOM     17  C   UNL     1      11.734  11.266  21.191  0.00  0.00    +0.046 A 
ATOM     19  C   UNL     1      11.256  11.334  23.369  0.00  0.00    +0.131 A 
ATOM     20  C   UNL     1      11.580  12.134  22.298  0.00  0.00    +0.047 A 
BRANCH  19  22
ATOM     22  C   UNL     1      10.972  11.615  24.783  0.00  0.00    +0.230 C 
BRANCH  22   3
ATOM      3  O   UNL     1      11.312  10.485  25.590  0.00  0.00    -0.387 OA
ATOM     30  H   UNL     1      10.929   9.703  25.158  0.00  0.00    +0.210 HD
ENDBRANCH  22   3
ENDBRANCH  19  22
ENDBRANCH  14  16
ENDBRANCH   5  14
ENDBRANCH  15  10
TORSDOF 10
ENDMDL
MODEL 4
REMARK VINA RESULT:      -6.0     27.711     32.191
REMARK  Name = 45783479
REMARK  11 active torsions:
REMARK  status: ('A' for Active; 'I' for Inactive)
REMARK    1  A    between atoms: O_3  and  C_22
REMARK    2  A    between atoms: O_4  and  C_28
REMARK    3  A    between atoms: O_4  and  C_29
REMARK    4  A    between atoms: N_5  and  C_14
REMARK    5  A    between atoms: N_9  and  C_26
REMARK    6  A    between atoms: N_9  and  C_27
REMARK    7  A    between atoms: C_10  and  C_15
REMARK    8  A    between atoms: C_14  and  C_16
REMARK    9  A    between atoms: C_18  and  C_21
REMARK   10  A    between atoms: C_19  and  C_22
REMARK   11  A    between atoms: C_27  and  C_28
REMARK                            x       y       z     vdW  Elec       q    Type
REMARK                         _______ _______ _______ _____ _____    ______ ____
ROOT
ATOM      1  O   UNL     1     -16.725   2.367  23.908  0.00  0.00    -0.336 OA
ATOM      6  N   UNL     1     -15.318   3.988  24.549  0.00  0.00    -0.190 NA
ATOM      7  N   UNL     1     -16.349   3.042  22.739  0.00  0.00    -0.056 NA
ATOM     15  C   UNL     1     -16.074   2.987  24.927  0.00  0.00    +0.245 A 
ATOM     18  C   UNL     1     -15.519   3.983  23.200  0.00  0.00    +0.204 A 
ENDROOT
BRANCH  18  21
ATOM      8  N   UNL     1     -15.065   6.607  20.604  0.00  0.00    -0.240 NA
ATOM     21  C   UNL     1     -14.877   4.934  22.339  0.00  0.00    +0.041 A 
ATOM     23  C   UNL     1     -13.499   5.120  22.379  0.00  0.00    +0.016 A 
ATOM     24  C   UNL     1     -15.608   5.695  21.443  0.00  0.00    +0.124 A 
ATOM     25  C   UNL     1     -12.904   6.049  21.533  0.00  0.00    +0.044 A 
ATOM     26  C   UNL     1     -13.723   6.761  20.672  0.00  0.00    +0.119 A 
BRANCH  26   9
ATOM      9  N   UNL     1     -13.102   7.704  19.817  0.00  0.00    -0.327 N 
ATOM     31  H   UNL     1     -13.708   8.401  19.398  0.00  0.00    +0.148 HD
BRANCH   9  27
ATOM     27  C   UNL     1     -11.703   7.691  19.542  0.00  0.00    +0.131 C 
BRANCH  27  28
ATOM     28  C   UNL     1     -11.454   8.068  18.092  0.00  0.00    +0.178 C 
BRANCH  28   4
ATOM      4  O   UNL     1     -10.374   8.989  18.021  0.00  0.00    -0.381 OA
ATOM     29  C   UNL     1     -10.212   9.503  16.706  0.00  0.00    +0.194 C 
ENDBRANCH  28   4
ENDBRANCH  27  28
ENDBRANCH   9  27
ENDBRANCH  26   9
ENDBRANCH  18  21
BRANCH  15  10
ATOM      5  N   UNL     1     -17.396   3.143  27.029  0.00  0.00    -0.284 NA
ATOM     10  C   UNL     1     -16.314   2.436  26.316  0.00  0.00    +0.146 C 
ATOM     11  C   UNL     1     -16.753   0.960  26.304  0.00  0.00    +0.030 C 
ATOM     12  C   UNL     1     -18.061   0.928  27.083  0.00  0.00    +0.017 C 
ATOM     13  C   UNL     1     -17.993   2.171  27.945  0.00  0.00    +0.085 C 
BRANCH   5  14
ATOM     14  C   UNL     1     -16.941   4.343  27.721  0.00  0.00    +0.159 C 
BRANCH  14  16
ATOM      2  O   UNL     1     -15.104   3.619  29.143  0.00  0.00    -0.461 OA
ATOM     16  C   UNL     1     -16.398   4.030  29.089  0.00  0.00    +0.119 A 
ATOM     17  C   UNL     1     -16.946   4.068  30.351  0.00  0.00    +0.046 A 
ATOM     19  C   UNL     1     -14.821   3.394  30.453  0.00  0.00    +0.131 A 
ATOM     20  C   UNL     1     -15.922   3.655  31.236  0.00  0.00    +0.047 A 
BRANCH  19  22
ATOM     22  C   UNL     1     -13.458   2.936  30.756  0.00  0.00    +0.230 C 
BRANCH  22   3
ATOM      3  O   UNL     1     -13.089   1.867  29.881  0.00  0.00    -0.387 OA
ATOM     30  H   UNL     1     -12.763   1.143  30.441  0.00  0.00    +0.210 HD
ENDBRANCH  22   3
ENDBRANCH  19  22
ENDBRANCH  14  16
ENDBRANCH   5  14
ENDBRANCH  15  10
TORSDOF 10
ENDMDL
MODEL 5
REMARK VINA RESULT:      -6.0     28.898     32.388
REMARK  Name = 45783479
REMARK  11 active torsions:
REMARK  status: ('A' for Active; 'I' for Inactive)
REMARK    1  A    between atoms: O_3  and  C_22
REMARK    2  A    between atoms: O_4  and  C_28
REMARK    3  A    between atoms: O_4  and  C_29
REMARK    4  A    between atoms: N_5  and  C_14
REMARK    5  A    between atoms: N_9  and  C_26
REMARK    6  A    between atoms: N_9  and  C_27
REMARK    7  A    between atoms: C_10  and  C_15
REMARK    8  A    between atoms: C_14  and  C_16
REMARK    9  A    between atoms: C_18  and  C_21
REMARK   10  A    between atoms: C_19  and  C_22
REMARK   11  A    between atoms: C_27  and  C_28
REMARK                            x       y       z     vdW  Elec       q    Type
REMARK                         _______ _______ _______ _____ _____    ______ ____
ROOT
ATOM      1  O   UNL     1     -16.772   3.365  22.143  0.00  0.00    -0.336 OA
ATOM      6  N   UNL     1     -16.511   4.462  24.078  0.00  0.00    -0.190 NA
ATOM      7  N   UNL     1     -16.732   2.386  23.143  0.00  0.00    -0.056 NA
ATOM     15  C   UNL     1     -16.635   4.558  22.778  0.00  0.00    +0.245 A 
ATOM     18  C   UNL     1     -16.576   3.110  24.255  0.00  0.00    +0.204 A 
ENDROOT
BRANCH  18  21
ATOM      8  N   UNL     1     -16.681   0.549  26.949  0.00  0.00    -0.240 NA
ATOM     21  C   UNL     1     -16.481   2.516  25.557  0.00  0.00    +0.041 A 
ATOM     23  C   UNL     1     -16.112   3.271  26.664  0.00  0.00    +0.016 A 
ATOM     24  C   UNL     1     -16.752   1.171  25.750  0.00  0.00    +0.124 A 
ATOM     25  C   UNL     1     -16.028   2.667  27.914  0.00  0.00    +0.044 A 
ATOM     26  C   UNL     1     -16.319   1.316  28.003  0.00  0.00    +0.119 A 
BRANCH  26   9
ATOM      9  N   UNL     1     -16.228   0.715  29.282  0.00  0.00    -0.327 N 
ATOM     31  H   UNL     1     -17.101   0.575  29.779  0.00  0.00    +0.148 HD
BRANCH   9  27
ATOM     27  C   UNL     1     -14.986   0.323  29.863  0.00  0.00    +0.131 C 
BRANCH  27  28
ATOM     28  C   UNL     1     -14.921   0.778  31.311  0.00  0.00    +0.178 C 
BRANCH  28   4
ATOM      4  O   UNL     1     -15.005   2.196  31.366  0.00  0.00    -0.381 OA
ATOM     29  C   UNL     1     -13.772   2.775  31.769  0.00  0.00    +0.194 C 
ENDBRANCH  28   4
ENDBRANCH  27  28
ENDBRANCH   9  27
ENDBRANCH  26   9
ENDBRANCH  18  21
BRANCH  15  10
ATOM      5  N   UNL     1     -15.341   6.059  21.272  0.00  0.00    -0.284 NA
ATOM     10  C   UNL     1     -16.648   5.795  21.904  0.00  0.00    +0.146 C 
ATOM     11  C   UNL     1     -17.636   5.682  20.728  0.00  0.00    +0.030 C 
ATOM     12  C   UNL     1     -16.804   5.955  19.483  0.00  0.00    +0.017 C 
ATOM     13  C   UNL     1     -15.622   6.742  20.010  0.00  0.00    +0.085 C 
BRANCH   5  14
ATOM     14  C   UNL     1     -14.436   6.823  22.121  0.00  0.00    +0.159 C 
BRANCH  14  16
ATOM      2  O   UNL     1     -13.122   8.596  21.094  0.00  0.00    -0.461 OA
ATOM     16  C   UNL     1     -13.208   7.269  21.373  0.00  0.00    +0.119 A 
ATOM     17  C   UNL     1     -12.108   6.601  20.886  0.00  0.00    +0.046 A 
ATOM     19  C   UNL     1     -11.954   8.778  20.424  0.00  0.00    +0.131 A 
ATOM     20  C   UNL     1     -11.294   7.581  20.271  0.00  0.00    +0.047 A 
BRANCH  19  22
ATOM     22  C   UNL     1     -11.645  10.156  20.017  0.00  0.00    +0.230 C 
BRANCH  22   3
ATOM      3  O   UNL     1     -12.479  10.547  18.923  0.00  0.00    -0.387 OA
ATOM     30  H   UNL     1     -13.250   9.956  18.930  0.00  0.00    +0.210 HD
ENDBRANCH  22   3
ENDBRANCH  19  22
ENDBRANCH  14  16
ENDBRANCH   5  14
ENDBRANCH  15  10
TORSDOF 10
ENDMDL
MODEL 6
REMARK VINA RESULT:      -6.0     17.291     21.245
REMARK  Name = 45783479
REMARK  11 active torsions:
REMARK  status: ('A' for Active; 'I' for Inactive)
REMARK    1  A    between atoms: O_3  and  C_22
REMARK    2  A    between atoms: O_4  and  C_28
REMARK    3  A    between atoms: O_4  and  C_29
REMARK    4  A    between atoms: N_5  and  C_14
REMARK    5  A    between atoms: N_9  and  C_26
REMARK    6  A    between atoms: N_9  and  C_27
REMARK    7  A    between atoms: C_10  and  C_15
REMARK    8  A    between atoms: C_14  and  C_16
REMARK    9  A    between atoms: C_18  and  C_21
REMARK   10  A    between atoms: C_19  and  C_22
REMARK   11  A    between atoms: C_27  and  C_28
REMARK                            x       y       z     vdW  Elec       q    Type
REMARK                         _______ _______ _______ _____ _____    ______ ____
ROOT
ATOM      1  O   UNL     1      10.954   6.738  -1.303  0.00  0.00    -0.336 OA
ATOM      6  N   UNL     1      10.749   4.815  -0.173  0.00  0.00    -0.190 NA
ATOM      7  N   UNL     1      10.777   7.092   0.040  0.00  0.00    -0.056 NA
ATOM     15  C   UNL     1      10.925   5.380  -1.341  0.00  0.00    +0.245 A 
ATOM     18  C   UNL     1      10.663   5.905   0.643  0.00  0.00    +0.204 A 
ENDROOT
BRANCH  18  21
ATOM      8  N   UNL     1      10.614   4.409   4.047  0.00  0.00    -0.240 NA
ATOM     21  C   UNL     1      10.463   5.773   2.057  0.00  0.00    +0.041 A 
ATOM     23  C   UNL     1       9.945   6.823   2.808  0.00  0.00    +0.016 A 
ATOM     24  C   UNL     1      10.778   4.598   2.718  0.00  0.00    +0.124 A 
ATOM     25  C   UNL     1       9.762   6.666   4.177  0.00  0.00    +0.044 A 
ATOM     26  C   UNL     1      10.109   5.451   4.744  0.00  0.00    +0.119 A 
BRANCH  26   9
ATOM      9  N   UNL     1       9.917   5.308   6.140  0.00  0.00    -0.327 N 
ATOM     31  H   UNL     1       9.498   4.438   6.451  0.00  0.00    +0.148 HD
BRANCH   9  27
ATOM     27  C   UNL     1      10.283   6.320   7.076  0.00  0.00    +0.131 C 
BRANCH  27  28
ATOM     28  C   UNL     1       9.364   6.267   8.285  0.00  0.00    +0.178 C 
BRANCH  28   4
ATOM      4  O   UNL     1       8.478   7.379   8.255  0.00  0.00    -0.381 OA
ATOM     29  C   UNL     1       9.040   8.472   7.542  0.00  0.00    +0.194 C 
ENDBRANCH  28   4
ENDBRANCH  27  28
ENDBRANCH   9  27
ENDBRANCH  26   9
ENDBRANCH  18  21
BRANCH  15  10
ATOM      5  N   UNL     1      12.215   3.773  -2.737  0.00  0.00    -0.284 NA
ATOM     10  C   UNL     1      11.099   4.738  -2.702  0.00  0.00    +0.146 C 
ATOM     11  C   UNL     1       9.865   3.926  -3.138  0.00  0.00    +0.030 C 
ATOM     12  C   UNL     1      10.397   2.535  -3.454  0.00  0.00    +0.017 C 
ATOM     13  C   UNL     1      11.865   2.771  -3.744  0.00  0.00    +0.085 C 
BRANCH   5  14
ATOM     14  C   UNL     1      13.505   4.395  -3.006  0.00  0.00    +0.159 C 
BRANCH  14  16
ATOM      2  O   UNL     1      13.873   3.912  -0.649  0.00  0.00    -0.461 OA
ATOM     16  C   UNL     1      14.435   4.292  -1.827  0.00  0.00    +0.119 A 
ATOM     17  C   UNL     1      15.784   4.509  -1.671  0.00  0.00    +0.046 A 
ATOM     19  C   UNL     1      14.875   3.885   0.269  0.00  0.00    +0.131 A 
ATOM     20  C   UNL     1      16.069   4.245  -0.310  0.00  0.00    +0.047 A 
BRANCH  19  22
ATOM     22  C   UNL     1      14.496   3.494   1.634  0.00  0.00    +0.230 C 
BRANCH  22   3
ATOM      3  O   UNL     1      15.657   3.127   2.383  0.00  0.00    -0.387 OA
ATOM     30  H   UNL     1      15.831   3.851   3.008  0.00  0.00    +0.210 HD
ENDBRANCH  22   3
ENDBRANCH  19  22
ENDBRANCH  14  16
ENDBRANCH   5  14
ENDBRANCH  15  10
TORSDOF 10
ENDMDL
MODEL 7
REMARK VINA RESULT:      -5.8      2.090     10.250
REMARK  Name = 45783479
REMARK  11 active torsions:
REMARK  status: ('A' for Active; 'I' for Inactive)
REMARK    1  A    between atoms: O_3  and  C_22
REMARK    2  A    between atoms: O_4  and  C_28
REMARK    3  A    between atoms: O_4  and  C_29
REMARK    4  A    between atoms: N_5  and  C_14
REMARK    5  A    between atoms: N_9  and  C_26
REMARK    6  A    between atoms: N_9  and  C_27
REMARK    7  A    between atoms: C_10  and  C_15
REMARK    8  A    between atoms: C_14  and  C_16
REMARK    9  A    between atoms: C_18  and  C_21
REMARK   10  A    between atoms: C_19  and  C_22
REMARK   11  A    between atoms: C_27  and  C_28
REMARK                            x       y       z     vdW  Elec       q    Type
REMARK                         _______ _______ _______ _____ _____    ______ ____
ROOT
ATOM      1  O   UNL     1      20.049   5.689  20.337  0.00  0.00    -0.336 OA
ATOM      6  N   UNL     1      18.761   7.351  21.110  0.00  0.00    -0.190 NA
ATOM      7  N   UNL     1      18.751   5.420  19.883  0.00  0.00    -0.056 NA
ATOM     15  C   UNL     1      19.966   6.843  21.050  0.00  0.00    +0.245 A 
ATOM     18  C   UNL     1      18.050   6.443  20.380  0.00  0.00    +0.204 A 
ENDROOT
BRANCH  18  21
ATOM      8  N   UNL     1      14.776   6.619  18.626  0.00  0.00    -0.240 NA
ATOM     21  C   UNL     1      16.639   6.588  20.166  0.00  0.00    +0.041 A 
ATOM     23  C   UNL     1      15.774   6.828  21.228  0.00  0.00    +0.016 A 
ATOM     24  C   UNL     1      16.095   6.493  18.896  0.00  0.00    +0.124 A 
ATOM     25  C   UNL     1      14.411   6.964  20.990  0.00  0.00    +0.044 A 
ATOM     26  C   UNL     1      13.966   6.851  19.683  0.00  0.00    +0.119 A 
BRANCH  26   9
ATOM      9  N   UNL     1      12.574   6.991  19.457  0.00  0.00    -0.327 N 
ATOM     31  H   UNL     1      12.016   6.149  19.545  0.00  0.00    +0.148 HD
BRANCH   9  27
ATOM     27  C   UNL     1      11.971   8.238  19.118  0.00  0.00    +0.131 C 
BRANCH  27  28
ATOM     28  C   UNL     1      10.862   8.565  20.104  0.00  0.00    +0.178 C 
BRANCH  28   4
ATOM      4  O   UNL     1      11.435   8.960  21.344  0.00  0.00    -0.381 OA
ATOM     29  C   UNL     1      10.733   8.398  22.444  0.00  0.00    +0.194 C 
ENDBRANCH  28   4
ENDBRANCH  27  28
ENDBRANCH   9  27
ENDBRANCH  26   9
ENDBRANCH  18  21
BRANCH  15  10
ATOM      5  N   UNL     1      22.260   6.292  21.841  0.00  0.00    -0.284 NA
ATOM     10  C   UNL     1      21.255   7.357  21.655  0.00  0.00    +0.146 C 
ATOM     11  C   UNL     1      21.953   8.404  20.767  0.00  0.00    +0.030 C 
ATOM     12  C   UNL     1      23.363   7.869  20.556  0.00  0.00    +0.017 C 
ATOM     13  C   UNL     1      23.570   6.935  21.731  0.00  0.00    +0.085 C 
BRANCH   5  14
ATOM     14  C   UNL     1      22.108   5.570  23.097  0.00  0.00    +0.159 C 
BRANCH  14  16
ATOM      2  O   UNL     1      22.946   3.615  21.914  0.00  0.00    -0.461 OA
ATOM     16  C   UNL     1      22.879   4.277  23.099  0.00  0.00    +0.119 A 
ATOM     17  C   UNL     1      23.559   3.588  24.077  0.00  0.00    +0.046 A 
ATOM     19  C   UNL     1      23.677   2.491  22.137  0.00  0.00    +0.131 A 
ATOM     20  C   UNL     1      24.077   2.428  23.452  0.00  0.00    +0.047 A 
BRANCH  19  22
ATOM     22  C   UNL     1      23.884   1.609  20.980  0.00  0.00    +0.230 C 
BRANCH  22   3
ATOM      3  O   UNL     1      24.027   2.384  19.787  0.00  0.00    -0.387 OA
ATOM     30  H   UNL     1      24.935   2.729  19.781  0.00  0.00    +0.210 HD
ENDBRANCH  22   3
ENDBRANCH  19  22
ENDBRANCH  14  16
ENDBRANCH   5  14
ENDBRANCH  15  10
TORSDOF 10
ENDMDL
MODEL 8
REMARK VINA RESULT:      -5.8     26.420     30.179
REMARK  Name = 45783479
REMARK  11 active torsions:
REMARK  status: ('A' for Active; 'I' for Inactive)
REMARK    1  A    between atoms: O_3  and  C_22
REMARK    2  A    between atoms: O_4  and  C_28
REMARK    3  A    between atoms: O_4  and  C_29
REMARK    4  A    between atoms: N_5  and  C_14
REMARK    5  A    between atoms: N_9  and  C_26
REMARK    6  A    between atoms: N_9  and  C_27
REMARK    7  A    between atoms: C_10  and  C_15
REMARK    8  A    between atoms: C_14  and  C_16
REMARK    9  A    between atoms: C_18  and  C_21
REMARK   10  A    between atoms: C_19  and  C_22
REMARK   11  A    between atoms: C_27  and  C_28
REMARK                            x       y       z     vdW  Elec       q    Type
REMARK                         _______ _______ _______ _____ _____    ______ ____
ROOT
ATOM      1  O   UNL     1      -5.495 -12.169  16.163  0.00  0.00    -0.336 OA
ATOM      6  N   UNL     1      -5.622 -10.054  15.437  0.00  0.00    -0.190 NA
ATOM      7  N   UNL     1      -6.787 -11.727  16.473  0.00  0.00    -0.056 NA
ATOM     15  C   UNL     1      -4.875 -11.123  15.556  0.00  0.00    +0.245 A 
ATOM     18  C   UNL     1      -6.785 -10.472  16.014  0.00  0.00    +0.204 A 
ENDROOT
BRANCH  18  21
ATOM      8  N   UNL     1      -9.774  -8.490  15.032  0.00  0.00    -0.240 NA
ATOM     21  C   UNL     1      -7.927  -9.610  16.117  0.00  0.00    +0.041 A 
ATOM     23  C   UNL     1      -8.305  -9.066  17.339  0.00  0.00    +0.016 A 
ATOM     24  C   UNL     1      -8.687  -9.295  15.003  0.00  0.00    +0.124 A 
ATOM     25  C   UNL     1      -9.418  -8.233  17.409  0.00  0.00    +0.044 A 
ATOM     26  C   UNL     1     -10.112  -7.979  16.238  0.00  0.00    +0.119 A 
BRANCH  26   9
ATOM      9  N   UNL     1     -11.243  -7.131  16.325  0.00  0.00    -0.327 N 
ATOM     31  H   UNL     1     -11.805  -7.213  17.165  0.00  0.00    +0.148 HD
BRANCH   9  27
ATOM     27  C   UNL     1     -11.593  -6.207  15.297  0.00  0.00    +0.131 C 
BRANCH  27  28
ATOM     28  C   UNL     1     -13.103  -6.166  15.125  0.00  0.00    +0.178 C 
BRANCH  28   4
ATOM      4  O   UNL     1     -13.431  -5.343  14.014  0.00  0.00    -0.381 OA
ATOM     29  C   UNL     1     -12.264  -4.847  13.372  0.00  0.00    +0.194 C 
ENDBRANCH  28   4
ENDBRANCH  27  28
ENDBRANCH   9  27
ENDBRANCH  26   9
ENDBRANCH  18  21
BRANCH  15  10
ATOM      5  N   UNL     1      -3.100 -10.596  13.893  0.00  0.00    -0.284 NA
ATOM     10  C   UNL     1      -3.444 -11.349  15.115  0.00  0.00    +0.146 C 
ATOM     11  C   UNL     1      -2.418 -10.883  16.164  0.00  0.00    +0.030 C 
ATOM     12  C   UNL     1      -1.505  -9.916  15.423  0.00  0.00    +0.017 C 
ATOM     13  C   UNL     1      -1.667 -10.313  13.971  0.00  0.00    +0.085 C 
BRANCH   5  14
ATOM     14  C   UNL     1      -3.455 -11.297  12.666  0.00  0.00    +0.159 C 
BRANCH  14  16
ATOM      2  O   UNL     1      -5.029  -9.991  11.347  0.00  0.00    -0.461 OA
ATOM     16  C   UNL     1      -3.731 -10.344  11.534  0.00  0.00    +0.119 A 
ATOM     17  C   UNL     1      -2.924  -9.727  10.606  0.00  0.00    +0.046 A 
ATOM     19  C   UNL     1      -5.053  -9.138  10.290  0.00  0.00    +0.131 A 
ATOM     20  C   UNL     1      -3.783  -8.944   9.798  0.00  0.00    +0.047 A 
BRANCH  19  22
ATOM     22  C   UNL     1      -6.372  -8.618   9.901  0.00  0.00    +0.230 C 
BRANCH  22   3
ATOM      3  O   UNL     1      -6.232  -7.631   8.877  0.00  0.00    -0.387 OA
ATOM     30  H   UNL     1      -6.705  -6.838   9.182  0.00  0.00    +0.210 HD
ENDBRANCH  22   3
ENDBRANCH  19  22
ENDBRANCH  14  16
ENDBRANCH   5  14
ENDBRANCH  15  10
TORSDOF 10
ENDMDL
MODEL 9
REMARK VINA RESULT:      -5.8     27.757     31.957
REMARK  Name = 45783479
REMARK  11 active torsions:
REMARK  status: ('A' for Active; 'I' for Inactive)
REMARK    1  A    between atoms: O_3  and  C_22
REMARK    2  A    between atoms: O_4  and  C_28
REMARK    3  A    between atoms: O_4  and  C_29
REMARK    4  A    between atoms: N_5  and  C_14
REMARK    5  A    between atoms: N_9  and  C_26
REMARK    6  A    between atoms: N_9  and  C_27
REMARK    7  A    between atoms: C_10  and  C_15
REMARK    8  A    between atoms: C_14  and  C_16
REMARK    9  A    between atoms: C_18  and  C_21
REMARK   10  A    between atoms: C_19  and  C_22
REMARK   11  A    between atoms: C_27  and  C_28
REMARK                            x       y       z     vdW  Elec       q    Type
REMARK                         _______ _______ _______ _____ _____    ______ ____
ROOT
ATOM      1  O   UNL     1     -15.093   3.785  24.395  0.00  0.00    -0.336 OA
ATOM      6  N   UNL     1     -15.779   4.343  22.337  0.00  0.00    -0.190 NA
ATOM      7  N   UNL     1     -14.121   4.654  23.882  0.00  0.00    -0.056 NA
ATOM     15  C   UNL     1     -16.033   3.656  23.422  0.00  0.00    +0.245 A 
ATOM     18  C   UNL     1     -14.596   4.939  22.666  0.00  0.00    +0.204 A 
ENDROOT
BRANCH  18  21
ATOM      8  N   UNL     1     -14.035   7.493  20.022  0.00  0.00    -0.240 NA
ATOM     21  C   UNL     1     -13.914   5.812  21.756  0.00  0.00    +0.041 A 
ATOM     23  C   UNL     1     -12.525   5.847  21.702  0.00  0.00    +0.016 A 
ATOM     24  C   UNL     1     -14.617   6.647  20.903  0.00  0.00    +0.124 A 
ATOM     25  C   UNL     1     -11.891   6.705  20.810  0.00  0.00    +0.044 A 
ATOM     26  C   UNL     1     -12.684   7.501  20.000  0.00  0.00    +0.119 A 
BRANCH  26   9
ATOM      9  N   UNL     1     -12.023   8.369  19.096  0.00  0.00    -0.327 N 
ATOM     31  H   UNL     1     -12.420   8.440  18.166  0.00  0.00    +0.148 HD
BRANCH   9  27
ATOM     27  C   UNL     1     -10.858   9.110  19.453  0.00  0.00    +0.131 C 
BRANCH  27  28
ATOM     28  C   UNL     1     -10.551  10.145  18.383  0.00  0.00    +0.178 C 
BRANCH  28   4
ATOM      4  O   UNL     1     -10.973   9.655  17.117  0.00  0.00    -0.381 OA
ATOM     29  C   UNL     1     -10.362  10.371  16.053  0.00  0.00    +0.194 C 
ENDBRANCH  28   4
ENDBRANCH  27  28
ENDBRANCH   9  27
ENDBRANCH  26   9
ENDBRANCH  18  21
BRANCH  15  10
ATOM      5  N   UNL     1     -17.417   2.574  25.184  0.00  0.00    -0.284 NA
ATOM     10  C   UNL     1     -17.210   2.756  23.735  0.00  0.00    +0.146 C 
ATOM     11  C   UNL     1     -18.546   3.321  23.217  0.00  0.00    +0.030 C 
ATOM     12  C   UNL     1     -19.457   3.365  24.435  0.00  0.00    +0.017 C 
ATOM     13  C   UNL     1     -18.849   2.343  25.373  0.00  0.00    +0.085 C 
BRANCH   5  14
ATOM     14  C   UNL     1     -16.609   1.501  25.751  0.00  0.00    +0.159 C 
BRANCH  14  16
ATOM      2  O   UNL     1     -16.184   0.634  27.985  0.00  0.00    -0.461 OA
ATOM     16  C   UNL     1     -16.298   1.740  27.204  0.00  0.00    +0.119 A 
ATOM     17  C   UNL     1     -16.097   2.879  27.949  0.00  0.00    +0.046 A 
ATOM     19  C   UNL     1     -15.906   1.071  29.241  0.00  0.00    +0.131 A 
ATOM     20  C   UNL     1     -15.842   2.444  29.271  0.00  0.00    +0.047 A 
BRANCH  19  22
ATOM     22  C   UNL     1     -15.736   0.034  30.268  0.00  0.00    +0.230 C 
BRANCH  22   3
ATOM      3  O   UNL     1     -14.665  -0.844  29.914  0.00  0.00    -0.387 OA
ATOM     30  H   UNL     1     -14.184  -1.048  30.733  0.00  0.00    +0.210 HD
ENDBRANCH  22   3
ENDBRANCH  19  22
ENDBRANCH  14  16
ENDBRANCH   5  14
ENDBRANCH  15  10
TORSDOF 10
ENDMDL
MODEL 10
REMARK VINA RESULT:      -5.8     26.686     30.781
REMARK  Name = 45783479
REMARK  11 active torsions:
REMARK  status: ('A' for Active; 'I' for Inactive)
REMARK    1  A    between atoms: O_3  and  C_22
REMARK    2  A    between atoms: O_4  and  C_28
REMARK    3  A    between atoms: O_4  and  C_29
REMARK    4  A    between atoms: N_5  and  C_14
REMARK    5  A    between atoms: N_9  and  C_26
REMARK    6  A    between atoms: N_9  and  C_27
REMARK    7  A    between atoms: C_10  and  C_15
REMARK    8  A    between atoms: C_14  and  C_16
REMARK    9  A    between atoms: C_18  and  C_21
REMARK   10  A    between atoms: C_19  and  C_22
REMARK   11  A    between atoms: C_27  and  C_28
REMARK                            x       y       z     vdW  Elec       q    Type
REMARK                         _______ _______ _______ _____ _____    ______ ____
ROOT
ATOM      1  O   UNL     1      -5.591  -9.492  16.003  0.00  0.00    -0.336 OA
ATOM      6  N   UNL     1      -6.110 -11.287  17.238  0.00  0.00    -0.190 NA
ATOM      7  N   UNL     1      -6.797  -9.186  16.648  0.00  0.00    -0.056 NA
ATOM     15  C   UNL     1      -5.257 -10.746  16.405  0.00  0.00    +0.245 A 
ATOM     18  C   UNL     1      -7.038 -10.294  17.357  0.00  0.00    +0.204 A 
ENDROOT
BRANCH  18  21
ATOM      8  N   UNL     1      -9.197 -11.354  20.192  0.00  0.00    -0.240 NA
ATOM     21  C   UNL     1      -8.195 -10.439  18.192  0.00  0.00    +0.041 A 
ATOM     23  C   UNL     1      -9.403  -9.841  17.851  0.00  0.00    +0.016 A 
ATOM     24  C   UNL     1      -8.144 -11.178  19.362  0.00  0.00    +0.124 A 
ATOM     25  C   UNL     1     -10.508  -9.999  18.681  0.00  0.00    +0.044 A 
ATOM     26  C   UNL     1     -10.355 -10.758  19.829  0.00  0.00    +0.119 A 
BRANCH  26   9
ATOM      9  N   UNL     1     -11.489 -10.909  20.664  0.00  0.00    -0.327 N 
ATOM     31  H   UNL     1     -11.307 -11.053  21.651  0.00  0.00    +0.148 HD
BRANCH   9  27
ATOM     27  C   UNL     1     -12.824 -10.870  20.164  0.00  0.00    +0.131 C 
BRANCH  27  28
ATOM     28  C   UNL     1     -13.493  -9.567  20.567  0.00  0.00    +0.178 C 
BRANCH  28   4
ATOM      4  O   UNL     1     -14.899  -9.682  20.390  0.00  0.00    -0.381 OA
ATOM     29  C   UNL     1     -15.598  -8.675  21.109  0.00  0.00    +0.194 C 
ENDBRANCH  28   4
ENDBRANCH  27  28
ENDBRANCH   9  27
ENDBRANCH  26   9
ENDBRANCH  18  21
BRANCH  15  10
ATOM      5  N   UNL     1      -3.600 -10.711  14.548  0.00  0.00    -0.284 NA
ATOM     10  C   UNL     1      -3.972 -11.316  15.842  0.00  0.00    +0.146 C 
ATOM     11  C   UNL     1      -2.758 -11.064  16.756  0.00  0.00    +0.030 C 
ATOM     12  C   UNL     1      -1.735 -10.365  15.872  0.00  0.00    +0.017 C 
ATOM     13  C   UNL     1      -2.141 -10.767  14.469  0.00  0.00    +0.085 C 
BRANCH   5  14
ATOM     14  C   UNL     1      -4.238 -11.355  13.407  0.00  0.00    +0.159 C 
BRANCH  14  16
ATOM      2  O   UNL     1      -3.992 -10.195  11.282  0.00  0.00    -0.461 OA
ATOM     16  C   UNL     1      -4.741 -10.351  12.404  0.00  0.00    +0.119 A 
ATOM     17  C   UNL     1      -5.837  -9.521  12.373  0.00  0.00    +0.046 A 
ATOM     19  C   UNL     1      -4.617  -9.256  10.524  0.00  0.00    +0.131 A 
ATOM     20  C   UNL     1      -5.756  -8.810  11.152  0.00  0.00    +0.047 A 
BRANCH  19  22
ATOM     22  C   UNL     1      -3.977  -8.921   9.244  0.00  0.00    +0.230 C 
BRANCH  22   3
ATOM      3  O   UNL     1      -4.947  -8.912   8.194  0.00  0.00    -0.387 OA
ATOM     30  H   UNL     1      -5.714  -8.413   8.522  0.00  0.00    +0.210 HD
ENDBRANCH  22   3
ENDBRANCH  19  22
ENDBRANCH  14  16
ENDBRANCH   5  14
ENDBRANCH  15  10
TORSDOF 10
ENDMDL
