MODEL 1
REMARK VINA RESULT:      -6.4      0.000      0.000
REMARK  Name = 26761807
REMARK  7 active torsions:
REMARK  status: ('A' for Active; 'I' for Inactive)
REMARK    1  A    between atoms: O_1  and  C_14
REMARK    2  A    between atoms: O_1  and  C_25
REMARK    3  A    between atoms: O_3  and  C_19
REMARK    4  A    between atoms: O_3  and  C_26
REMARK    5  A    between atoms: N_4  and  C_10
REMARK    6  A    between atoms: C_7  and  C_14
REMARK    7  A    between atoms: C_10  and  C_13
REMARK                            x       y       z     vdW  Elec       q    Type
REMARK                         _______ _______ _______ _____ _____    ______ ____
ROOT
ATOM      4  N   UNL     1      10.151   7.002   5.819  0.00  0.00    -0.280 NA
ATOM      5  N   UNL     1      10.477   4.306   8.422  0.00  0.00    -0.347 N 
ATOM      6  N   UNL     1       8.860   5.414   9.498  0.00  0.00    -0.240 NA
ATOM      7  C   UNL     1       9.567   7.984   6.771  0.00  0.00    +0.173 C 
ATOM      8  C   UNL     1       8.702   7.399   7.923  0.00  0.00    +0.087 C 
ATOM      9  C   UNL     1      10.922   5.913   6.479  0.00  0.00    +0.140 C 
ATOM     11  C   UNL     1      10.248   5.443   7.710  0.00  0.00    +0.053 A 
ATOM     12  C   UNL     1       9.258   6.107   8.390  0.00  0.00    +0.065 A 
ATOM     16  C   UNL     1       9.615   4.333   9.490  0.00  0.00    +0.197 A 
ATOM     27  H   UNL     1      11.150   3.580   8.212  0.00  0.00    +0.167 HD
ENDROOT
BRANCH   7  14
ATOM      2  O   UNL     1      11.818   8.849   6.809  0.00  0.00    -0.249 OA
ATOM     14  C   UNL     1      10.708   8.794   7.321  0.00  0.00    +0.325 C 
BRANCH  14   1
ATOM      1  O   UNL     1      10.305   9.438   8.453  0.00  0.00    -0.467 OA
ATOM     25  C   UNL     1      10.972  10.674   8.727  0.00  0.00    +0.280 C 
ENDBRANCH  14   1
ENDBRANCH   7  14
BRANCH   4  10
ATOM     10  C   UNL     1       9.119   6.454   4.934  0.00  0.00    +0.121 C 
BRANCH  10  13
ATOM     13  C   UNL     1       9.404   6.754   3.487  0.00  0.00    -0.025 A 
ATOM     15  C   UNL     1      10.120   5.865   2.670  0.00  0.00    -0.010 A 
ATOM     17  C   UNL     1       8.925   7.962   2.978  0.00  0.00    +0.009 A 
ATOM     18  C   UNL     1      10.355   6.207   1.317  0.00  0.00    +0.024 A 
ATOM     19  C   UNL     1       9.867   7.427   0.821  0.00  0.00    +0.128 A 
ATOM     20  C   UNL     1       9.157   8.298   1.648  0.00  0.00    +0.046 A 
ATOM     21  C   UNL     1      10.609   4.646   3.164  0.00  0.00    +0.009 A 
ATOM     22  C   UNL     1      11.071   5.319   0.498  0.00  0.00    +0.012 A 
ATOM     23  C   UNL     1      11.319   3.775   2.338  0.00  0.00    +0.001 A 
ATOM     24  C   UNL     1      11.550   4.111   1.007  0.00  0.00    +0.001 A 
BRANCH  19   3
ATOM      3  O   UNL     1      10.069   7.799  -0.478  0.00  0.00    -0.495 OA
ATOM     26  C   UNL     1       9.572   9.076  -0.867  0.00  0.00    +0.277 C 
ENDBRANCH  19   3
ENDBRANCH  10  13
ENDBRANCH   4  10
TORSDOF 5
ENDMDL
MODEL 2
REMARK VINA RESULT:      -6.3     13.587     17.693
REMARK  Name = 26761807
REMARK  7 active torsions:
REMARK  status: ('A' for Active; 'I' for Inactive)
REMARK    1  A    between atoms: O_1  and  C_14
REMARK    2  A    between atoms: O_1  and  C_25
REMARK    3  A    between atoms: O_3  and  C_19
REMARK    4  A    between atoms: O_3  and  C_26
REMARK    5  A    between atoms: N_4  and  C_10
REMARK    6  A    between atoms: C_7  and  C_14
REMARK    7  A    between atoms: C_10  and  C_13
REMARK                            x       y       z     vdW  Elec       q    Type
REMARK                         _______ _______ _______ _____ _____    ______ ____
ROOT
ATOM      4  N   UNL     1      14.750   8.916  20.537  0.00  0.00    -0.280 NA
ATOM      5  N   UNL     1      11.243   8.514  21.836  0.00  0.00    -0.347 N 
ATOM      6  N   UNL     1      11.335   6.482  20.907  0.00  0.00    -0.240 NA
ATOM      7  C   UNL     1      14.578   7.889  19.475  0.00  0.00    +0.173 C 
ATOM      8  C   UNL     1      13.607   6.718  19.798  0.00  0.00    +0.087 C 
ATOM      9  C   UNL     1      13.468   9.490  21.029  0.00  0.00    +0.140 C 
ATOM     11  C   UNL     1      12.427   8.447  21.168  0.00  0.00    +0.053 A 
ATOM     12  C   UNL     1      12.458   7.197  20.603  0.00  0.00    +0.065 A 
ATOM     16  C   UNL     1      10.620   7.305  21.650  0.00  0.00    +0.197 A 
ATOM     27  H   UNL     1      10.885   9.298  22.365  0.00  0.00    +0.167 HD
ENDROOT
BRANCH   7  14
ATOM      2  O   UNL     1      14.637   9.662  17.841  0.00  0.00    -0.249 OA
ATOM     14  C   UNL     1      14.142   8.613  18.231  0.00  0.00    +0.325 C 
BRANCH  14   1
ATOM      1  O   UNL     1      13.133   7.920  17.631  0.00  0.00    -0.467 OA
ATOM     25  C   UNL     1      12.049   8.717  17.141  0.00  0.00    +0.280 C 
ENDBRANCH  14   1
ENDBRANCH   7  14
BRANCH   4  10
ATOM     10  C   UNL     1      15.552   8.390  21.646  0.00  0.00    +0.121 C 
BRANCH  10  13
ATOM     13  C   UNL     1      16.967   8.903  21.607  0.00  0.00    -0.025 A 
ATOM     15  C   UNL     1      18.052   8.070  21.289  0.00  0.00    -0.010 A 
ATOM     17  C   UNL     1      17.167  10.252  21.901  0.00  0.00    +0.009 A 
ATOM     18  C   UNL     1      19.358   8.614  21.269  0.00  0.00    +0.024 A 
ATOM     19  C   UNL     1      19.541   9.974  21.568  0.00  0.00    +0.128 A 
ATOM     20  C   UNL     1      18.452  10.787  21.883  0.00  0.00    +0.046 A 
ATOM     21  C   UNL     1      17.869   6.711  20.990  0.00  0.00    +0.009 A 
ATOM     22  C   UNL     1      20.444   7.782  20.951  0.00  0.00    +0.012 A 
ATOM     23  C   UNL     1      18.959   5.898  20.676  0.00  0.00    +0.001 A 
ATOM     24  C   UNL     1      20.244   6.433  20.657  0.00  0.00    +0.001 A 
BRANCH  19   3
ATOM      3  O   UNL     1      20.783  10.543  21.562  0.00  0.00    -0.495 OA
ATOM     26  C   UNL     1      21.054  11.488  20.531  0.00  0.00    +0.277 C 
ENDBRANCH  19   3
ENDBRANCH  10  13
ENDBRANCH   4  10
TORSDOF 5
ENDMDL
MODEL 3
REMARK VINA RESULT:      -6.3     13.954     17.202
REMARK  Name = 26761807
REMARK  7 active torsions:
REMARK  status: ('A' for Active; 'I' for Inactive)
REMARK    1  A    between atoms: O_1  and  C_14
REMARK    2  A    between atoms: O_1  and  C_25
REMARK    3  A    between atoms: O_3  and  C_19
REMARK    4  A    between atoms: O_3  and  C_26
REMARK    5  A    between atoms: N_4  and  C_10
REMARK    6  A    between atoms: C_7  and  C_14
REMARK    7  A    between atoms: C_10  and  C_13
REMARK                            x       y       z     vdW  Elec       q    Type
REMARK                         _______ _______ _______ _____ _____    ______ ____
ROOT
ATOM      4  N   UNL     1      12.718  10.473  22.309  0.00  0.00    -0.280 NA
ATOM      5  N   UNL     1      10.120  13.184  22.529  0.00  0.00    -0.347 N 
ATOM      6  N   UNL     1      11.159  14.062  20.755  0.00  0.00    -0.240 NA
ATOM      7  C   UNL     1      13.690  11.331  21.580  0.00  0.00    +0.173 C 
ATOM      8  C   UNL     1      13.087  12.414  20.641  0.00  0.00    +0.087 C 
ATOM      9  C   UNL     1      11.696  11.241  23.072  0.00  0.00    +0.140 C 
ATOM     11  C   UNL     1      11.221  12.416  22.307  0.00  0.00    +0.053 A 
ATOM     12  C   UNL     1      11.844  12.975  21.220  0.00  0.00    +0.065 A 
ATOM     16  C   UNL     1      10.125  14.164  21.567  0.00  0.00    +0.197 A 
ATOM     27  H   UNL     1       9.430  13.065  23.260  0.00  0.00    +0.167 HD
ENDROOT
BRANCH   7  14
ATOM      2  O   UNL     1      14.945  13.129  22.585  0.00  0.00    -0.249 OA
ATOM     14  C   UNL     1      14.581  11.961  22.614  0.00  0.00    +0.325 C 
BRANCH  14   1
ATOM      1  O   UNL     1      14.901  11.035  23.563  0.00  0.00    -0.467 OA
ATOM     25  C   UNL     1      14.873  11.507  24.914  0.00  0.00    +0.280 C 
ENDBRANCH  14   1
ENDBRANCH   7  14
BRANCH   4  10
ATOM     10  C   UNL     1      12.085   9.512  21.401  0.00  0.00    +0.121 C 
BRANCH  10  13
ATOM     13  C   UNL     1      13.098   8.618  20.738  0.00  0.00    -0.025 A 
ATOM     15  C   UNL     1      13.270   8.594  19.344  0.00  0.00    -0.010 A 
ATOM     17  C   UNL     1      13.870   7.802  21.565  0.00  0.00    +0.009 A 
ATOM     18  C   UNL     1      14.240   7.729  18.782  0.00  0.00    +0.024 A 
ATOM     19  C   UNL     1      15.008   6.914  19.631  0.00  0.00    +0.128 A 
ATOM     20  C   UNL     1      14.823   6.951  21.013  0.00  0.00    +0.046 A 
ATOM     21  C   UNL     1      12.503   9.407  18.496  0.00  0.00    +0.009 A 
ATOM     22  C   UNL     1      14.414   7.704  17.389  0.00  0.00    +0.012 A 
ATOM     23  C   UNL     1      12.688   9.370  17.114  0.00  0.00    +0.001 A 
ATOM     24  C   UNL     1      13.642   8.520  16.561  0.00  0.00    +0.001 A 
BRANCH  19   3
ATOM      3  O   UNL     1      15.955   6.064  19.134  0.00  0.00    -0.495 OA
ATOM     26  C   UNL     1      17.290   6.244  19.600  0.00  0.00    +0.277 C 
ENDBRANCH  19   3
ENDBRANCH  10  13
ENDBRANCH   4  10
TORSDOF 5
ENDMDL
MODEL 4
REMARK VINA RESULT:      -6.2     23.045     26.321
REMARK  Name = 26761807
REMARK  7 active torsions:
REMARK  status: ('A' for Active; 'I' for Inactive)
REMARK    1  A    between atoms: O_1  and  C_14
REMARK    2  A    between atoms: O_1  and  C_25
REMARK    3  A    between atoms: O_3  and  C_19
REMARK    4  A    between atoms: O_3  and  C_26
REMARK    5  A    between atoms: N_4  and  C_10
REMARK    6  A    between atoms: C_7  and  C_14
REMARK    7  A    between atoms: C_10  and  C_13
REMARK                            x       y       z     vdW  Elec       q    Type
REMARK                         _______ _______ _______ _____ _____    ______ ____
ROOT
ATOM      4  N   UNL     1      -4.264 -11.183  13.907  0.00  0.00    -0.280 NA
ATOM      5  N   UNL     1      -3.088 -14.751  14.080  0.00  0.00    -0.347 N 
ATOM      6  N   UNL     1      -1.096 -13.923  13.491  0.00  0.00    -0.240 NA
ATOM      7  C   UNL     1      -3.175 -10.767  12.984  0.00  0.00    +0.173 C 
ATOM      8  C   UNL     1      -1.821 -11.517  13.130  0.00  0.00    +0.087 C 
ATOM      9  C   UNL     1      -4.534 -12.646  13.896  0.00  0.00    +0.140 C 
ATOM     11  C   UNL     1      -3.278 -13.427  13.831  0.00  0.00    +0.053 A 
ATOM     12  C   UNL     1      -2.046 -12.942  13.467  0.00  0.00    +0.065 A 
ATOM     16  C   UNL     1      -1.756 -15.003  13.862  0.00  0.00    +0.197 A 
ATOM     27  H   UNL     1      -3.787 -15.424  14.366  0.00  0.00    +0.167 HD
ENDROOT
BRANCH   7  14
ATOM      2  O   UNL     1      -3.189 -11.591  10.717  0.00  0.00    -0.249 OA
ATOM     14  C   UNL     1      -3.710 -10.904  11.585  0.00  0.00    +0.325 C 
BRANCH  14   1
ATOM      1  O   UNL     1      -4.843 -10.157  11.455  0.00  0.00    -0.467 OA
ATOM     25  C   UNL     1      -4.701  -8.955  10.691  0.00  0.00    +0.280 C 
ENDBRANCH  14   1
ENDBRANCH   7  14
BRANCH   4  10
ATOM     10  C   UNL     1      -4.004 -10.706  15.269  0.00  0.00    +0.121 C 
BRANCH  10  13
ATOM     13  C   UNL     1      -5.279 -10.401  16.009  0.00  0.00    -0.025 A 
ATOM     15  C   UNL     1      -5.448 -10.723  17.365  0.00  0.00    -0.010 A 
ATOM     17  C   UNL     1      -6.302  -9.778  15.292  0.00  0.00    +0.009 A 
ATOM     18  C   UNL     1      -6.672 -10.410  18.003  0.00  0.00    +0.024 A 
ATOM     19  C   UNL     1      -7.691  -9.784  17.266  0.00  0.00    +0.128 A 
ATOM     20  C   UNL     1      -7.506  -9.471  15.919  0.00  0.00    +0.046 A 
ATOM     21  C   UNL     1      -4.431 -11.349  18.102  0.00  0.00    +0.009 A 
ATOM     22  C   UNL     1      -6.842 -10.731  19.359  0.00  0.00    +0.012 A 
ATOM     23  C   UNL     1      -4.616 -11.662  19.449  0.00  0.00    +0.001 A 
ATOM     24  C   UNL     1      -5.820 -11.354  20.076  0.00  0.00    +0.001 A 
BRANCH  19   3
ATOM      3  O   UNL     1      -8.888  -9.462  17.839  0.00  0.00    -0.495 OA
ATOM     26  C   UNL     1      -9.560  -8.314  17.328  0.00  0.00    +0.277 C 
ENDBRANCH  19   3
ENDBRANCH  10  13
ENDBRANCH   4  10
TORSDOF 5
ENDMDL
MODEL 5
REMARK VINA RESULT:      -6.2     16.817     20.156
REMARK  Name = 26761807
REMARK  7 active torsions:
REMARK  status: ('A' for Active; 'I' for Inactive)
REMARK    1  A    between atoms: O_1  and  C_14
REMARK    2  A    between atoms: O_1  and  C_25
REMARK    3  A    between atoms: O_3  and  C_19
REMARK    4  A    between atoms: O_3  and  C_26
REMARK    5  A    between atoms: N_4  and  C_10
REMARK    6  A    between atoms: C_7  and  C_14
REMARK    7  A    between atoms: C_10  and  C_13
REMARK                            x       y       z     vdW  Elec       q    Type
REMARK                         _______ _______ _______ _____ _____    ______ ____
ROOT
ATOM      4  N   UNL     1      21.910   5.882  21.503  0.00  0.00    -0.280 NA
ATOM      5  N   UNL     1      24.507   4.101  19.446  0.00  0.00    -0.347 N 
ATOM      6  N   UNL     1      23.944   2.298  20.641  0.00  0.00    -0.240 NA
ATOM      7  C   UNL     1      21.986   4.904  22.621  0.00  0.00    +0.173 C 
ATOM      8  C   UNL     1      22.328   3.438  22.234  0.00  0.00    +0.087 C 
ATOM      9  C   UNL     1      23.118   5.894  20.634  0.00  0.00    +0.140 C 
ATOM     11  C   UNL     1      23.621   4.524  20.388  0.00  0.00    +0.053 A 
ATOM     12  C   UNL     1      23.295   3.404  21.111  0.00  0.00    +0.065 A 
ATOM     16  C   UNL     1      24.669   2.752  19.638  0.00  0.00    +0.197 A 
ATOM     27  H   UNL     1      24.963   4.666  18.740  0.00  0.00    +0.167 HD
ENDROOT
BRANCH   7  14
ATOM      2  O   UNL     1      24.013   4.856  23.928  0.00  0.00    -0.249 OA
ATOM     14  C   UNL     1      22.988   5.441  23.606  0.00  0.00    +0.325 C 
BRANCH  14   1
ATOM      1  O   UNL     1      22.571   6.656  24.062  0.00  0.00    -0.467 OA
ATOM     25  C   UNL     1      21.550   6.618  25.065  0.00  0.00    +0.280 C 
ENDBRANCH  14   1
ENDBRANCH   7  14
BRANCH   4  10
ATOM     10  C   UNL     1      20.694   5.675  20.711  0.00  0.00    +0.121 C 
BRANCH  10  13
ATOM     13  C   UNL     1      19.663   6.739  20.979  0.00  0.00    -0.025 A 
ATOM     15  C   UNL     1      18.402   6.726  20.360  0.00  0.00    -0.010 A 
ATOM     17  C   UNL     1      20.007   7.752  21.874  0.00  0.00    +0.009 A 
ATOM     18  C   UNL     1      17.478   7.756  20.655  0.00  0.00    +0.024 A 
ATOM     19  C   UNL     1      17.841   8.769  21.558  0.00  0.00    +0.128 A 
ATOM     20  C   UNL     1      19.098   8.766  22.163  0.00  0.00    +0.046 A 
ATOM     21  C   UNL     1      18.039   5.715  19.457  0.00  0.00    +0.009 A 
ATOM     22  C   UNL     1      16.216   7.745  20.037  0.00  0.00    +0.012 A 
ATOM     23  C   UNL     1      16.782   5.718  18.852  0.00  0.00    +0.001 A 
ATOM     24  C   UNL     1      15.872   6.731  19.142  0.00  0.00    +0.001 A 
BRANCH  19   3
ATOM      3  O   UNL     1      16.982   9.783  21.873  0.00  0.00    -0.495 OA
ATOM     26  C   UNL     1      17.315  11.082  21.392  0.00  0.00    +0.277 C 
ENDBRANCH  19   3
ENDBRANCH  10  13
ENDBRANCH   4  10
TORSDOF 5
ENDMDL
MODEL 6
REMARK VINA RESULT:      -6.1     15.262     18.407
REMARK  Name = 26761807
REMARK  7 active torsions:
REMARK  status: ('A' for Active; 'I' for Inactive)
REMARK    1  A    between atoms: O_1  and  C_14
REMARK    2  A    between atoms: O_1  and  C_25
REMARK    3  A    between atoms: O_3  and  C_19
REMARK    4  A    between atoms: O_3  and  C_26
REMARK    5  A    between atoms: N_4  and  C_10
REMARK    6  A    between atoms: C_7  and  C_14
REMARK    7  A    between atoms: C_10  and  C_13
REMARK                            x       y       z     vdW  Elec       q    Type
REMARK                         _______ _______ _______ _____ _____    ______ ____
ROOT
ATOM      4  N   UNL     1      12.509  11.838  22.631  0.00  0.00    -0.280 NA
ATOM      5  N   UNL     1      10.992  12.892  25.907  0.00  0.00    -0.347 N 
ATOM      6  N   UNL     1      10.819  14.910  24.961  0.00  0.00    -0.240 NA
ATOM      7  C   UNL     1      12.927  13.219  22.270  0.00  0.00    +0.173 C 
ATOM      8  C   UNL     1      12.024  14.372  22.791  0.00  0.00    +0.087 C 
ATOM      9  C   UNL     1      12.290  11.640  24.090  0.00  0.00    +0.140 C 
ATOM     11  C   UNL     1      11.606  12.805  24.696  0.00  0.00    +0.053 A 
ATOM     12  C   UNL     1      11.493  14.053  24.138  0.00  0.00    +0.065 A 
ATOM     16  C   UNL     1      10.532  14.181  26.021  0.00  0.00    +0.197 A 
ATOM     27  H   UNL     1      10.892  12.156  26.595  0.00  0.00    +0.167 HD
ENDROOT
BRANCH   7  14
ATOM      2  O   UNL     1      14.714  14.313  23.465  0.00  0.00    -0.249 OA
ATOM     14  C   UNL     1      14.340  13.390  22.754  0.00  0.00    +0.325 C 
BRANCH  14   1
ATOM      1  O   UNL     1      15.110  12.370  22.279  0.00  0.00    -0.467 OA
ATOM     25  C   UNL     1      16.121  11.895  23.176  0.00  0.00    +0.280 C 
ENDBRANCH  14   1
ENDBRANCH   7  14
BRANCH   4  10
ATOM     10  C   UNL     1      11.330  11.431  21.861  0.00  0.00    +0.121 C 
BRANCH  10  13
ATOM     13  C   UNL     1      11.382   9.974  21.485  0.00  0.00    -0.025 A 
ATOM     15  C   UNL     1      12.126   9.516  20.386  0.00  0.00    -0.010 A 
ATOM     17  C   UNL     1      10.656   9.083  22.276  0.00  0.00    +0.009 A 
ATOM     18  C   UNL     1      12.133   8.133  20.084  0.00  0.00    +0.024 A 
ATOM     19  C   UNL     1      11.397   7.250  20.891  0.00  0.00    +0.128 A 
ATOM     20  C   UNL     1      10.663   7.723  21.979  0.00  0.00    +0.046 A 
ATOM     21  C   UNL     1      12.862  10.398  19.579  0.00  0.00    +0.009 A 
ATOM     22  C   UNL     1      12.877   7.673  18.985  0.00  0.00    +0.012 A 
ATOM     23  C   UNL     1      13.595   9.925  18.491  0.00  0.00    +0.001 A 
ATOM     24  C   UNL     1      13.603   8.565  18.194  0.00  0.00    +0.001 A 
BRANCH  19   3
ATOM      3  O   UNL     1      11.374   5.908  20.638  0.00  0.00    -0.495 OA
ATOM     26  C   UNL     1      10.866   5.066  21.670  0.00  0.00    +0.277 C 
ENDBRANCH  19   3
ENDBRANCH  10  13
ENDBRANCH   4  10
TORSDOF 5
ENDMDL
MODEL 7
REMARK VINA RESULT:      -6.1     23.202     24.527
REMARK  Name = 26761807
REMARK  7 active torsions:
REMARK  status: ('A' for Active; 'I' for Inactive)
REMARK    1  A    between atoms: O_1  and  C_14
REMARK    2  A    between atoms: O_1  and  C_25
REMARK    3  A    between atoms: O_3  and  C_19
REMARK    4  A    between atoms: O_3  and  C_26
REMARK    5  A    between atoms: N_4  and  C_10
REMARK    6  A    between atoms: C_7  and  C_14
REMARK    7  A    between atoms: C_10  and  C_13
REMARK                            x       y       z     vdW  Elec       q    Type
REMARK                         _______ _______ _______ _____ _____    ______ ____
ROOT
ATOM      4  N   UNL     1       1.433 -14.111  -2.940  0.00  0.00    -0.280 NA
ATOM      5  N   UNL     1       3.428 -14.797  -6.054  0.00  0.00    -0.347 N 
ATOM      6  N   UNL     1       3.040 -12.652  -6.548  0.00  0.00    -0.240 NA
ATOM      7  C   UNL     1       0.716 -12.954  -3.539  0.00  0.00    +0.173 C 
ATOM      8  C   UNL     1       1.499 -12.128  -4.598  0.00  0.00    +0.087 C 
ATOM      9  C   UNL     1       1.998 -15.052  -3.946  0.00  0.00    +0.140 C 
ATOM     11  C   UNL     1       2.587 -14.326  -5.094  0.00  0.00    +0.053 A 
ATOM     12  C   UNL     1       2.360 -13.013  -5.419  0.00  0.00    +0.065 A 
ATOM     16  C   UNL     1       3.673 -13.751  -6.908  0.00  0.00    +0.197 A 
ATOM     27  H   UNL     1       3.801 -15.735  -6.132  0.00  0.00    +0.167 HD
ENDROOT
BRANCH   7  14
ATOM      2  O   UNL     1      -0.954 -13.245  -5.255  0.00  0.00    -0.249 OA
ATOM     14  C   UNL     1      -0.565 -13.485  -4.120  0.00  0.00    +0.325 C 
BRANCH  14   1
ATOM      1  O   UNL     1      -1.198 -14.260  -3.194  0.00  0.00    -0.467 OA
ATOM     25  C   UNL     1      -2.459 -13.761  -2.736  0.00  0.00    +0.280 C 
ENDBRANCH  14   1
ENDBRANCH   7  14
BRANCH   4  10
ATOM     10  C   UNL     1       2.467 -13.657  -2.005  0.00  0.00    +0.121 C 
BRANCH  10  13
ATOM     13  C   UNL     1       2.220 -14.162  -0.608  0.00  0.00    -0.025 A 
ATOM     15  C   UNL     1       3.236 -14.754   0.160  0.00  0.00    -0.010 A 
ATOM     17  C   UNL     1       0.930 -14.019  -0.096  0.00  0.00    +0.009 A 
ATOM     18  C   UNL     1       2.938 -15.208   1.467  0.00  0.00    +0.024 A 
ATOM     19  C   UNL     1       1.634 -15.057   1.967  0.00  0.00    +0.128 A 
ATOM     20  C   UNL     1       0.638 -14.467   1.189  0.00  0.00    +0.046 A 
ATOM     21  C   UNL     1       4.539 -14.905  -0.340  0.00  0.00    +0.009 A 
ATOM     22  C   UNL     1       3.953 -15.800   2.236  0.00  0.00    +0.012 A 
ATOM     23  C   UNL     1       5.535 -15.495   0.438  0.00  0.00    +0.001 A 
ATOM     24  C   UNL     1       5.243 -15.942   1.723  0.00  0.00    +0.001 A 
BRANCH  19   3
ATOM      3  O   UNL     1       1.301 -15.480   3.222  0.00  0.00    -0.495 OA
ATOM     26  C   UNL     1       0.085 -14.978   3.770  0.00  0.00    +0.277 C 
ENDBRANCH  19   3
ENDBRANCH  10  13
ENDBRANCH   4  10
TORSDOF 5
ENDMDL
MODEL 8
REMARK VINA RESULT:      -6.1     24.294     27.932
REMARK  Name = 26761807
REMARK  7 active torsions:
REMARK  status: ('A' for Active; 'I' for Inactive)
REMARK    1  A    between atoms: O_1  and  C_14
REMARK    2  A    between atoms: O_1  and  C_25
REMARK    3  A    between atoms: O_3  and  C_19
REMARK    4  A    between atoms: O_3  and  C_26
REMARK    5  A    between atoms: N_4  and  C_10
REMARK    6  A    between atoms: C_7  and  C_14
REMARK    7  A    between atoms: C_10  and  C_13
REMARK                            x       y       z     vdW  Elec       q    Type
REMARK                         _______ _______ _______ _____ _____    ______ ____
ROOT
ATOM      4  N   UNL     1      -4.735 -11.566  16.743  0.00  0.00    -0.280 NA
ATOM      5  N   UNL     1      -1.629 -10.071  15.239  0.00  0.00    -0.347 N 
ATOM      6  N   UNL     1      -2.636 -10.430  13.275  0.00  0.00    -0.240 NA
ATOM      7  C   UNL     1      -5.093 -12.309  15.506  0.00  0.00    +0.173 C 
ATOM      8  C   UNL     1      -4.680 -11.650  14.160  0.00  0.00    +0.087 C 
ATOM      9  C   UNL     1      -3.296 -11.194  16.824  0.00  0.00    +0.140 C 
ATOM     11  C   UNL     1      -2.780 -10.743  15.512  0.00  0.00    +0.053 A 
ATOM     12  C   UNL     1      -3.377 -10.956  14.295  0.00  0.00    +0.065 A 
ATOM     16  C   UNL     1      -1.587  -9.904  13.876  0.00  0.00    +0.197 A 
ATOM     27  H   UNL     1      -0.935  -9.755  15.904  0.00  0.00    +0.167 HD
ENDROOT
BRANCH   7  14
ATOM      2  O   UNL     1      -3.697 -14.158  14.833  0.00  0.00    -0.249 OA
ATOM     14  C   UNL     1      -4.493 -13.683  15.631  0.00  0.00    +0.325 C 
BRANCH  14   1
ATOM      1  O   UNL     1      -4.973 -14.288  16.755  0.00  0.00    -0.467 OA
ATOM     25  C   UNL     1      -6.303 -14.808  16.652  0.00  0.00    +0.280 C 
ENDBRANCH  14   1
ENDBRANCH   7  14
BRANCH   4  10
ATOM     10  C   UNL     1      -5.594 -10.389  16.912  0.00  0.00    +0.121 C 
BRANCH  10  13
ATOM     13  C   UNL     1      -6.765 -10.675  17.813  0.00  0.00    -0.025 A 
ATOM     15  C   UNL     1      -7.988  -9.997  17.682  0.00  0.00    -0.010 A 
ATOM     17  C   UNL     1      -6.593 -11.649  18.797  0.00  0.00    +0.009 A 
ATOM     18  C   UNL     1      -9.051 -10.312  18.561  0.00  0.00    +0.024 A 
ATOM     19  C   UNL     1      -8.860 -11.295  19.546  0.00  0.00    +0.128 A 
ATOM     20  C   UNL     1      -7.638 -11.958  19.663  0.00  0.00    +0.046 A 
ATOM     21  C   UNL     1      -8.179  -9.015  16.698  0.00  0.00    +0.009 A 
ATOM     22  C   UNL     1     -10.275  -9.636  18.430  0.00  0.00    +0.012 A 
ATOM     23  C   UNL     1      -9.401  -8.352  16.581  0.00  0.00    +0.001 A 
ATOM     24  C   UNL     1     -10.447  -8.662  17.446  0.00  0.00    +0.001 A 
BRANCH  19   3
ATOM      3  O   UNL     1      -9.857 -11.633  20.417  0.00  0.00    -0.495 OA
ATOM     26  C   UNL     1     -10.339 -12.972  20.357  0.00  0.00    +0.277 C 
ENDBRANCH  19   3
ENDBRANCH  10  13
ENDBRANCH   4  10
TORSDOF 5
ENDMDL
MODEL 9
REMARK VINA RESULT:      -6.0     22.669     25.252
REMARK  Name = 26761807
REMARK  7 active torsions:
REMARK  status: ('A' for Active; 'I' for Inactive)
REMARK    1  A    between atoms: O_1  and  C_14
REMARK    2  A    between atoms: O_1  and  C_25
REMARK    3  A    between atoms: O_3  and  C_19
REMARK    4  A    between atoms: O_3  and  C_26
REMARK    5  A    between atoms: N_4  and  C_10
REMARK    6  A    between atoms: C_7  and  C_14
REMARK    7  A    between atoms: C_10  and  C_13
REMARK                            x       y       z     vdW  Elec       q    Type
REMARK                         _______ _______ _______ _____ _____    ______ ____
ROOT
ATOM      4  N   UNL     1      -6.623 -10.145  15.254  0.00  0.00    -0.280 NA
ATOM      5  N   UNL     1      -4.357 -11.023  18.124  0.00  0.00    -0.347 N 
ATOM      6  N   UNL     1      -5.836 -12.646  18.548  0.00  0.00    -0.240 NA
ATOM      7  C   UNL     1      -7.816 -10.780  15.876  0.00  0.00    +0.173 C 
ATOM      8  C   UNL     1      -7.548 -12.014  16.783  0.00  0.00    +0.087 C 
ATOM      9  C   UNL     1      -5.557  -9.789  16.230  0.00  0.00    +0.140 C 
ATOM     11  C   UNL     1      -5.387 -10.844  17.254  0.00  0.00    +0.053 A 
ATOM     12  C   UNL     1      -6.282 -11.845  17.535  0.00  0.00    +0.065 A 
ATOM     16  C   UNL     1      -4.673 -12.123  18.884  0.00  0.00    +0.197 A 
ATOM     27  H   UNL     1      -3.521 -10.459  18.204  0.00  0.00    +0.167 HD
ENDROOT
BRANCH   7  14
ATOM      2  O   UNL     1      -8.747  -9.745  17.846  0.00  0.00    -0.249 OA
ATOM     14  C   UNL     1      -8.536  -9.704  16.641  0.00  0.00    +0.325 C 
BRANCH  14   1
ATOM      1  O   UNL     1      -8.900  -8.704  15.788  0.00  0.00    -0.467 OA
ATOM     25  C   UNL     1      -9.872  -7.786  16.299  0.00  0.00    +0.280 C 
ENDBRANCH  14   1
ENDBRANCH   7  14
BRANCH   4  10
ATOM     10  C   UNL     1      -6.091 -10.980  14.174  0.00  0.00    +0.121 C 
BRANCH  10  13
ATOM     13  C   UNL     1      -6.030 -10.235  12.867  0.00  0.00    -0.025 A 
ATOM     15  C   UNL     1      -4.822 -10.039  12.178  0.00  0.00    -0.010 A 
ATOM     17  C   UNL     1      -7.230  -9.739  12.357  0.00  0.00    +0.009 A 
ATOM     18  C   UNL     1      -4.832  -9.329  10.954  0.00  0.00    +0.024 A 
ATOM     19  C   UNL     1      -6.049  -8.836  10.455  0.00  0.00    +0.128 A 
ATOM     20  C   UNL     1      -7.240  -9.041  11.153  0.00  0.00    +0.046 A 
ATOM     21  C   UNL     1      -3.606 -10.530  12.677  0.00  0.00    +0.009 A 
ATOM     22  C   UNL     1      -3.625  -9.132  10.264  0.00  0.00    +0.012 A 
ATOM     23  C   UNL     1      -2.415 -10.326  11.979  0.00  0.00    +0.001 A 
ATOM     24  C   UNL     1      -2.425  -9.628  10.775  0.00  0.00    +0.001 A 
BRANCH  19   3
ATOM      3  O   UNL     1      -6.108  -8.146   9.278  0.00  0.00    -0.495 OA
ATOM     26  C   UNL     1      -7.375  -8.083   8.630  0.00  0.00    +0.277 C 
ENDBRANCH  19   3
ENDBRANCH  10  13
ENDBRANCH   4  10
TORSDOF 5
ENDMDL
MODEL 10
REMARK VINA RESULT:      -6.0     24.163     27.477
REMARK  Name = 26761807
REMARK  7 active torsions:
REMARK  status: ('A' for Active; 'I' for Inactive)
REMARK    1  A    between atoms: O_1  and  C_14
REMARK    2  A    between atoms: O_1  and  C_25
REMARK    3  A    between atoms: O_3  and  C_19
REMARK    4  A    between atoms: O_3  and  C_26
REMARK    5  A    between atoms: N_4  and  C_10
REMARK    6  A    between atoms: C_7  and  C_14
REMARK    7  A    between atoms: C_10  and  C_13
REMARK                            x       y       z     vdW  Elec       q    Type
REMARK                         _______ _______ _______ _____ _____    ______ ____
ROOT
ATOM      4  N   UNL     1     -10.933   9.821  18.021  0.00  0.00    -0.280 NA
ATOM      5  N   UNL     1      -8.619  12.548  16.858  0.00  0.00    -0.347 N 
ATOM      6  N   UNL     1     -10.239  13.942  17.515  0.00  0.00    -0.240 NA
ATOM      7  C   UNL     1     -12.151  10.664  17.884  0.00  0.00    +0.173 C 
ATOM      8  C   UNL     1     -11.968  12.188  18.130  0.00  0.00    +0.087 C 
ATOM      9  C   UNL     1      -9.782  10.294  17.204  0.00  0.00    +0.140 C 
ATOM     11  C   UNL     1      -9.670  11.770  17.232  0.00  0.00    +0.053 A 
ATOM     12  C   UNL     1     -10.651  12.645  17.626  0.00  0.00    +0.065 A 
ATOM     16  C   UNL     1      -9.009  13.851  17.047  0.00  0.00    +0.197 A 
ATOM     27  H   UNL     1      -7.723  12.235  16.505  0.00  0.00    +0.167 HD
ENDROOT
BRANCH   7  14
ATOM      2  O   UNL     1     -12.984  11.293  15.709  0.00  0.00    -0.249 OA
ATOM     14  C   UNL     1     -12.707  10.410  16.510  0.00  0.00    +0.325 C 
BRANCH  14   1
ATOM      1  O   UNL     1     -12.844   9.068  16.315  0.00  0.00    -0.467 OA
ATOM     25  C   UNL     1     -12.715   8.629  14.958  0.00  0.00    +0.280 C 
ENDBRANCH  14   1
ENDBRANCH   7  14
BRANCH   4  10
ATOM     10  C   UNL     1     -10.555   9.675  19.430  0.00  0.00    +0.121 C 
BRANCH  10  13
ATOM     13  C   UNL     1     -11.578   8.889  20.206  0.00  0.00    -0.025 A 
ATOM     15  C   UNL     1     -12.359   9.476  21.215  0.00  0.00    -0.010 A 
ATOM     17  C   UNL     1     -11.726   7.539  19.885  0.00  0.00    +0.009 A 
ATOM     18  C   UNL     1     -13.303   8.682  21.908  0.00  0.00    +0.024 A 
ATOM     19  C   UNL     1     -13.439   7.325  21.572  0.00  0.00    +0.128 A 
ATOM     20  C   UNL     1     -12.654   6.759  20.567  0.00  0.00    +0.046 A 
ATOM     21  C   UNL     1     -12.223  10.832  21.551  0.00  0.00    +0.009 A 
ATOM     22  C   UNL     1     -14.085   9.268  22.917  0.00  0.00    +0.012 A 
ATOM     23  C   UNL     1     -13.008  11.399  22.556  0.00  0.00    +0.001 A 
ATOM     24  C   UNL     1     -13.937  10.618  23.238  0.00  0.00    +0.001 A 
BRANCH  19   3
ATOM      3  O   UNL     1     -14.336   6.520  22.214  0.00  0.00    -0.495 OA
ATOM     26  C   UNL     1     -14.036   5.128  22.260  0.00  0.00    +0.277 C 
ENDBRANCH  19   3
ENDBRANCH  10  13
ENDBRANCH   4  10
TORSDOF 5
ENDMDL
