REMARK  Name = 7135391
REMARK  9 active torsions:
REMARK  status: ('A' for Active; 'I' for Inactive)
REMARK    1  A    between atoms: O_2  and  C_16
REMARK    2  A    between atoms: O_2  and  C_22
REMARK    3  A    between atoms: N_4  and  C_20
REMARK    4  A    between atoms: C_5  and  C_8
REMARK    5  A    between atoms: C_8  and  C_14
REMARK    6  A    between atoms: C_8  and  C_15
REMARK    7  A    between atoms: C_12  and  C_18
REMARK    8  A    between atoms: C_13  and  C_19
REMARK    9  A    between atoms: C_20  and  C_21
REMARK                            x       y       z     vdW  Elec       q    Type
REMARK                         _______ _______ _______ _____ _____    ______ ____
ROOT
ATOM      5  C   UNL     1      -0.512  -1.993   0.042  0.00  0.00    +0.005 C 
ATOM      6  C   UNL     1       0.539  -3.099  -0.088  0.00  0.00    +0.009 C 
ATOM      7  C   UNL     1       0.066  -0.820   0.848  0.00  0.00    +0.040 C 
ATOM      9  C   UNL     1       1.758  -2.593  -0.859  0.00  0.00    +0.036 C 
ATOM     10  C   UNL     1       1.444  -0.402   0.394  0.00  0.00    -0.037 A 
ATOM     11  C   UNL     1       2.255  -1.254  -0.376  0.00  0.00    -0.041 A 
ATOM     12  C   UNL     1       1.945   0.845   0.801  0.00  0.00    -0.005 A 
ATOM     13  C   UNL     1       3.537  -0.827  -0.755  0.00  0.00    -0.044 A 
ATOM     16  C   UNL     1       3.224   1.253   0.426  0.00  0.00    +0.124 A 
ATOM     17  C   UNL     1       4.019   0.418  -0.353  0.00  0.00    +0.049 A 
ATOM     18  C   UNL     1       1.122   1.761   1.654  0.00  0.00    +0.048 C 
ATOM     19  C   UNL     1       4.426  -1.679  -1.605  0.00  0.00    +0.044 C 
ENDROOT
BRANCH  16   2
ATOM      2  O   UNL     1       3.715   2.463   0.815  0.00  0.00    -0.495 OA
ATOM     22  C   UNL     1       5.034   2.796   0.385  0.00  0.00    +0.277 C 
ENDBRANCH  16   2
BRANCH   5   8
ATOM      8  C   UNL     1      -1.784  -2.523   0.701  0.00  0.00    +0.075 C 
ATOM     14  C   UNL     1      -2.333  -3.714  -0.082  0.00  0.00    +0.017 C 
BRANCH   8  15
ATOM      3  O   UNL     1      -3.290  -1.034   1.881  0.00  0.00    -0.276 OA
ATOM      4  N   UNL     1      -3.232  -0.945  -0.436  0.00  0.00    -0.310 N 
ATOM     15  C   UNL     1      -2.845  -1.429   0.806  0.00  0.00    +0.216 C 
ATOM     26  H   UNL     1      -2.819  -1.324  -1.282  0.00  0.00    +0.149 HD
BRANCH   4  20
ATOM     20  C   UNL     1      -4.220   0.097  -0.595  0.00  0.00    +0.146 C 
BRANCH  20  21
ATOM      1  S   UNL     1      -2.397   1.763  -1.824  0.00  0.00    -0.100 S 
ATOM     21  C   UNL     1      -3.562   1.448  -0.626  0.00  0.00    +0.007 A 
ATOM     23  C   UNL     1      -3.781   2.501   0.210  0.00  0.00    +0.013 A 
ATOM     24  C   UNL     1      -2.965   3.616  -0.138  0.00  0.00    +0.008 A 
ATOM     25  C   UNL     1      -2.164   3.350  -1.226  0.00  0.00    +0.045 A 
ENDBRANCH  20  21
ENDBRANCH   4  20
ENDBRANCH   8  15
ENDBRANCH   5   8
TORSDOF 5
