MODEL 1
REMARK VINA RESULT:      -7.1      0.000      0.000
REMARK  Name = 51137519
REMARK  9 active torsions:
REMARK  status: ('A' for Active; 'I' for Inactive)
REMARK    1  A    between atoms: O_2  and  C_20
REMARK    2  A    between atoms: O_2  and  C_28
REMARK    3  A    between atoms: N_3  and  C_11
REMARK    4  A    between atoms: N_6  and  C_23
REMARK    5  A    between atoms: N_6  and  C_26
REMARK    6  A    between atoms: N_6  and  C_27
REMARK    7  A    between atoms: C_7  and  C_12
REMARK    8  A    between atoms: C_11  and  C_13
REMARK    9  A    between atoms: C_14  and  C_17
REMARK                            x       y       z     vdW  Elec       q    Type
REMARK                         _______ _______ _______ _____ _____    ______ ____
ROOT
ATOM      3  N   UNL     1     -16.838   3.089  26.607  0.00  0.00    -0.297 NA
ATOM      7  C   UNL     1     -16.300   4.681  24.971  0.00  0.00    +0.092 C 
ATOM      8  C   UNL     1     -17.818   4.432  24.967  0.00  0.00    +0.029 C 
ATOM      9  C   UNL     1     -15.715   3.504  25.764  0.00  0.00    +0.097 C 
ATOM     10  C   UNL     1     -18.004   3.124  25.726  0.00  0.00    +0.085 C 
ENDROOT
BRANCH   7  12
ATOM      1  O   UNL     1     -14.944   5.961  23.384  0.00  0.00    -0.420 OA
ATOM      4  N   UNL     1     -15.734   4.036  22.564  0.00  0.00    -0.112 NA
ATOM      5  N   UNL     1     -14.993   4.651  21.572  0.00  0.00    -0.107 NA
ATOM     12  C   UNL     1     -15.678   4.837  23.603  0.00  0.00    +0.222 A 
ATOM     14  C   UNL     1     -14.553   5.771  22.095  0.00  0.00    +0.248 A 
BRANCH  14  17
ATOM     17  C   UNL     1     -13.736   6.805  21.528  0.00  0.00    +0.039 A 
ATOM     21  C   UNL     1     -12.440   6.514  21.101  0.00  0.00    +0.015 A 
ATOM     22  C   UNL     1     -14.237   8.100  21.403  0.00  0.00    +0.015 A 
ATOM     23  C   UNL     1     -12.148   8.815  20.424  0.00  0.00    +0.029 A 
ATOM     24  C   UNL     1     -11.646   7.520  20.548  0.00  0.00    +0.024 A 
ATOM     25  C   UNL     1     -13.444   9.105  20.851  0.00  0.00    +0.024 A 
BRANCH  23   6
ATOM      6  N   UNL     1     -11.345   9.831  19.867  0.00  0.00    -0.336 N 
ATOM     26  C   UNL     1     -10.050   9.514  19.297  0.00  0.00    +0.129 C 
ATOM     27  C   UNL     1     -11.798  11.208  19.863  0.00  0.00    +0.129 C 
ENDBRANCH  23   6
ENDBRANCH  14  17
ENDBRANCH   7  12
BRANCH   3  11
ATOM     11  C   UNL     1     -16.631   1.777  27.201  0.00  0.00    +0.119 C 
BRANCH  11  13
ATOM     13  C   UNL     1     -15.928   1.867  28.530  0.00  0.00    -0.033 A 
ATOM     15  C   UNL     1     -15.417   3.089  28.968  0.00  0.00    +0.008 A 
ATOM     16  C   UNL     1     -15.788   0.729  29.322  0.00  0.00    +0.008 A 
ATOM     18  C   UNL     1     -14.767   3.172  30.199  0.00  0.00    +0.046 A 
ATOM     19  C   UNL     1     -15.137   0.811  30.553  0.00  0.00    +0.046 A 
ATOM     20  C   UNL     1     -14.627   2.033  30.992  0.00  0.00    +0.120 A 
BRANCH  20   2
ATOM      2  O   UNL     1     -13.993   2.114  32.193  0.00  0.00    -0.495 OA
ATOM     28  C   UNL     1     -14.735   1.722  33.347  0.00  0.00    +0.277 C 
ENDBRANCH  20   2
ENDBRANCH  11  13
ENDBRANCH   3  11
TORSDOF 6
ENDMDL
MODEL 2
REMARK VINA RESULT:      -7.1     19.841     22.642
REMARK  Name = 51137519
REMARK  9 active torsions:
REMARK  status: ('A' for Active; 'I' for Inactive)
REMARK    1  A    between atoms: O_2  and  C_20
REMARK    2  A    between atoms: O_2  and  C_28
REMARK    3  A    between atoms: N_3  and  C_11
REMARK    4  A    between atoms: N_6  and  C_23
REMARK    5  A    between atoms: N_6  and  C_26
REMARK    6  A    between atoms: N_6  and  C_27
REMARK    7  A    between atoms: C_7  and  C_12
REMARK    8  A    between atoms: C_11  and  C_13
REMARK    9  A    between atoms: C_14  and  C_17
REMARK                            x       y       z     vdW  Elec       q    Type
REMARK                         _______ _______ _______ _____ _____    ______ ____
ROOT
ATOM      3  N   UNL     1      -2.195 -11.027  13.830  0.00  0.00    -0.297 NA
ATOM      7  C   UNL     1      -3.198 -10.323  15.830  0.00  0.00    +0.092 C 
ATOM      8  C   UNL     1      -1.711 -10.633  16.080  0.00  0.00    +0.029 C 
ATOM      9  C   UNL     1      -3.508 -10.977  14.477  0.00  0.00    +0.097 C 
ATOM     10  C   UNL     1      -1.275 -11.463  14.880  0.00  0.00    +0.085 C 
ENDROOT
BRANCH   7  12
ATOM      1  O   UNL     1      -5.417 -10.323  16.864  0.00  0.00    -0.420 OA
ATOM      4  N   UNL     1      -3.899 -11.542  17.964  0.00  0.00    -0.112 NA
ATOM      5  N   UNL     1      -5.095 -11.630  18.650  0.00  0.00    -0.107 NA
ATOM     12  C   UNL     1      -4.134 -10.770  16.929  0.00  0.00    +0.222 A 
ATOM     14  C   UNL     1      -5.952 -10.902  17.973  0.00  0.00    +0.248 A 
BRANCH  14  17
ATOM     17  C   UNL     1      -7.338 -10.631  18.216  0.00  0.00    +0.039 A 
ATOM     21  C   UNL     1      -7.995 -11.252  19.279  0.00  0.00    +0.015 A 
ATOM     22  C   UNL     1      -8.031  -9.744  17.391  0.00  0.00    +0.015 A 
ATOM     23  C   UNL     1     -10.036 -10.101  18.690  0.00  0.00    +0.029 A 
ATOM     24  C   UNL     1      -9.344 -10.987  19.516  0.00  0.00    +0.024 A 
ATOM     25  C   UNL     1      -9.379  -9.479  17.628  0.00  0.00    +0.024 A 
BRANCH  23   6
ATOM      6  N   UNL     1     -11.400  -9.835  18.929  0.00  0.00    -0.336 N 
ATOM     26  C   UNL     1     -12.235  -9.283  17.880  0.00  0.00    +0.129 C 
ATOM     27  C   UNL     1     -11.984 -10.101  20.228  0.00  0.00    +0.129 C 
ENDBRANCH  23   6
ENDBRANCH  14  17
ENDBRANCH   7  12
BRANCH   3  11
ATOM     11  C   UNL     1      -2.178 -11.913  12.676  0.00  0.00    +0.119 C 
BRANCH  11  13
ATOM     13  C   UNL     1      -2.870 -11.300  11.488  0.00  0.00    -0.033 A 
ATOM     15  C   UNL     1      -3.726 -12.074  10.703  0.00  0.00    +0.008 A 
ATOM     16  C   UNL     1      -2.656  -9.959  11.172  0.00  0.00    +0.008 A 
ATOM     18  C   UNL     1      -4.368 -11.505   9.602  0.00  0.00    +0.046 A 
ATOM     19  C   UNL     1      -3.298  -9.390  10.071  0.00  0.00    +0.046 A 
ATOM     20  C   UNL     1      -4.154 -10.164   9.287  0.00  0.00    +0.120 A 
BRANCH  20   2
ATOM      2  O   UNL     1      -4.780  -9.608   8.214  0.00  0.00    -0.495 OA
ATOM     28  C   UNL     1      -6.159  -9.275   8.367  0.00  0.00    +0.277 C 
ENDBRANCH  20   2
ENDBRANCH  11  13
ENDBRANCH   3  11
TORSDOF 6
ENDMDL
MODEL 3
REMARK VINA RESULT:      -7.1     26.802     30.616
REMARK  Name = 51137519
REMARK  9 active torsions:
REMARK  status: ('A' for Active; 'I' for Inactive)
REMARK    1  A    between atoms: O_2  and  C_20
REMARK    2  A    between atoms: O_2  and  C_28
REMARK    3  A    between atoms: N_3  and  C_11
REMARK    4  A    between atoms: N_6  and  C_23
REMARK    5  A    between atoms: N_6  and  C_26
REMARK    6  A    between atoms: N_6  and  C_27
REMARK    7  A    between atoms: C_7  and  C_12
REMARK    8  A    between atoms: C_11  and  C_13
REMARK    9  A    between atoms: C_14  and  C_17
REMARK                            x       y       z     vdW  Elec       q    Type
REMARK                         _______ _______ _______ _____ _____    ______ ____
ROOT
ATOM      3  N   UNL     1      11.539   9.532  21.082  0.00  0.00    -0.297 NA
ATOM      7  C   UNL     1      13.256   8.934  19.600  0.00  0.00    +0.092 C 
ATOM      8  C   UNL     1      11.902   8.475  19.031  0.00  0.00    +0.029 C 
ATOM      9  C   UNL     1      12.974   9.237  21.078  0.00  0.00    +0.097 C 
ATOM     10  C   UNL     1      10.944   8.516  20.215  0.00  0.00    +0.085 C 
ENDROOT
BRANCH   7  12
ATOM      1  O   UNL     1      15.490   8.123  20.191  0.00  0.00    -0.420 OA
ATOM      4  N   UNL     1      14.487   6.940  18.579  0.00  0.00    -0.112 NA
ATOM      5  N   UNL     1      15.728   6.378  18.812  0.00  0.00    -0.107 NA
ATOM     12  C   UNL     1      14.391   7.955  19.407  0.00  0.00    +0.222 A 
ATOM     14  C   UNL     1      16.278   7.102  19.759  0.00  0.00    +0.248 A 
BRANCH  14  17
ATOM     17  C   UNL     1      17.556   6.982  20.398  0.00  0.00    +0.039 A 
ATOM     21  C   UNL     1      17.922   7.879  21.402  0.00  0.00    +0.015 A 
ATOM     22  C   UNL     1      18.434   5.967  20.016  0.00  0.00    +0.015 A 
ATOM     23  C   UNL     1      20.043   6.746  21.641  0.00  0.00    +0.029 A 
ATOM     24  C   UNL     1      19.165   7.761  22.024  0.00  0.00    +0.024 A 
ATOM     25  C   UNL     1      19.677   5.848  20.637  0.00  0.00    +0.024 A 
BRANCH  23   6
ATOM      6  N   UNL     1      21.300   6.628  22.269  0.00  0.00    -0.336 N 
ATOM     26  C   UNL     1      21.964   7.798  22.808  0.00  0.00    +0.129 C 
ATOM     27  C   UNL     1      21.949   5.337  22.377  0.00  0.00    +0.129 C 
ENDBRANCH  23   6
ENDBRANCH  14  17
ENDBRANCH   7  12
BRANCH   3  11
ATOM     11  C   UNL     1      10.973   9.518  22.422  0.00  0.00    +0.119 C 
BRANCH  11  13
ATOM     13  C   UNL     1      11.088  10.860  23.094  0.00  0.00    -0.033 A 
ATOM     15  C   UNL     1      11.214  10.937  24.482  0.00  0.00    +0.008 A 
ATOM     16  C   UNL     1      11.069  12.026  22.330  0.00  0.00    +0.008 A 
ATOM     18  C   UNL     1      11.321  12.181  25.104  0.00  0.00    +0.046 A 
ATOM     19  C   UNL     1      11.175  13.270  22.952  0.00  0.00    +0.046 A 
ATOM     20  C   UNL     1      11.303  13.347  24.340  0.00  0.00    +0.120 A 
BRANCH  20   2
ATOM      2  O   UNL     1      11.408  14.561  24.946  0.00  0.00    -0.495 OA
ATOM     28  C   UNL     1      10.786  14.706  26.222  0.00  0.00    +0.277 C 
ENDBRANCH  20   2
ENDBRANCH  11  13
ENDBRANCH   3  11
TORSDOF 6
ENDMDL
MODEL 4
REMARK VINA RESULT:      -7.0     26.894     31.467
REMARK  Name = 51137519
REMARK  9 active torsions:
REMARK  status: ('A' for Active; 'I' for Inactive)
REMARK    1  A    between atoms: O_2  and  C_20
REMARK    2  A    between atoms: O_2  and  C_28
REMARK    3  A    between atoms: N_3  and  C_11
REMARK    4  A    between atoms: N_6  and  C_23
REMARK    5  A    between atoms: N_6  and  C_26
REMARK    6  A    between atoms: N_6  and  C_27
REMARK    7  A    between atoms: C_7  and  C_12
REMARK    8  A    between atoms: C_11  and  C_13
REMARK    9  A    between atoms: C_14  and  C_17
REMARK                            x       y       z     vdW  Elec       q    Type
REMARK                         _______ _______ _______ _____ _____    ______ ____
ROOT
ATOM      3  N   UNL     1      12.635   8.566  19.867  0.00  0.00    -0.297 NA
ATOM      7  C   UNL     1      14.752   8.077  18.984  0.00  0.00    +0.092 C 
ATOM      8  C   UNL     1      13.673   7.795  17.923  0.00  0.00    +0.029 C 
ATOM      9  C   UNL     1      13.979   8.181  20.305  0.00  0.00    +0.097 C 
ATOM     10  C   UNL     1      12.365   7.727  18.701  0.00  0.00    +0.085 C 
ENDROOT
BRANCH   7  12
ATOM      1  O   UNL     1      16.837   7.260  19.974  0.00  0.00    -0.420 OA
ATOM      4  N   UNL     1      16.067   5.995  18.298  0.00  0.00    -0.112 NA
ATOM      5  N   UNL     1      17.238   5.424  18.761  0.00  0.00    -0.107 NA
ATOM     12  C   UNL     1      15.872   7.064  19.035  0.00  0.00    +0.222 A 
ATOM     14  C   UNL     1      17.652   6.197  19.738  0.00  0.00    +0.248 A 
BRANCH  14  17
ATOM     17  C   UNL     1      18.808   6.093  20.579  0.00  0.00    +0.039 A 
ATOM     21  C   UNL     1      19.824   5.190  20.262  0.00  0.00    +0.015 A 
ATOM     22  C   UNL     1      18.918   6.894  21.716  0.00  0.00    +0.015 A 
ATOM     23  C   UNL     1      21.058   5.891  22.217  0.00  0.00    +0.029 A 
ATOM     24  C   UNL     1      20.949   5.090  21.080  0.00  0.00    +0.024 A 
ATOM     25  C   UNL     1      20.043   6.795  22.534  0.00  0.00    +0.024 A 
BRANCH  23   6
ATOM      6  N   UNL     1      22.195   5.789  23.045  0.00  0.00    -0.336 N 
ATOM     26  C   UNL     1      22.997   4.581  23.045  0.00  0.00    +0.129 C 
ATOM     27  C   UNL     1      22.573   6.886  23.913  0.00  0.00    +0.129 C 
ENDBRANCH  23   6
ENDBRANCH  14  17
ENDBRANCH   7  12
BRANCH   3  11
ATOM     11  C   UNL     1      11.640   8.395  20.915  0.00  0.00    +0.119 C 
BRANCH  11  13
ATOM     13  C   UNL     1      11.435   9.660  21.706  0.00  0.00    -0.033 A 
ATOM     15  C   UNL     1      11.034   9.591  23.040  0.00  0.00    +0.008 A 
ATOM     16  C   UNL     1      11.647  10.900  21.105  0.00  0.00    +0.008 A 
ATOM     18  C   UNL     1      10.845  10.763  23.773  0.00  0.00    +0.046 A 
ATOM     19  C   UNL     1      11.458  12.072  21.837  0.00  0.00    +0.046 A 
ATOM     20  C   UNL     1      11.057  12.004  23.172  0.00  0.00    +0.120 A 
BRANCH  20   2
ATOM      2  O   UNL     1      10.874  13.147  23.886  0.00  0.00    -0.495 OA
ATOM     28  C   UNL     1      10.087  14.172  23.280  0.00  0.00    +0.277 C 
ENDBRANCH  20   2
ENDBRANCH  11  13
ENDBRANCH   3  11
TORSDOF 6
ENDMDL
MODEL 5
REMARK VINA RESULT:      -7.0      2.280     10.229
REMARK  Name = 51137519
REMARK  9 active torsions:
REMARK  status: ('A' for Active; 'I' for Inactive)
REMARK    1  A    between atoms: O_2  and  C_20
REMARK    2  A    between atoms: O_2  and  C_28
REMARK    3  A    between atoms: N_3  and  C_11
REMARK    4  A    between atoms: N_6  and  C_23
REMARK    5  A    between atoms: N_6  and  C_26
REMARK    6  A    between atoms: N_6  and  C_27
REMARK    7  A    between atoms: C_7  and  C_12
REMARK    8  A    between atoms: C_11  and  C_13
REMARK    9  A    between atoms: C_14  and  C_17
REMARK                            x       y       z     vdW  Elec       q    Type
REMARK                         _______ _______ _______ _____ _____    ______ ____
ROOT
ATOM      3  N   UNL     1     -15.162   5.434  22.426  0.00  0.00    -0.297 NA
ATOM      7  C   UNL     1     -16.142   3.540  23.400  0.00  0.00    +0.092 C 
ATOM      8  C   UNL     1     -17.179   4.262  22.522  0.00  0.00    +0.029 C 
ATOM      9  C   UNL     1     -15.018   4.565  23.595  0.00  0.00    +0.097 C 
ATOM     10  C   UNL     1     -16.602   5.653  22.294  0.00  0.00    +0.085 C 
ENDROOT
BRANCH   7  12
ATOM      1  O   UNL     1     -15.860   3.077  25.788  0.00  0.00    -0.420 OA
ATOM      4  N   UNL     1     -17.847   2.457  24.967  0.00  0.00    -0.112 NA
ATOM      5  N   UNL     1     -17.823   2.141  26.312  0.00  0.00    -0.107 NA
ATOM     12  C   UNL     1     -16.681   3.001  24.705  0.00  0.00    +0.222 A 
ATOM     14  C   UNL     1     -16.645   2.519  26.749  0.00  0.00    +0.248 A 
BRANCH  14  17
ATOM     17  C   UNL     1     -16.069   2.439  28.060  0.00  0.00    +0.039 A 
ATOM     21  C   UNL     1     -16.059   1.223  28.745  0.00  0.00    +0.015 A 
ATOM     22  C   UNL     1     -15.519   3.576  28.651  0.00  0.00    +0.015 A 
ATOM     23  C   UNL     1     -14.948   2.283  30.610  0.00  0.00    +0.029 A 
ATOM     24  C   UNL     1     -15.498   1.145  30.020  0.00  0.00    +0.024 A 
ATOM     25  C   UNL     1     -14.958   3.499  29.926  0.00  0.00    +0.024 A 
BRANCH  23   6
ATOM      6  N   UNL     1     -14.383   2.204  31.900  0.00  0.00    -0.336 N 
ATOM     26  C   UNL     1     -13.484   3.240  32.372  0.00  0.00    +0.129 C 
ATOM     27  C   UNL     1     -14.684   1.083  32.767  0.00  0.00    +0.129 C 
ENDBRANCH  23   6
ENDBRANCH  14  17
ENDBRANCH   7  12
BRANCH   3  11
ATOM     11  C   UNL     1     -14.423   6.680  22.564  0.00  0.00    +0.119 C 
BRANCH  11  13
ATOM     13  C   UNL     1     -13.649   7.015  21.318  0.00  0.00    -0.033 A 
ATOM     15  C   UNL     1     -12.305   6.658  21.213  0.00  0.00    +0.008 A 
ATOM     16  C   UNL     1     -14.276   7.684  20.267  0.00  0.00    +0.008 A 
ATOM     18  C   UNL     1     -11.588   6.968  20.057  0.00  0.00    +0.046 A 
ATOM     19  C   UNL     1     -13.559   7.994  19.110  0.00  0.00    +0.046 A 
ATOM     20  C   UNL     1     -12.215   7.635  19.006  0.00  0.00    +0.120 A 
BRANCH  20   2
ATOM      2  O   UNL     1     -11.517   7.938  17.878  0.00  0.00    -0.495 OA
ATOM     28  C   UNL     1     -10.410   8.828  18.018  0.00  0.00    +0.277 C 
ENDBRANCH  20   2
ENDBRANCH  11  13
ENDBRANCH   3  11
TORSDOF 6
ENDMDL
MODEL 6
REMARK VINA RESULT:      -6.7     20.844     22.135
REMARK  Name = 51137519
REMARK  9 active torsions:
REMARK  status: ('A' for Active; 'I' for Inactive)
REMARK    1  A    between atoms: O_2  and  C_20
REMARK    2  A    between atoms: O_2  and  C_28
REMARK    3  A    between atoms: N_3  and  C_11
REMARK    4  A    between atoms: N_6  and  C_23
REMARK    5  A    between atoms: N_6  and  C_26
REMARK    6  A    between atoms: N_6  and  C_27
REMARK    7  A    between atoms: C_7  and  C_12
REMARK    8  A    between atoms: C_11  and  C_13
REMARK    9  A    between atoms: C_14  and  C_17
REMARK                            x       y       z     vdW  Elec       q    Type
REMARK                         _______ _______ _______ _____ _____    ______ ____
ROOT
ATOM      3  N   UNL     1      -3.096 -11.424  15.145  0.00  0.00    -0.297 NA
ATOM      7  C   UNL     1      -3.569 -11.437  12.848  0.00  0.00    +0.092 C 
ATOM      8  C   UNL     1      -2.274 -12.226  13.112  0.00  0.00    +0.029 C 
ATOM      9  C   UNL     1      -3.803 -10.634  14.135  0.00  0.00    +0.097 C 
ATOM     10  C   UNL     1      -1.836 -11.808  14.510  0.00  0.00    +0.085 C 
ENDROOT
BRANCH   7  12
ATOM      1  O   UNL     1      -4.700 -10.478  10.900  0.00  0.00    -0.420 OA
ATOM      4  N   UNL     1      -2.556  -9.872  11.099  0.00  0.00    -0.112 NA
ATOM      5  N   UNL     1      -3.068  -9.265   9.968  0.00  0.00    -0.107 NA
ATOM     12  C   UNL     1      -3.544 -10.570  11.610  0.00  0.00    +0.222 A 
ATOM     14  C   UNL     1      -4.321  -9.648   9.891  0.00  0.00    +0.248 A 
BRANCH  14  17
ATOM     17  C   UNL     1      -5.333  -9.330   8.926  0.00  0.00    +0.039 A 
ATOM     21  C   UNL     1      -5.297  -9.911   7.658  0.00  0.00    +0.015 A 
ATOM     22  C   UNL     1      -6.356  -8.440   9.255  0.00  0.00    +0.015 A 
ATOM     23  C   UNL     1      -7.304  -8.711   7.050  0.00  0.00    +0.029 A 
ATOM     24  C   UNL     1      -6.282  -9.602   6.720  0.00  0.00    +0.024 A 
ATOM     25  C   UNL     1      -7.341  -8.130   8.318  0.00  0.00    +0.024 A 
BRANCH  23   6
ATOM      6  N   UNL     1      -8.299  -8.398   6.102  0.00  0.00    -0.336 N 
ATOM     26  C   UNL     1      -9.142  -7.232   6.279  0.00  0.00    +0.129 C 
ATOM     27  C   UNL     1      -8.498  -9.241   4.940  0.00  0.00    +0.129 C 
ENDBRANCH  23   6
ENDBRANCH  14  17
ENDBRANCH   7  12
BRANCH   3  11
ATOM     11  C   UNL     1      -2.890 -10.687  16.383  0.00  0.00    +0.119 C 
BRANCH  11  13
ATOM     13  C   UNL     1      -4.018 -10.900  17.357  0.00  0.00    -0.033 A 
ATOM     15  C   UNL     1      -5.239 -10.254  17.162  0.00  0.00    +0.008 A 
ATOM     16  C   UNL     1      -3.843 -11.742  18.454  0.00  0.00    +0.008 A 
ATOM     18  C   UNL     1      -6.285 -10.452  18.064  0.00  0.00    +0.046 A 
ATOM     19  C   UNL     1      -4.888 -11.940  19.357  0.00  0.00    +0.046 A 
ATOM     20  C   UNL     1      -6.110 -11.295  19.161  0.00  0.00    +0.120 A 
BRANCH  20   2
ATOM      2  O   UNL     1      -7.129 -11.489  20.041  0.00  0.00    -0.495 OA
ATOM     28  C   UNL     1      -7.930 -12.655  19.861  0.00  0.00    +0.277 C 
ENDBRANCH  20   2
ENDBRANCH  11  13
ENDBRANCH   3  11
TORSDOF 6
ENDMDL
MODEL 7
REMARK VINA RESULT:      -6.7     19.810     22.780
REMARK  Name = 51137519
REMARK  9 active torsions:
REMARK  status: ('A' for Active; 'I' for Inactive)
REMARK    1  A    between atoms: O_2  and  C_20
REMARK    2  A    between atoms: O_2  and  C_28
REMARK    3  A    between atoms: N_3  and  C_11
REMARK    4  A    between atoms: N_6  and  C_23
REMARK    5  A    between atoms: N_6  and  C_26
REMARK    6  A    between atoms: N_6  and  C_27
REMARK    7  A    between atoms: C_7  and  C_12
REMARK    8  A    between atoms: C_11  and  C_13
REMARK    9  A    between atoms: C_14  and  C_17
REMARK                            x       y       z     vdW  Elec       q    Type
REMARK                         _______ _______ _______ _____ _____    ______ ____
ROOT
ATOM      3  N   UNL     1      -6.815  -8.867   8.954  0.00  0.00    -0.297 NA
ATOM      7  C   UNL     1      -4.732  -8.972  10.026  0.00  0.00    +0.092 C 
ATOM      8  C   UNL     1      -4.618  -9.586   8.620  0.00  0.00    +0.029 C 
ATOM      9  C   UNL     1      -6.240  -8.905  10.301  0.00  0.00    +0.097 C 
ATOM     10  C   UNL     1      -6.055  -9.857   8.192  0.00  0.00    +0.085 C 
ENDROOT
BRANCH   7  12
ATOM      1  O   UNL     1      -4.516  -9.715  12.349  0.00  0.00    -0.420 OA
ATOM      4  N   UNL     1      -2.832 -10.359  11.025  0.00  0.00    -0.112 NA
ATOM      5  N   UNL     1      -2.584 -10.842  12.297  0.00  0.00    -0.107 NA
ATOM     12  C   UNL     1      -3.969  -9.707  11.103  0.00  0.00    +0.222 A 
ATOM     14  C   UNL     1      -3.592 -10.441  13.035  0.00  0.00    +0.248 A 
BRANCH  14  17
ATOM     17  C   UNL     1      -3.866 -10.649  14.428  0.00  0.00    +0.039 A 
ATOM     21  C   UNL     1      -2.824 -10.949  15.306  0.00  0.00    +0.015 A 
ATOM     22  C   UNL     1      -5.173 -10.550  14.904  0.00  0.00    +0.015 A 
ATOM     23  C   UNL     1      -4.399 -11.052  17.136  0.00  0.00    +0.029 A 
ATOM     24  C   UNL     1      -3.091 -11.150  16.661  0.00  0.00    +0.024 A 
ATOM     25  C   UNL     1      -5.440 -10.751  16.258  0.00  0.00    +0.024 A 
BRANCH  23   6
ATOM      6  N   UNL     1      -4.667 -11.257  18.505  0.00  0.00    -0.336 N 
ATOM     26  C   UNL     1      -3.784 -12.075  19.313  0.00  0.00    +0.129 C 
ATOM     27  C   UNL     1      -5.835 -10.659  19.123  0.00  0.00    +0.129 C 
ENDBRANCH  23   6
ENDBRANCH  14  17
ENDBRANCH   7  12
BRANCH   3  11
ATOM     11  C   UNL     1      -8.244  -9.144   8.953  0.00  0.00    +0.119 C 
BRANCH  11  13
ATOM     13  C   UNL     1      -9.060  -7.881   8.868  0.00  0.00    -0.033 A 
ATOM     15  C   UNL     1      -8.499  -6.723   8.331  0.00  0.00    +0.008 A 
ATOM     16  C   UNL     1     -10.376  -7.870   9.327  0.00  0.00    +0.008 A 
ATOM     18  C   UNL     1      -9.255  -5.553   8.252  0.00  0.00    +0.046 A 
ATOM     19  C   UNL     1     -11.133  -6.701   9.249  0.00  0.00    +0.046 A 
ATOM     20  C   UNL     1     -10.573  -5.542   8.710  0.00  0.00    +0.120 A 
BRANCH  20   2
ATOM      2  O   UNL     1     -11.311  -4.402   8.633  0.00  0.00    -0.495 OA
ATOM     28  C   UNL     1     -11.247  -3.510   9.744  0.00  0.00    +0.277 C 
ENDBRANCH  20   2
ENDBRANCH  11  13
ENDBRANCH   3  11
TORSDOF 6
ENDMDL
MODEL 8
REMARK VINA RESULT:      -6.6     30.242     34.788
REMARK  Name = 51137519
REMARK  9 active torsions:
REMARK  status: ('A' for Active; 'I' for Inactive)
REMARK    1  A    between atoms: O_2  and  C_20
REMARK    2  A    between atoms: O_2  and  C_28
REMARK    3  A    between atoms: N_3  and  C_11
REMARK    4  A    between atoms: N_6  and  C_23
REMARK    5  A    between atoms: N_6  and  C_26
REMARK    6  A    between atoms: N_6  and  C_27
REMARK    7  A    between atoms: C_7  and  C_12
REMARK    8  A    between atoms: C_11  and  C_13
REMARK    9  A    between atoms: C_14  and  C_17
REMARK                            x       y       z     vdW  Elec       q    Type
REMARK                         _______ _______ _______ _____ _____    ______ ____
ROOT
ATOM      3  N   UNL     1      16.847   7.742  20.568  0.00  0.00    -0.297 NA
ATOM      7  C   UNL     1      19.086   7.184  20.985  0.00  0.00    +0.092 C 
ATOM      8  C   UNL     1      18.428   6.077  20.141  0.00  0.00    +0.029 C 
ATOM      9  C   UNL     1      17.910   7.999  21.541  0.00  0.00    +0.097 C 
ATOM     10  C   UNL     1      16.929   6.309  20.288  0.00  0.00    +0.085 C 
ENDROOT
BRANCH   7  12
ATOM      1  O   UNL     1      20.735   5.562  21.790  0.00  0.00    -0.420 OA
ATOM      4  N   UNL     1      20.261   7.185  23.255  0.00  0.00    -0.112 NA
ATOM      5  N   UNL     1      21.196   6.348  23.832  0.00  0.00    -0.107 NA
ATOM     12  C   UNL     1      20.021   6.688  22.064  0.00  0.00    +0.222 A 
ATOM     14  C   UNL     1      21.442   5.415  22.942  0.00  0.00    +0.248 A 
BRANCH  14  17
ATOM     17  C   UNL     1      22.327   4.288  22.996  0.00  0.00    +0.039 A 
ATOM     21  C   UNL     1      23.021   4.001  24.172  0.00  0.00    +0.015 A 
ATOM     22  C   UNL     1      22.494   3.478  21.873  0.00  0.00    +0.015 A 
ATOM     23  C   UNL     1      24.048   2.094  23.100  0.00  0.00    +0.029 A 
ATOM     24  C   UNL     1      23.881   2.904  24.224  0.00  0.00    +0.024 A 
ATOM     25  C   UNL     1      23.353   2.381  21.924  0.00  0.00    +0.024 A 
BRANCH  23   6
ATOM      6  N   UNL     1      24.918   0.986  23.153  0.00  0.00    -0.336 N 
ATOM     26  C   UNL     1      24.800   0.010  24.218  0.00  0.00    +0.129 C 
ATOM     27  C   UNL     1      25.948   0.812  22.148  0.00  0.00    +0.129 C 
ENDBRANCH  23   6
ENDBRANCH  14  17
ENDBRANCH   7  12
BRANCH   3  11
ATOM     11  C   UNL     1      15.535   8.135  21.062  0.00  0.00    +0.119 C 
BRANCH  11  13
ATOM     13  C   UNL     1      14.467   7.964  20.015  0.00  0.00    -0.033 A 
ATOM     15  C   UNL     1      14.502   8.730  18.850  0.00  0.00    +0.008 A 
ATOM     16  C   UNL     1      13.442   7.040  20.211  0.00  0.00    +0.008 A 
ATOM     18  C   UNL     1      13.512   8.571  17.880  0.00  0.00    +0.046 A 
ATOM     19  C   UNL     1      12.451   6.880  19.241  0.00  0.00    +0.046 A 
ATOM     20  C   UNL     1      12.487   7.645  18.075  0.00  0.00    +0.120 A 
BRANCH  20   2
ATOM      2  O   UNL     1      11.521   7.489  17.129  0.00  0.00    -0.495 OA
ATOM     28  C   UNL     1      10.961   8.676  16.571  0.00  0.00    +0.277 C 
ENDBRANCH  20   2
ENDBRANCH  11  13
ENDBRANCH   3  11
TORSDOF 6
ENDMDL
MODEL 9
REMARK VINA RESULT:      -6.6     18.463     20.497
REMARK  Name = 51137519
REMARK  9 active torsions:
REMARK  status: ('A' for Active; 'I' for Inactive)
REMARK    1  A    between atoms: O_2  and  C_20
REMARK    2  A    between atoms: O_2  and  C_28
REMARK    3  A    between atoms: N_3  and  C_11
REMARK    4  A    between atoms: N_6  and  C_23
REMARK    5  A    between atoms: N_6  and  C_26
REMARK    6  A    between atoms: N_6  and  C_27
REMARK    7  A    between atoms: C_7  and  C_12
REMARK    8  A    between atoms: C_11  and  C_13
REMARK    9  A    between atoms: C_14  and  C_17
REMARK                            x       y       z     vdW  Elec       q    Type
REMARK                         _______ _______ _______ _____ _____    ______ ____
ROOT
ATOM      3  N   UNL     1      -4.546 -11.974  17.161  0.00  0.00    -0.297 NA
ATOM      7  C   UNL     1      -6.080 -10.712  18.408  0.00  0.00    +0.092 C 
ATOM      8  C   UNL     1      -5.373 -11.722  19.330  0.00  0.00    +0.029 C 
ATOM      9  C   UNL     1      -5.784 -11.211  16.988  0.00  0.00    +0.097 C 
ATOM     10  C   UNL     1      -4.746 -12.742  18.389  0.00  0.00    +0.085 C 
ENDROOT
BRANCH   7  12
ATOM      1  O   UNL     1      -8.245  -9.732  17.819  0.00  0.00    -0.420 OA
ATOM      4  N   UNL     1      -8.303 -11.050  19.625  0.00  0.00    -0.112 NA
ATOM      5  N   UNL     1      -9.580 -10.568  19.408  0.00  0.00    -0.107 NA
ATOM     12  C   UNL     1      -7.558 -10.536  18.674  0.00  0.00    +0.222 A 
ATOM     14  C   UNL     1      -9.498  -9.803  18.344  0.00  0.00    +0.248 A 
BRANCH  14  17
ATOM     17  C   UNL     1     -10.508  -9.046  17.664  0.00  0.00    +0.039 A 
ATOM     21  C   UNL     1     -11.778  -9.592  17.470  0.00  0.00    +0.015 A 
ATOM     22  C   UNL     1     -10.222  -7.764  17.195  0.00  0.00    +0.015 A 
ATOM     23  C   UNL     1     -12.473  -7.573  16.340  0.00  0.00    +0.029 A 
ATOM     24  C   UNL     1     -12.760  -8.855  16.808  0.00  0.00    +0.024 A 
ATOM     25  C   UNL     1     -11.204  -7.027  16.534  0.00  0.00    +0.024 A 
BRANCH  23   6
ATOM      6  N   UNL     1     -13.466  -6.829  15.670  0.00  0.00    -0.336 N 
ATOM     26  C   UNL     1     -14.845  -6.879  16.114  0.00  0.00    +0.129 C 
ATOM     27  C   UNL     1     -13.124  -6.011  14.524  0.00  0.00    +0.129 C 
ENDBRANCH  23   6
ENDBRANCH  14  17
ENDBRANCH   7  12
BRANCH   3  11
ATOM     11  C   UNL     1      -4.252 -12.824  16.017  0.00  0.00    +0.119 C 
BRANCH  11  13
ATOM     13  C   UNL     1      -3.637 -12.047  14.884  0.00  0.00    -0.033 A 
ATOM     15  C   UNL     1      -2.507 -11.261  15.109  0.00  0.00    +0.008 A 
ATOM     16  C   UNL     1      -4.197 -12.113  13.609  0.00  0.00    +0.008 A 
ATOM     18  C   UNL     1      -1.936 -10.541  14.059  0.00  0.00    +0.046 A 
ATOM     19  C   UNL     1      -3.627 -11.393  12.558  0.00  0.00    +0.046 A 
ATOM     20  C   UNL     1      -2.496 -10.608  12.783  0.00  0.00    +0.120 A 
BRANCH  20   2
ATOM      2  O   UNL     1      -1.940  -9.907  11.758  0.00  0.00    -0.495 OA
ATOM     28  C   UNL     1      -2.763  -9.657  10.620  0.00  0.00    +0.277 C 
ENDBRANCH  20   2
ENDBRANCH  11  13
ENDBRANCH   3  11
TORSDOF 6
ENDMDL
MODEL 10
REMARK VINA RESULT:      -6.5     29.507     34.752
REMARK  Name = 51137519
REMARK  9 active torsions:
REMARK  status: ('A' for Active; 'I' for Inactive)
REMARK    1  A    between atoms: O_2  and  C_20
REMARK    2  A    between atoms: O_2  and  C_28
REMARK    3  A    between atoms: N_3  and  C_11
REMARK    4  A    between atoms: N_6  and  C_23
REMARK    5  A    between atoms: N_6  and  C_26
REMARK    6  A    between atoms: N_6  and  C_27
REMARK    7  A    between atoms: C_7  and  C_12
REMARK    8  A    between atoms: C_11  and  C_13
REMARK    9  A    between atoms: C_14  and  C_17
REMARK                            x       y       z     vdW  Elec       q    Type
REMARK                         _______ _______ _______ _____ _____    ______ ____
ROOT
ATOM      3  N   UNL     1      11.652   5.409   3.313  0.00  0.00    -0.297 NA
ATOM      7  C   UNL     1      12.459   4.128   1.522  0.00  0.00    +0.092 C 
ATOM      8  C   UNL     1      13.364   5.356   1.725  0.00  0.00    +0.029 C 
ATOM      9  C   UNL     1      11.182   4.452   2.309  0.00  0.00    +0.097 C 
ATOM     10  C   UNL     1      12.545   6.310   2.585  0.00  0.00    +0.085 C 
ENDROOT
BRANCH   7  12
ATOM      1  O   UNL     1      11.112   4.365  -0.509  0.00  0.00    -0.420 OA
ATOM      4  N   UNL     1      12.841   2.961  -0.720  0.00  0.00    -0.112 NA
ATOM      5  N   UNL     1      12.172   3.000  -1.929  0.00  0.00    -0.107 NA
ATOM     12  C   UNL     1      12.187   3.772   0.079  0.00  0.00    +0.222 A 
ATOM     14  C   UNL     1      11.171   3.831  -1.759  0.00  0.00    +0.248 A 
BRANCH  14  17
ATOM     17  C   UNL     1      10.150   4.256  -2.671  0.00  0.00    +0.039 A 
ATOM     21  C   UNL     1      10.041   3.656  -3.927  0.00  0.00    +0.015 A 
ATOM     22  C   UNL     1       9.264   5.268  -2.304  0.00  0.00    +0.015 A 
ATOM     23  C   UNL     1       8.162   5.082  -4.446  0.00  0.00    +0.029 A 
ATOM     24  C   UNL     1       9.047   4.069  -4.814  0.00  0.00    +0.024 A 
ATOM     25  C   UNL     1       8.270   5.682  -3.191  0.00  0.00    +0.024 A 
BRANCH  23   6
ATOM      6  N   UNL     1       7.158   5.500  -5.343  0.00  0.00    -0.336 N 
ATOM     26  C   UNL     1       5.880   5.972  -4.848  0.00  0.00    +0.129 C 
ATOM     27  C   UNL     1       7.387   5.457  -6.774  0.00  0.00    +0.129 C 
ENDBRANCH  23   6
ENDBRANCH  14  17
ENDBRANCH   7  12
BRANCH   3  11
ATOM     11  C   UNL     1      10.558   6.117   3.960  0.00  0.00    +0.119 C 
BRANCH  11  13
ATOM     13  C   UNL     1      10.526   5.864   5.444  0.00  0.00    -0.033 A 
ATOM     15  C   UNL     1      11.310   6.637   6.301  0.00  0.00    +0.008 A 
ATOM     16  C   UNL     1       9.713   4.857   5.963  0.00  0.00    +0.008 A 
ATOM     18  C   UNL     1      11.280   6.404   7.676  0.00  0.00    +0.046 A 
ATOM     19  C   UNL     1       9.683   4.622   7.338  0.00  0.00    +0.046 A 
ATOM     20  C   UNL     1      10.466   5.397   8.194  0.00  0.00    +0.120 A 
BRANCH  20   2
ATOM      2  O   UNL     1      10.436   5.169   9.535  0.00  0.00    -0.495 OA
ATOM     28  C   UNL     1       9.230   4.630  10.076  0.00  0.00    +0.277 C 
ENDBRANCH  20   2
ENDBRANCH  11  13
ENDBRANCH   3  11
TORSDOF 6
ENDMDL
