MODEL 1
REMARK VINA RESULT:      -7.0      0.000      0.000
REMARK  Name = 26742396
REMARK  6 active torsions:
REMARK  status: ('A' for Active; 'I' for Inactive)
REMARK    1  A    between atoms: N_4  and  C_14
REMARK    2  A    between atoms: C_8  and  C_14
REMARK    3  A    between atoms: C_9  and  C_15
REMARK    4  A    between atoms: C_16  and  C_19
REMARK    5  A    between atoms: C_22  and  C_24
REMARK    6  A    between atoms: C_23  and  C_25
REMARK                            x       y       z     vdW  Elec       q    Type
REMARK                         _______ _______ _______ _____ _____    ______ ____
ROOT
ATOM      3  N   UNL     1      11.490   7.275  20.587  0.00  0.00    -0.297 NA
ATOM      7  C   UNL     1      12.092   9.336  22.062  0.00  0.00    +0.002 C 
ATOM      8  C   UNL     1      12.817   7.072  21.227  0.00  0.00    +0.074 C 
ATOM      9  C   UNL     1      11.648   9.792  20.645  0.00  0.00    +0.055 C 
ATOM     10  C   UNL     1      13.282   8.363  21.936  0.00  0.00    +0.024 C 
ATOM     11  C   UNL     1      10.914   8.535  22.661  0.00  0.00    +0.019 C 
ATOM     12  C   UNL     1      11.503   8.513  19.770  0.00  0.00    +0.094 C 
ATOM     13  C   UNL     1      10.486   7.442  21.666  0.00  0.00    +0.085 C 
ENDROOT
BRANCH   9  15
ATOM      5  N   UNL     1      12.478  12.090  20.539  0.00  0.00    -0.237 NA
ATOM      6  N   UNL     1      13.902  12.861  18.753  0.00  0.00    -0.232 NA
ATOM     15  C   UNL     1      12.461  10.875  19.951  0.00  0.00    +0.050 A 
ATOM     21  C   UNL     1      13.129  10.581  18.780  0.00  0.00    +0.052 A 
ATOM     22  C   UNL     1      13.840  11.622  18.220  0.00  0.00    +0.081 A 
ATOM     23  C   UNL     1      13.207  13.022  19.896  0.00  0.00    +0.127 A 
ATOM     25  C   UNL     1      13.252  14.377  20.516  0.00  0.00    +0.088 C 
BRANCH  22  24
ATOM      1  S   UNL     1      14.122  10.207  15.917  0.00  0.00    -0.095 S 
ATOM     24  C   UNL     1      14.582  11.453  16.999  0.00  0.00    +0.038 A 
ATOM     26  C   UNL     1      15.661  12.170  16.532  0.00  0.00    +0.017 A 
ATOM     27  C   UNL     1      16.116  11.691  15.270  0.00  0.00    +0.008 A 
ATOM     28  C   UNL     1      15.369  10.626  14.821  0.00  0.00    +0.046 A 
ENDBRANCH  22  24
ENDBRANCH   9  15
BRANCH   8  14
ATOM     14  C   UNL     1      13.865   6.552  20.242  0.00  0.00    +0.123 C 
BRANCH  14   4
ATOM      2  O   UNL     1      16.373   6.198  18.889  0.00  0.00    -0.276 OA
ATOM      4  N   UNL     1      15.167   6.549  20.835  0.00  0.00    -0.314 N 
ATOM     19  C   UNL     1      16.347   6.370  20.113  0.00  0.00    +0.216 C 
ATOM     29  H   UNL     1      15.231   6.680  21.841  0.00  0.00    +0.149 HD
BRANCH  19  16
ATOM     16  C   UNL     1      17.619   6.397  20.981  0.00  0.00    +0.075 C 
ATOM     17  C   UNL     1      18.958   6.072  20.287  0.00  0.00    +0.013 C 
ATOM     18  C   UNL     1      18.220   7.777  21.321  0.00  0.00    +0.013 C 
ATOM     20  C   UNL     1      19.609   7.113  21.221  0.00  0.00    +0.001 C 
ENDBRANCH  19  16
ENDBRANCH  14   4
ENDBRANCH   8  14
TORSDOF 5
ENDMDL
MODEL 2
REMARK VINA RESULT:      -6.9      2.055      2.848
REMARK  Name = 26742396
REMARK  6 active torsions:
REMARK  status: ('A' for Active; 'I' for Inactive)
REMARK    1  A    between atoms: N_4  and  C_14
REMARK    2  A    between atoms: C_8  and  C_14
REMARK    3  A    between atoms: C_9  and  C_15
REMARK    4  A    between atoms: C_16  and  C_19
REMARK    5  A    between atoms: C_22  and  C_24
REMARK    6  A    between atoms: C_23  and  C_25
REMARK                            x       y       z     vdW  Elec       q    Type
REMARK                         _______ _______ _______ _____ _____    ______ ____
ROOT
ATOM      3  N   UNL     1      11.134   8.237  21.224  0.00  0.00    -0.297 NA
ATOM      7  C   UNL     1      12.822  10.130  21.816  0.00  0.00    +0.002 C 
ATOM      8  C   UNL     1      12.375   7.651  21.796  0.00  0.00    +0.074 C 
ATOM      9  C   UNL     1      12.294  10.306  20.366  0.00  0.00    +0.055 C 
ATOM     10  C   UNL     1      13.463   8.734  21.960  0.00  0.00    +0.024 C 
ATOM     11  C   UNL     1      11.589  10.160  22.745  0.00  0.00    +0.019 C 
ATOM     12  C   UNL     1      11.458   9.040  20.019  0.00  0.00    +0.094 C 
ATOM     13  C   UNL     1      10.549   9.144  22.242  0.00  0.00    +0.085 C 
ENDROOT
BRANCH   9  15
ATOM      5  N   UNL     1      12.978  10.275  18.017  0.00  0.00    -0.237 NA
ATOM      6  N   UNL     1      15.054  11.246  17.272  0.00  0.00    -0.232 NA
ATOM     15  C   UNL     1      13.295  10.653  19.273  0.00  0.00    +0.050 A 
ATOM     21  C   UNL     1      14.457  11.320  19.603  0.00  0.00    +0.052 A 
ATOM     22  C   UNL     1      15.308  11.593  18.551  0.00  0.00    +0.081 A 
ATOM     23  C   UNL     1      13.888  10.598  17.080  0.00  0.00    +0.127 A 
ATOM     25  C   UNL     1      13.572  10.199  15.678  0.00  0.00    +0.088 C 
BRANCH  22  24
ATOM      1  S   UNL     1      17.178  13.254  17.486  0.00  0.00    -0.095 S 
ATOM     24  C   UNL     1      16.554  12.283  18.753  0.00  0.00    +0.038 A 
ATOM     26  C   UNL     1      17.373  12.290  19.860  0.00  0.00    +0.017 A 
ATOM     27  C   UNL     1      18.527  13.103  19.667  0.00  0.00    +0.008 A 
ATOM     28  C   UNL     1      18.546  13.686  18.420  0.00  0.00    +0.046 A 
ENDBRANCH  22  24
ENDBRANCH   9  15
BRANCH   8  14
ATOM     14  C   UNL     1      12.879   6.453  20.989  0.00  0.00    +0.123 C 
BRANCH  14   4
ATOM      2  O   UNL     1      14.158   7.134  18.510  0.00  0.00    -0.276 OA
ATOM      4  N   UNL     1      14.285   6.554  20.749  0.00  0.00    -0.314 N 
ATOM     19  C   UNL     1      14.838   6.890  19.513  0.00  0.00    +0.216 C 
ATOM     29  H   UNL     1      14.914   6.363  21.524  0.00  0.00    +0.149 HD
BRANCH  19  16
ATOM     16  C   UNL     1      16.378   6.922  19.507  0.00  0.00    +0.075 C 
ATOM     17  C   UNL     1      17.101   6.494  20.801  0.00  0.00    +0.013 C 
ATOM     18  C   UNL     1      17.111   5.760  18.805  0.00  0.00    +0.013 C 
ATOM     20  C   UNL     1      18.193   5.882  19.898  0.00  0.00    +0.001 C 
ENDBRANCH  19  16
ENDBRANCH  14   4
ENDBRANCH   8  14
TORSDOF 5
ENDMDL
MODEL 3
REMARK VINA RESULT:      -6.9      2.957      5.479
REMARK  Name = 26742396
REMARK  6 active torsions:
REMARK  status: ('A' for Active; 'I' for Inactive)
REMARK    1  A    between atoms: N_4  and  C_14
REMARK    2  A    between atoms: C_8  and  C_14
REMARK    3  A    between atoms: C_9  and  C_15
REMARK    4  A    between atoms: C_16  and  C_19
REMARK    5  A    between atoms: C_22  and  C_24
REMARK    6  A    between atoms: C_23  and  C_25
REMARK                            x       y       z     vdW  Elec       q    Type
REMARK                         _______ _______ _______ _____ _____    ______ ____
ROOT
ATOM      3  N   UNL     1      14.848   9.039  18.167  0.00  0.00    -0.297 NA
ATOM      7  C   UNL     1      12.257   9.178  17.943  0.00  0.00    +0.002 C 
ATOM      8  C   UNL     1      14.275   7.672  18.048  0.00  0.00    +0.074 C 
ATOM      9  C   UNL     1      12.745  10.029  19.147  0.00  0.00    +0.055 C 
ATOM     10  C   UNL     1      12.733   7.721  18.122  0.00  0.00    +0.024 C 
ATOM     11  C   UNL     1      12.965   9.734  16.688  0.00  0.00    +0.019 C 
ATOM     12  C   UNL     1      14.262   9.736  19.338  0.00  0.00    +0.094 C 
ATOM     13  C   UNL     1      14.481   9.795  16.946  0.00  0.00    +0.085 C 
ENDROOT
BRANCH   9  15
ATOM      5  N   UNL     1      11.414   8.742  20.745  0.00  0.00    -0.237 NA
ATOM      6  N   UNL     1      10.568   9.708  22.785  0.00  0.00    -0.232 NA
ATOM     15  C   UNL     1      11.971   9.936  20.454  0.00  0.00    +0.050 A 
ATOM     21  C   UNL     1      11.870  11.047  21.266  0.00  0.00    +0.052 A 
ATOM     22  C   UNL     1      11.150  10.873  22.430  0.00  0.00    +0.081 A 
ATOM     23  C   UNL     1      10.738   8.699  21.908  0.00  0.00    +0.127 A 
ATOM     25  C   UNL     1      10.110   7.395  22.267  0.00  0.00    +0.088 C 
BRANCH  22  24
ATOM      1  S   UNL     1      11.131  11.627  25.041  0.00  0.00    -0.095 S 
ATOM     24  C   UNL     1      10.966  11.949  23.367  0.00  0.00    +0.038 A 
ATOM     26  C   UNL     1      10.662  13.270  23.123  0.00  0.00    +0.017 A 
ATOM     27  C   UNL     1      10.564  14.028  24.325  0.00  0.00    +0.008 A 
ATOM     28  C   UNL     1      10.795  13.257  25.443  0.00  0.00    +0.046 A 
ENDBRANCH  22  24
ENDBRANCH   9  15
BRANCH   8  14
ATOM     14  C   UNL     1      14.865   6.701  19.071  0.00  0.00    +0.123 C 
BRANCH  14   4
ATOM      2  O   UNL     1      16.338   6.341  21.510  0.00  0.00    -0.276 OA
ATOM      4  N   UNL     1      16.256   6.959  19.279  0.00  0.00    -0.314 N 
ATOM     19  C   UNL     1      16.908   6.761  20.496  0.00  0.00    +0.216 C 
ATOM     29  H   UNL     1      16.796   7.312  18.494  0.00  0.00    +0.149 HD
BRANCH  19  16
ATOM     16  C   UNL     1      18.405   7.122  20.468  0.00  0.00    +0.075 C 
ATOM     17  C   UNL     1      19.040   7.618  21.784  0.00  0.00    +0.013 C 
ATOM     18  C   UNL     1      19.418   5.959  20.508  0.00  0.00    +0.013 C 
ATOM     20  C   UNL     1      20.323   6.876  21.356  0.00  0.00    +0.001 C 
ENDBRANCH  19  16
ENDBRANCH  14   4
ENDBRANCH   8  14
TORSDOF 5
ENDMDL
MODEL 4
REMARK VINA RESULT:      -6.8      2.866      4.603
REMARK  Name = 26742396
REMARK  6 active torsions:
REMARK  status: ('A' for Active; 'I' for Inactive)
REMARK    1  A    between atoms: N_4  and  C_14
REMARK    2  A    between atoms: C_8  and  C_14
REMARK    3  A    between atoms: C_9  and  C_15
REMARK    4  A    between atoms: C_16  and  C_19
REMARK    5  A    between atoms: C_22  and  C_24
REMARK    6  A    between atoms: C_23  and  C_25
REMARK                            x       y       z     vdW  Elec       q    Type
REMARK                         _______ _______ _______ _____ _____    ______ ____
ROOT
ATOM      3  N   UNL     1      11.843  11.550  24.472  0.00  0.00    -0.297 NA
ATOM      7  C   UNL     1      11.506  11.987  21.927  0.00  0.00    +0.002 C 
ATOM      8  C   UNL     1      13.112  12.034  23.867  0.00  0.00    +0.074 C 
ATOM      9  C   UNL     1      10.976  10.578  22.311  0.00  0.00    +0.055 C 
ATOM     10  C   UNL     1      12.991  12.101  22.329  0.00  0.00    +0.024 C 
ATOM     11  C   UNL     1      10.724  13.005  22.785  0.00  0.00    +0.019 C 
ATOM     12  C   UNL     1      11.393  10.312  23.787  0.00  0.00    +0.094 C 
ATOM     13  C   UNL     1      10.812  12.595  24.265  0.00  0.00    +0.085 C 
ENDROOT
BRANCH   9  15
ATOM      5  N   UNL     1      11.075   8.172  21.881  0.00  0.00    -0.237 NA
ATOM      6  N   UNL     1      11.904   7.272  19.804  0.00  0.00    -0.232 NA
ATOM     15  C   UNL     1      11.315   9.409  21.398  0.00  0.00    +0.050 A 
ATOM     21  C   UNL     1      11.841   9.654  20.146  0.00  0.00    +0.052 A 
ATOM     22  C   UNL     1      12.119   8.537  19.385  0.00  0.00    +0.081 A 
ATOM     23  C   UNL     1      11.388   7.165  21.044  0.00  0.00    +0.127 A 
ATOM     25  C   UNL     1      11.135   5.782  21.542  0.00  0.00    +0.088 C 
BRANCH  22  24
ATOM      1  S   UNL     1      14.120   7.811  17.696  0.00  0.00    -0.095 S 
ATOM     24  C   UNL     1      12.671   8.648  18.061  0.00  0.00    +0.038 A 
ATOM     26  C   UNL     1      12.198   9.359  16.980  0.00  0.00    +0.017 A 
ATOM     27  C   UNL     1      13.035   9.213  15.837  0.00  0.00    +0.008 A 
ATOM     28  C   UNL     1      14.117   8.398  16.087  0.00  0.00    +0.046 A 
ENDBRANCH  22  24
ENDBRANCH   9  15
BRANCH   8  14
ATOM     14  C   UNL     1      14.321  11.209  24.309  0.00  0.00    +0.123 C 
BRANCH  14   4
ATOM      2  O   UNL     1      14.569   8.942  22.564  0.00  0.00    -0.276 OA
ATOM      4  N   UNL     1      15.253  11.051  23.235  0.00  0.00    -0.314 N 
ATOM     19  C   UNL     1      15.317   9.917  22.426  0.00  0.00    +0.216 C 
ATOM     29  H   UNL     1      15.907  11.809  23.059  0.00  0.00    +0.149 HD
BRANCH  19  16
ATOM     16  C   UNL     1      16.412   9.984  21.344  0.00  0.00    +0.075 C 
ATOM     17  C   UNL     1      17.312  11.237  21.324  0.00  0.00    +0.013 C 
ATOM     18  C   UNL     1      17.696   9.161  21.581  0.00  0.00    +0.013 C 
ATOM     20  C   UNL     1      18.467  10.308  20.895  0.00  0.00    +0.001 C 
ENDBRANCH  19  16
ENDBRANCH  14   4
ENDBRANCH   8  14
TORSDOF 5
ENDMDL
MODEL 5
REMARK VINA RESULT:      -6.8     29.022     32.307
REMARK  Name = 26742396
REMARK  6 active torsions:
REMARK  status: ('A' for Active; 'I' for Inactive)
REMARK    1  A    between atoms: N_4  and  C_14
REMARK    2  A    between atoms: C_8  and  C_14
REMARK    3  A    between atoms: C_9  and  C_15
REMARK    4  A    between atoms: C_16  and  C_19
REMARK    5  A    between atoms: C_22  and  C_24
REMARK    6  A    between atoms: C_23  and  C_25
REMARK                            x       y       z     vdW  Elec       q    Type
REMARK                         _______ _______ _______ _____ _____    ______ ____
ROOT
ATOM      3  N   UNL     1     -18.781   2.729  26.377  0.00  0.00    -0.297 NA
ATOM      7  C   UNL     1     -16.921   0.914  26.211  0.00  0.00    +0.002 C 
ATOM      8  C   UNL     1     -17.686   3.204  25.490  0.00  0.00    +0.074 C 
ATOM      9  C   UNL     1     -17.285   1.185  27.697  0.00  0.00    +0.055 C 
ATOM     10  C   UNL     1     -16.484   2.234  25.543  0.00  0.00    +0.024 C 
ATOM     11  C   UNL     1     -18.220   0.459  25.510  0.00  0.00    +0.019 C 
ATOM     12  C   UNL     1     -18.244   2.411  27.723  0.00  0.00    +0.094 C 
ATOM     13  C   UNL     1     -19.333   1.484  25.791  0.00  0.00    +0.085 C 
ENDROOT
BRANCH   9  15
ATOM      5  N   UNL     1     -15.331   0.255  28.837  0.00  0.00    -0.237 NA
ATOM      6  N   UNL     1     -14.097   1.501  30.491  0.00  0.00    -0.232 NA
ATOM     15  C   UNL     1     -16.150   1.319  28.701  0.00  0.00    +0.050 A 
ATOM     21  C   UNL     1     -16.009   2.491  29.416  0.00  0.00    +0.052 A 
ATOM     22  C   UNL     1     -14.954   2.526  30.305  0.00  0.00    +0.081 A 
ATOM     23  C   UNL     1     -14.340   0.412  29.735  0.00  0.00    +0.127 A 
ATOM     25  C   UNL     1     -13.412  -0.741  29.912  0.00  0.00    +0.088 C 
BRANCH  22  24
ATOM      1  S   UNL     1     -15.698   5.062  30.938  0.00  0.00    -0.095 S 
ATOM     24  C   UNL     1     -14.692   3.686  31.114  0.00  0.00    +0.038 A 
ATOM     26  C   UNL     1     -13.711   3.882  32.060  0.00  0.00    +0.017 A 
ATOM     27  C   UNL     1     -13.785   5.177  32.649  0.00  0.00    +0.008 A 
ATOM     28  C   UNL     1     -14.819   5.923  32.130  0.00  0.00    +0.046 A 
ENDBRANCH  22  24
ENDBRANCH   9  15
BRANCH   8  14
ATOM     14  C   UNL     1     -17.270   4.643  25.795  0.00  0.00    +0.123 C 
BRANCH  14   4
ATOM      2  O   UNL     1     -17.340   6.133  23.341  0.00  0.00    -0.276 OA
ATOM      4  N   UNL     1     -16.149   5.033  24.997  0.00  0.00    -0.314 N 
ATOM     19  C   UNL     1     -16.259   5.758  23.810  0.00  0.00    +0.216 C 
ATOM     29  H   UNL     1     -15.224   4.759  25.312  0.00  0.00    +0.149 HD
BRANCH  19  16
ATOM     16  C   UNL     1     -14.907   6.045  23.129  0.00  0.00    +0.075 C 
ATOM     17  C   UNL     1     -13.766   5.034  23.363  0.00  0.00    +0.013 C 
ATOM     18  C   UNL     1     -14.785   5.718  21.626  0.00  0.00    +0.013 C 
ATOM     20  C   UNL     1     -13.324   5.311  21.911  0.00  0.00    +0.001 C 
ENDBRANCH  19  16
ENDBRANCH  14   4
ENDBRANCH   8  14
TORSDOF 5
ENDMDL
MODEL 6
REMARK VINA RESULT:      -6.6     26.086     29.009
REMARK  Name = 26742396
REMARK  6 active torsions:
REMARK  status: ('A' for Active; 'I' for Inactive)
REMARK    1  A    between atoms: N_4  and  C_14
REMARK    2  A    between atoms: C_8  and  C_14
REMARK    3  A    between atoms: C_9  and  C_15
REMARK    4  A    between atoms: C_16  and  C_19
REMARK    5  A    between atoms: C_22  and  C_24
REMARK    6  A    between atoms: C_23  and  C_25
REMARK                            x       y       z     vdW  Elec       q    Type
REMARK                         _______ _______ _______ _____ _____    ______ ____
ROOT
ATOM      3  N   UNL     1      -7.484 -11.617  17.749  0.00  0.00    -0.297 NA
ATOM      7  C   UNL     1      -5.007 -11.221  18.449  0.00  0.00    +0.002 C 
ATOM      8  C   UNL     1      -6.820 -12.918  18.025  0.00  0.00    +0.074 C 
ATOM      9  C   UNL     1      -5.335 -10.444  17.144  0.00  0.00    +0.055 C 
ATOM     10  C   UNL     1      -5.303 -12.720  18.239  0.00  0.00    +0.024 C 
ATOM     11  C   UNL     1      -5.989 -10.712  19.528  0.00  0.00    +0.019 C 
ATOM     12  C   UNL     1      -6.753 -10.888  16.683  0.00  0.00    +0.094 C 
ATOM     13  C   UNL     1      -7.427 -10.806  18.989  0.00  0.00    +0.085 C 
ENDROOT
BRANCH   9  15
ATOM      5  N   UNL     1      -3.018 -10.519  16.361  0.00  0.00    -0.237 NA
ATOM      6  N   UNL     1      -2.456 -10.560  14.018  0.00  0.00    -0.232 NA
ATOM     15  C   UNL     1      -4.321 -10.486  16.010  0.00  0.00    +0.050 A 
ATOM     21  C   UNL     1      -4.763 -10.486  14.702  0.00  0.00    +0.052 A 
ATOM     22  C   UNL     1      -3.776 -10.525  13.738  0.00  0.00    +0.081 A 
ATOM     23  C   UNL     1      -2.153 -10.555  15.330  0.00  0.00    +0.127 A 
ATOM     25  C   UNL     1      -0.704 -10.594  15.678  0.00  0.00    +0.088 C 
BRANCH  22  24
ATOM      1  S   UNL     1      -5.588  -9.859  11.826  0.00  0.00    -0.095 S 
ATOM     24  C   UNL     1      -4.096 -10.529  12.336  0.00  0.00    +0.038 A 
ATOM     26  C   UNL     1      -3.358 -11.011  11.278  0.00  0.00    +0.017 A 
ATOM     27  C   UNL     1      -4.025 -10.827  10.032  0.00  0.00    +0.008 A 
ATOM     28  C   UNL     1      -5.248 -10.213  10.186  0.00  0.00    +0.046 A 
ENDBRANCH  22  24
ENDBRANCH   9  15
BRANCH   8  14
ATOM     14  C   UNL     1      -7.112 -13.962  16.946  0.00  0.00    +0.123 C 
BRANCH  14   4
ATOM      2  O   UNL     1      -6.978 -14.619  14.154  0.00  0.00    -0.276 OA
ATOM      4  N   UNL     1      -5.934 -14.260  16.190  0.00  0.00    -0.314 N 
ATOM     19  C   UNL     1      -5.945 -14.573  14.831  0.00  0.00    +0.216 C 
ATOM     29  H   UNL     1      -5.042 -14.248  16.677  0.00  0.00    +0.149 HD
BRANCH  19  16
ATOM     16  C   UNL     1      -4.549 -14.865  14.248  0.00  0.00    +0.075 C 
ATOM     17  C   UNL     1      -4.221 -14.270  12.862  0.00  0.00    +0.013 C 
ATOM     18  C   UNL     1      -3.364 -14.043  14.795  0.00  0.00    +0.013 C 
ATOM     20  C   UNL     1      -2.776 -14.083  13.369  0.00  0.00    +0.001 C 
ENDBRANCH  19  16
ENDBRANCH  14   4
ENDBRANCH   8  14
TORSDOF 5
ENDMDL
MODEL 7
REMARK VINA RESULT:      -6.6     27.803     29.150
REMARK  Name = 26742396
REMARK  6 active torsions:
REMARK  status: ('A' for Active; 'I' for Inactive)
REMARK    1  A    between atoms: N_4  and  C_14
REMARK    2  A    between atoms: C_8  and  C_14
REMARK    3  A    between atoms: C_9  and  C_15
REMARK    4  A    between atoms: C_16  and  C_19
REMARK    5  A    between atoms: C_22  and  C_24
REMARK    6  A    between atoms: C_23  and  C_25
REMARK                            x       y       z     vdW  Elec       q    Type
REMARK                         _______ _______ _______ _____ _____    ______ ____
ROOT
ATOM      3  N   UNL     1      -6.439 -10.404  17.520  0.00  0.00    -0.297 NA
ATOM      7  C   UNL     1      -4.544 -12.186  17.375  0.00  0.00    +0.002 C 
ATOM      8  C   UNL     1      -7.021 -11.744  17.241  0.00  0.00    +0.074 C 
ATOM      9  C   UNL     1      -4.209 -10.960  16.481  0.00  0.00    +0.055 C 
ATOM     10  C   UNL     1      -5.906 -12.771  16.947  0.00  0.00    +0.024 C 
ATOM     11  C   UNL     1      -4.712 -11.653  18.815  0.00  0.00    +0.019 C 
ATOM     12  C   UNL     1      -5.465 -10.042  16.460  0.00  0.00    +0.094 C 
ATOM     13  C   UNL     1      -5.712 -10.484  18.810  0.00  0.00    +0.085 C 
ENDROOT
BRANCH   9  15
ATOM      5  N   UNL     1      -2.761 -12.217  14.961  0.00  0.00    -0.237 NA
ATOM      6  N   UNL     1      -2.640 -11.727  12.604  0.00  0.00    -0.232 NA
ATOM     15  C   UNL     1      -3.660 -11.218  15.085  0.00  0.00    +0.050 A 
ATOM     21  C   UNL     1      -4.091 -10.439  14.030  0.00  0.00    +0.052 A 
ATOM     22  C   UNL     1      -3.542 -10.742  12.801  0.00  0.00    +0.081 A 
ATOM     23  C   UNL     1      -2.299 -12.414  13.712  0.00  0.00    +0.127 A 
ATOM     25  C   UNL     1      -1.305 -13.511  13.534  0.00  0.00    +0.088 C 
BRANCH  22  24
ATOM      1  S   UNL     1      -5.468  -9.319  11.515  0.00  0.00    -0.095 S 
ATOM     24  C   UNL     1      -3.903 -10.009  11.617  0.00  0.00    +0.038 A 
ATOM     26  C   UNL     1      -3.154  -9.758  10.488  0.00  0.00    +0.017 A 
ATOM     27  C   UNL     1      -3.872  -8.988   9.529  0.00  0.00    +0.008 A 
ATOM     28  C   UNL     1      -5.144  -8.681   9.959  0.00  0.00    +0.046 A 
ENDBRANCH  22  24
ENDBRANCH   9  15
BRANCH   8  14
ATOM     14  C   UNL     1      -8.068 -11.704  16.126  0.00  0.00    +0.123 C 
BRANCH  14   4
ATOM      2  O   UNL     1      -8.717  -9.409  14.528  0.00  0.00    -0.276 OA
ATOM      4  N   UNL     1      -9.072 -10.723  16.402  0.00  0.00    -0.314 N 
ATOM     19  C   UNL     1      -9.332  -9.629  15.577  0.00  0.00    +0.216 C 
ATOM     29  H   UNL     1      -9.619 -10.830  17.251  0.00  0.00    +0.149 HD
BRANCH  19  16
ATOM     16  C   UNL     1     -10.454  -8.710  16.097  0.00  0.00    +0.075 C 
ATOM     17  C   UNL     1     -10.079  -7.676  17.178  0.00  0.00    +0.013 C 
ATOM     18  C   UNL     1     -10.864  -7.517  15.208  0.00  0.00    +0.013 C 
ATOM     20  C   UNL     1     -11.093  -6.723  16.511  0.00  0.00    +0.001 C 
ENDBRANCH  19  16
ENDBRANCH  14   4
ENDBRANCH   8  14
TORSDOF 5
ENDMDL
MODEL 8
REMARK VINA RESULT:      -6.5      2.881      4.743
REMARK  Name = 26742396
REMARK  6 active torsions:
REMARK  status: ('A' for Active; 'I' for Inactive)
REMARK    1  A    between atoms: N_4  and  C_14
REMARK    2  A    between atoms: C_8  and  C_14
REMARK    3  A    between atoms: C_9  and  C_15
REMARK    4  A    between atoms: C_16  and  C_19
REMARK    5  A    between atoms: C_22  and  C_24
REMARK    6  A    between atoms: C_23  and  C_25
REMARK                            x       y       z     vdW  Elec       q    Type
REMARK                         _______ _______ _______ _____ _____    ______ ____
ROOT
ATOM      3  N   UNL     1      13.265   7.421  19.519  0.00  0.00    -0.297 NA
ATOM      7  C   UNL     1      12.435   8.197  21.863  0.00  0.00    +0.002 C 
ATOM      8  C   UNL     1      14.402   7.452  20.476  0.00  0.00    +0.074 C 
ATOM      9  C   UNL     1      11.940   9.173  20.760  0.00  0.00    +0.055 C 
ATOM     10  C   UNL     1      13.974   8.104  21.809  0.00  0.00    +0.024 C 
ATOM     11  C   UNL     1      11.884   6.800  21.501  0.00  0.00    +0.019 C 
ATOM     12  C   UNL     1      12.637   8.762  19.431  0.00  0.00    +0.094 C 
ATOM     13  C   UNL     1      12.255   6.471  20.044  0.00  0.00    +0.085 C 
ENDROOT
BRANCH   9  15
ATOM      5  N   UNL     1      12.560  11.426  20.038  0.00  0.00    -0.237 NA
ATOM      6  N   UNL     1      12.246  13.357  21.446  0.00  0.00    -0.232 NA
ATOM     15  C   UNL     1      12.040  10.668  21.026  0.00  0.00    +0.050 A 
ATOM     21  C   UNL     1      11.609  11.174  22.235  0.00  0.00    +0.052 A 
ATOM     22  C   UNL     1      11.737  12.539  22.391  0.00  0.00    +0.081 A 
ATOM     23  C   UNL     1      12.632  12.743  20.311  0.00  0.00    +0.127 A 
ATOM     25  C   UNL     1      13.199  13.614  19.243  0.00  0.00    +0.088 C 
BRANCH  22  24
ATOM      1  S   UNL     1      11.558  14.890  23.743  0.00  0.00    -0.095 S 
ATOM     24  C   UNL     1      11.327  13.198  23.602  0.00  0.00    +0.038 A 
ATOM     26  C   UNL     1      10.749  12.660  24.730  0.00  0.00    +0.017 A 
ATOM     27  C   UNL     1      10.489  13.649  25.722  0.00  0.00    +0.008 A 
ATOM     28  C   UNL     1      10.881  14.905  25.316  0.00  0.00    +0.046 A 
ENDBRANCH  22  24
ENDBRANCH   9  15
BRANCH   8  14
ATOM     14  C   UNL     1      15.643   8.124  19.886  0.00  0.00    +0.123 C 
BRANCH  14   4
ATOM      2  O   UNL     1      17.221   5.912  18.956  0.00  0.00    -0.276 OA
ATOM      4  N   UNL     1      16.836   7.610  20.484  0.00  0.00    -0.314 N 
ATOM     19  C   UNL     1      17.553   6.527  19.975  0.00  0.00    +0.216 C 
ATOM     29  H   UNL     1      17.174   8.059  21.330  0.00  0.00    +0.149 HD
BRANCH  19  16
ATOM     16  C   UNL     1      18.798   6.158  20.805  0.00  0.00    +0.075 C 
ATOM     17  C   UNL     1      19.773   5.126  20.201  0.00  0.00    +0.013 C 
ATOM     18  C   UNL     1      19.975   7.156  20.804  0.00  0.00    +0.013 C 
ATOM     20  C   UNL     1      20.913   5.932  20.857  0.00  0.00    +0.001 C 
ENDBRANCH  19  16
ENDBRANCH  14   4
ENDBRANCH   8  14
TORSDOF 5
ENDMDL
MODEL 9
REMARK VINA RESULT:      -6.5     26.194     29.135
REMARK  Name = 26742396
REMARK  6 active torsions:
REMARK  status: ('A' for Active; 'I' for Inactive)
REMARK    1  A    between atoms: N_4  and  C_14
REMARK    2  A    between atoms: C_8  and  C_14
REMARK    3  A    between atoms: C_9  and  C_15
REMARK    4  A    between atoms: C_16  and  C_19
REMARK    5  A    between atoms: C_22  and  C_24
REMARK    6  A    between atoms: C_23  and  C_25
REMARK                            x       y       z     vdW  Elec       q    Type
REMARK                         _______ _______ _______ _____ _____    ______ ____
ROOT
ATOM      3  N   UNL     1      -6.148 -10.509   9.907  0.00  0.00    -0.297 NA
ATOM      7  C   UNL     1      -3.775  -9.484  10.225  0.00  0.00    +0.002 C 
ATOM      8  C   UNL     1      -6.235  -9.267  10.721  0.00  0.00    +0.074 C 
ATOM      9  C   UNL     1      -3.767 -10.996  10.581  0.00  0.00    +0.055 C 
ATOM     10  C   UNL     1      -4.825  -8.761  11.094  0.00  0.00    +0.024 C 
ATOM     11  C   UNL     1      -4.247  -9.375   8.759  0.00  0.00    +0.019 C 
ATOM     12  C   UNL     1      -5.244 -11.485  10.564  0.00  0.00    +0.094 C 
ATOM     13  C   UNL     1      -5.566 -10.150   8.592  0.00  0.00    +0.085 C 
ENDROOT
BRANCH   9  15
ATOM      5  N   UNL     1      -2.589 -10.454  12.655  0.00  0.00    -0.237 NA
ATOM      6  N   UNL     1      -1.699 -12.158  14.109  0.00  0.00    -0.232 NA
ATOM     15  C   UNL     1      -3.030 -11.434  11.838  0.00  0.00    +0.050 A 
ATOM     21  C   UNL     1      -2.845 -12.779  12.085  0.00  0.00    +0.052 A 
ATOM     22  C   UNL     1      -2.166 -13.086  13.247  0.00  0.00    +0.081 A 
ATOM     23  C   UNL     1      -1.941 -10.881  13.756  0.00  0.00    +0.127 A 
ATOM     25  C   UNL     1      -1.441  -9.828  14.685  0.00  0.00    +0.088 C 
BRANCH  22  24
ATOM      1  S   UNL     1      -3.093 -15.304  14.515  0.00  0.00    -0.095 S 
ATOM     24  C   UNL     1      -1.904 -14.449  13.626  0.00  0.00    +0.038 A 
ATOM     26  C   UNL     1      -0.791 -15.221  13.377  0.00  0.00    +0.017 A 
ATOM     27  C   UNL     1      -0.916 -16.531  13.921  0.00  0.00    +0.008 A 
ATOM     28  C   UNL     1      -2.119 -16.711  14.566  0.00  0.00    +0.046 A 
ENDBRANCH  22  24
ENDBRANCH   9  15
BRANCH   8  14
ATOM     14  C   UNL     1      -7.124  -9.440  11.954  0.00  0.00    +0.123 C 
BRANCH  14   4
ATOM      2  O   UNL     1      -6.761 -11.520  13.900  0.00  0.00    -0.276 OA
ATOM      4  N   UNL     1      -6.351  -9.365  13.156  0.00  0.00    -0.314 N 
ATOM     19  C   UNL     1      -6.219 -10.420  14.059  0.00  0.00    +0.216 C 
ATOM     29  H   UNL     1      -5.877  -8.490  13.362  0.00  0.00    +0.149 HD
BRANCH  19  16
ATOM     16  C   UNL     1      -5.343 -10.088  15.281  0.00  0.00    +0.075 C 
ATOM     17  C   UNL     1      -6.067  -9.747  16.601  0.00  0.00    +0.013 C 
ATOM     18  C   UNL     1      -4.694 -11.269  16.033  0.00  0.00    +0.013 C 
ATOM     20  C   UNL     1      -4.912 -10.465  17.331  0.00  0.00    +0.001 C 
ENDBRANCH  19  16
ENDBRANCH  14   4
ENDBRANCH   8  14
TORSDOF 5
ENDMDL
MODEL 10
REMARK VINA RESULT:      -6.3      3.936      6.646
REMARK  Name = 26742396
REMARK  6 active torsions:
REMARK  status: ('A' for Active; 'I' for Inactive)
REMARK    1  A    between atoms: N_4  and  C_14
REMARK    2  A    between atoms: C_8  and  C_14
REMARK    3  A    between atoms: C_9  and  C_15
REMARK    4  A    between atoms: C_16  and  C_19
REMARK    5  A    between atoms: C_22  and  C_24
REMARK    6  A    between atoms: C_23  and  C_25
REMARK                            x       y       z     vdW  Elec       q    Type
REMARK                         _______ _______ _______ _____ _____    ______ ____
ROOT
ATOM      3  N   UNL     1      12.143   7.327  21.625  0.00  0.00    -0.297 NA
ATOM      7  C   UNL     1      12.800   8.820  19.594  0.00  0.00    +0.002 C 
ATOM      8  C   UNL     1      11.059   8.304  21.340  0.00  0.00    +0.074 C 
ATOM      9  C   UNL     1      13.954   8.777  20.635  0.00  0.00    +0.055 C 
ATOM     10  C   UNL     1      11.515   9.329  20.279  0.00  0.00    +0.024 C 
ATOM     11  C   UNL     1      12.536   7.361  19.163  0.00  0.00    +0.019 C 
ATOM     12  C   UNL     1      13.414   8.042  21.896  0.00  0.00    +0.094 C 
ATOM     13  C   UNL     1      12.330   6.491  20.415  0.00  0.00    +0.085 C 
ENDROOT
BRANCH   9  15
ATOM      5  N   UNL     1      15.572  10.532  20.102  0.00  0.00    -0.237 NA
ATOM      6  N   UNL     1      15.948  12.417  21.556  0.00  0.00    -0.232 NA
ATOM     15  C   UNL     1      14.655  10.081  20.983  0.00  0.00    +0.050 A 
ATOM     21  C   UNL     1      14.336  10.733  22.157  0.00  0.00    +0.052 A 
ATOM     22  C   UNL     1      15.020  11.908  22.394  0.00  0.00    +0.081 A 
ATOM     23  C   UNL     1      16.171  11.688  20.445  0.00  0.00    +0.127 A 
ATOM     25  C   UNL     1      17.189  12.219  19.495  0.00  0.00    +0.088 C 
BRANCH  22  24
ATOM      1  S   UNL     1      14.606  11.879  25.079  0.00  0.00    -0.095 S 
ATOM     24  C   UNL     1      14.785  12.688  23.579  0.00  0.00    +0.038 A 
ATOM     26  C   UNL     1      14.674  14.054  23.713  0.00  0.00    +0.017 A 
ATOM     27  C   UNL     1      14.440  14.443  25.063  0.00  0.00    +0.008 A 
ATOM     28  C   UNL     1      14.380  13.359  25.911  0.00  0.00    +0.046 A 
ENDBRANCH  22  24
ENDBRANCH   9  15
BRANCH   8  14
ATOM     14  C   UNL     1      10.542   8.988  22.608  0.00  0.00    +0.123 C 
BRANCH  14   4
ATOM      2  O   UNL     1      11.068  10.750  24.813  0.00  0.00    -0.276 OA
ATOM      4  N   UNL     1      10.746  10.402  22.545  0.00  0.00    -0.314 N 
ATOM     19  C   UNL     1      10.997  11.198  23.663  0.00  0.00    +0.216 C 
ATOM     29  H   UNL     1      10.699  10.849  21.634  0.00  0.00    +0.149 HD
BRANCH  19  16
ATOM     16  C   UNL     1      11.171  12.694  23.336  0.00  0.00    +0.075 C 
ATOM     17  C   UNL     1      10.958  13.129  21.872  0.00  0.00    +0.013 C 
ATOM     18  C   UNL     1      10.011  13.642  23.706  0.00  0.00    +0.013 C 
ATOM     20  C   UNL     1      10.353  14.435  22.427  0.00  0.00    +0.001 C 
ENDBRANCH  19  16
ENDBRANCH  14   4
ENDBRANCH   8  14
TORSDOF 5
ENDMDL
