MODEL 1
REMARK VINA RESULT:      -6.8      0.000      0.000
REMARK  Name = 38028562
REMARK  13 active torsions:
REMARK  status: ('A' for Active; 'I' for Inactive)
REMARK    1  A    between atoms: O_3  and  C_22
REMARK    2  A    between atoms: O_3  and  C_26
REMARK    3  A    between atoms: N_4  and  C_14
REMARK    4  A    between atoms: N_5  and  C_21
REMARK    5  A    between atoms: C_7  and  C_11
REMARK    6  A    between atoms: C_8  and  C_14
REMARK    7  A    between atoms: C_10  and  C_15
REMARK    8  A    between atoms: C_11  and  C_16
REMARK    9  A    between atoms: C_11  and  C_17
REMARK   10  A    between atoms: C_12  and  C_18
REMARK   11  A    between atoms: C_15  and  C_19
REMARK   12  A    between atoms: C_20  and  C_22
REMARK   13  A    between atoms: C_21  and  C_23
REMARK                            x       y       z     vdW  Elec       q    Type
REMARK                         _______ _______ _______ _____ _____    ______ ____
ROOT
ATOM      7  C   UNL     1      -5.754 -10.776  17.330  0.00  0.00    +0.000 C 
ATOM      8  C   UNL     1      -4.696 -11.553  16.506  0.00  0.00    +0.032 C 
ATOM      9  C   UNL     1      -7.147 -11.392  17.131  0.00  0.00    +0.012 C 
ATOM     10  C   UNL     1      -7.580 -11.386  15.652  0.00  0.00    +0.023 C 
ATOM     12  C   UNL     1      -6.481 -11.891  14.741  0.00  0.00    -0.073 C 
ATOM     13  C   UNL     1      -5.200 -11.971  15.144  0.00  0.00    -0.022 C 
ATOM     18  C   UNL     1      -6.894 -12.346  13.369  0.00  0.00    +0.039 C 
ENDROOT
BRANCH   7  11
ATOM     11  C   UNL     1      -5.406 -10.753  18.822  0.00  0.00    -0.013 C 
ATOM     16  C   UNL     1      -6.656 -10.487  19.655  0.00  0.00    +0.007 C 
ATOM     17  C   UNL     1      -4.750 -12.067  19.236  0.00  0.00    +0.007 C 
ENDBRANCH   7  11
BRANCH   8  14
ATOM     14  C   UNL     1      -3.411 -10.735  16.345  0.00  0.00    +0.112 C 
BRANCH  14   4
ATOM      2  O   UNL     1      -0.827 -10.820  15.047  0.00  0.00    -0.272 OA
ATOM      4  N   UNL     1      -3.130 -10.494  14.964  0.00  0.00    -0.312 N 
ATOM     20  C   UNL     1      -1.848 -10.556  14.419  0.00  0.00    +0.251 C 
ATOM     34  H   UNL     1      -3.916 -10.335  14.342  0.00  0.00    +0.149 HD
BRANCH  20  22
ATOM     22  C   UNL     1      -1.843 -10.258  12.935  0.00  0.00    +0.324 C 
BRANCH  22   3
ATOM      3  O   UNL     1      -2.956 -10.856  12.303  0.00  0.00    -0.483 OA
BRANCH   3  26
ATOM     26  C   UNL     1      -3.723 -10.054  11.491  0.00  0.00    +0.121 A 
ATOM     28  C   UNL     1      -3.224  -9.629  10.260  0.00  0.00    +0.045 A 
ATOM     29  C   UNL     1      -4.998  -9.665  11.899  0.00  0.00    +0.045 A 
ATOM     31  C   UNL     1      -4.002  -8.815   9.436  0.00  0.00    +0.004 A 
ATOM     32  C   UNL     1      -5.775  -8.851  11.076  0.00  0.00    +0.004 A 
ATOM     33  C   UNL     1      -5.278  -8.426   9.844  0.00  0.00    +0.000 A 
ENDBRANCH   3  26
ENDBRANCH  22   3
ENDBRANCH  20  22
ENDBRANCH  14   4
ENDBRANCH   8  14
BRANCH  10  15
ATOM     15  C   UNL     1      -8.053  -9.992  15.221  0.00  0.00    +0.103 C 
BRANCH  15  19
ATOM      1  O   UNL     1     -10.307 -10.302  16.045  0.00  0.00    -0.276 OA
ATOM      5  N   UNL     1      -9.216  -8.285  16.424  0.00  0.00    -0.311 N 
ATOM     19  C   UNL     1      -9.322  -9.577  15.931  0.00  0.00    +0.214 C 
ATOM     35  H   UNL     1      -8.355  -7.764  16.284  0.00  0.00    +0.149 HD
BRANCH   5  21
ATOM     21  C   UNL     1     -10.281  -7.627  17.148  0.00  0.00    +0.141 C 
BRANCH  21  23
ATOM      6  N   UNL     1     -11.786  -5.446  14.450  0.00  0.00    -0.263 NA
ATOM     23  C   UNL     1     -11.292  -7.014  16.223  0.00  0.00    -0.012 A 
ATOM     24  C   UNL     1     -12.626  -7.404  16.260  0.00  0.00    +0.008 A 
ATOM     25  C   UNL     1     -10.927  -6.039  15.308  0.00  0.00    +0.115 A 
ATOM     27  C   UNL     1     -13.541  -6.818  15.392  0.00  0.00    +0.020 A 
ATOM     30  C   UNL     1     -13.075  -5.851  14.514  0.00  0.00    +0.111 A 
ENDBRANCH  21  23
ENDBRANCH   5  21
ENDBRANCH  15  19
ENDBRANCH  10  15
TORSDOF 10
ENDMDL
MODEL 2
REMARK VINA RESULT:      -6.7      3.844      7.786
REMARK  Name = 38028562
REMARK  13 active torsions:
REMARK  status: ('A' for Active; 'I' for Inactive)
REMARK    1  A    between atoms: O_3  and  C_22
REMARK    2  A    between atoms: O_3  and  C_26
REMARK    3  A    between atoms: N_4  and  C_14
REMARK    4  A    between atoms: N_5  and  C_21
REMARK    5  A    between atoms: C_7  and  C_11
REMARK    6  A    between atoms: C_8  and  C_14
REMARK    7  A    between atoms: C_10  and  C_15
REMARK    8  A    between atoms: C_11  and  C_16
REMARK    9  A    between atoms: C_11  and  C_17
REMARK   10  A    between atoms: C_12  and  C_18
REMARK   11  A    between atoms: C_15  and  C_19
REMARK   12  A    between atoms: C_20  and  C_22
REMARK   13  A    between atoms: C_21  and  C_23
REMARK                            x       y       z     vdW  Elec       q    Type
REMARK                         _______ _______ _______ _____ _____    ______ ____
ROOT
ATOM      7  C   UNL     1      -5.214 -10.559  10.688  0.00  0.00    +0.000 C 
ATOM      8  C   UNL     1      -4.672  -9.619   9.581  0.00  0.00    +0.032 C 
ATOM      9  C   UNL     1      -4.681 -10.129  12.063  0.00  0.00    +0.012 C 
ATOM     10  C   UNL     1      -3.142 -10.143  12.122  0.00  0.00    +0.023 C 
ATOM     12  C   UNL     1      -2.526  -9.464  10.917  0.00  0.00    -0.073 C 
ATOM     13  C   UNL     1      -3.229  -9.226   9.795  0.00  0.00    -0.022 C 
ATOM     18  C   UNL     1      -1.095  -9.022  11.045  0.00  0.00    +0.039 C 
ENDROOT
BRANCH   7  11
ATOM     11  C   UNL     1      -6.746 -10.585  10.710  0.00  0.00    -0.013 C 
ATOM     16  C   UNL     1      -7.246 -11.367  11.921  0.00  0.00    +0.007 C 
ATOM     17  C   UNL     1      -7.303  -9.165  10.716  0.00  0.00    +0.007 C 
ENDBRANCH   7  11
BRANCH   8  14
ATOM     14  C   UNL     1      -4.829 -10.251   8.194  0.00  0.00    +0.112 C 
BRANCH  14   4
ATOM      2  O   UNL     1      -7.460 -10.943   7.211  0.00  0.00    -0.272 OA
ATOM      4  N   UNL     1      -5.677  -9.454   7.364  0.00  0.00    -0.312 N 
ATOM     20  C   UNL     1      -6.938  -9.867   6.933  0.00  0.00    +0.251 C 
ATOM     34  H   UNL     1      -5.368  -8.515   7.134  0.00  0.00    +0.149 HD
BRANCH  20  22
ATOM     22  C   UNL     1      -7.616  -8.827   6.068  0.00  0.00    +0.324 C 
BRANCH  22   3
ATOM      3  O   UNL     1      -7.471  -7.540   6.632  0.00  0.00    -0.483 OA
BRANCH   3  26
ATOM     26  C   UNL     1      -8.605  -6.942   7.130  0.00  0.00    +0.121 A 
ATOM     28  C   UNL     1      -8.513  -6.064   8.210  0.00  0.00    +0.045 A 
ATOM     29  C   UNL     1      -9.846  -7.213   6.555  0.00  0.00    +0.045 A 
ATOM     31  C   UNL     1      -9.664  -5.458   8.716  0.00  0.00    +0.004 A 
ATOM     32  C   UNL     1     -10.995  -6.607   7.060  0.00  0.00    +0.004 A 
ATOM     33  C   UNL     1     -10.905  -5.729   8.141  0.00  0.00    +0.000 A 
ENDBRANCH   3  26
ENDBRANCH  22   3
ENDBRANCH  20  22
ENDBRANCH  14   4
ENDBRANCH   8  14
BRANCH  10  15
ATOM     15  C   UNL     1      -2.608 -11.572  12.279  0.00  0.00    +0.103 C 
BRANCH  15  19
ATOM      1  O   UNL     1      -2.511 -13.177  14.087  0.00  0.00    -0.276 OA
ATOM      5  N   UNL     1      -2.559 -10.905  14.574  0.00  0.00    -0.311 N 
ATOM     19  C   UNL     1      -2.554 -12.003  13.727  0.00  0.00    +0.214 C 
ATOM     35  H   UNL     1      -2.591  -9.968  14.181  0.00  0.00    +0.149 HD
BRANCH   5  21
ATOM     21  C   UNL     1      -2.514 -11.019  16.014  0.00  0.00    +0.141 C 
BRANCH  21  23
ATOM      6  N   UNL     1      -6.099  -9.903  16.470  0.00  0.00    -0.263 NA
ATOM     23  C   UNL     1      -3.866 -10.816  16.636  0.00  0.00    -0.012 A 
ATOM     24  C   UNL     1      -4.155 -11.314  17.901  0.00  0.00    +0.008 A 
ATOM     25  C   UNL     1      -4.863 -10.123  15.968  0.00  0.00    +0.115 A 
ATOM     27  C   UNL     1      -5.416 -11.109  18.452  0.00  0.00    +0.020 A 
ATOM     30  C   UNL     1      -6.344 -10.403  17.703  0.00  0.00    +0.111 A 
ENDBRANCH  21  23
ENDBRANCH   5  21
ENDBRANCH  15  19
ENDBRANCH  10  15
TORSDOF 10
ENDMDL
MODEL 3
REMARK VINA RESULT:      -6.5      2.386      3.063
REMARK  Name = 38028562
REMARK  13 active torsions:
REMARK  status: ('A' for Active; 'I' for Inactive)
REMARK    1  A    between atoms: O_3  and  C_22
REMARK    2  A    between atoms: O_3  and  C_26
REMARK    3  A    between atoms: N_4  and  C_14
REMARK    4  A    between atoms: N_5  and  C_21
REMARK    5  A    between atoms: C_7  and  C_11
REMARK    6  A    between atoms: C_8  and  C_14
REMARK    7  A    between atoms: C_10  and  C_15
REMARK    8  A    between atoms: C_11  and  C_16
REMARK    9  A    between atoms: C_11  and  C_17
REMARK   10  A    between atoms: C_12  and  C_18
REMARK   11  A    between atoms: C_15  and  C_19
REMARK   12  A    between atoms: C_20  and  C_22
REMARK   13  A    between atoms: C_21  and  C_23
REMARK                            x       y       z     vdW  Elec       q    Type
REMARK                         _______ _______ _______ _____ _____    ______ ____
ROOT
ATOM      7  C   UNL     1      -5.623 -10.773  17.790  0.00  0.00    +0.000 C 
ATOM      8  C   UNL     1      -4.934 -11.159  16.457  0.00  0.00    +0.032 C 
ATOM      9  C   UNL     1      -7.113 -11.149  17.752  0.00  0.00    +0.012 C 
ATOM     10  C   UNL     1      -7.859 -10.454  16.598  0.00  0.00    +0.023 C 
ATOM     12  C   UNL     1      -7.102 -10.561  15.291  0.00  0.00    -0.073 C 
ATOM     13  C   UNL     1      -5.798 -10.890  15.247  0.00  0.00    -0.022 C 
ATOM     18  C   UNL     1      -7.887 -10.326  14.031  0.00  0.00    +0.039 C 
ENDROOT
BRANCH   7  11
ATOM     11  C   UNL     1      -4.950 -11.444  18.992  0.00  0.00    -0.013 C 
ATOM     16  C   UNL     1      -5.858 -11.375  20.216  0.00  0.00    +0.007 C 
ATOM     17  C   UNL     1      -4.593 -12.890  18.664  0.00  0.00    +0.007 C 
ENDBRANCH   7  11
BRANCH   8  14
ATOM     14  C   UNL     1      -3.594 -10.434  16.298  0.00  0.00    +0.112 C 
BRANCH  14   4
ATOM      2  O   UNL     1      -1.236 -11.459  14.971  0.00  0.00    -0.272 OA
ATOM      4  N   UNL     1      -3.251 -10.295  14.917  0.00  0.00    -0.312 N 
ATOM     20  C   UNL     1      -2.088 -10.823  14.357  0.00  0.00    +0.251 C 
ATOM     34  H   UNL     1      -3.924  -9.844  14.306  0.00  0.00    +0.149 HD
BRANCH  20  22
ATOM     22  C   UNL     1      -1.980 -10.526  12.877  0.00  0.00    +0.324 C 
BRANCH  22   3
ATOM      3  O   UNL     1      -3.105 -11.028  12.185  0.00  0.00    -0.483 OA
BRANCH   3  26
ATOM     26  C   UNL     1      -3.800 -10.146  11.392  0.00  0.00    +0.121 A 
ATOM     28  C   UNL     1      -3.275  -9.754  10.161  0.00  0.00    +0.045 A 
ATOM     29  C   UNL     1      -5.029  -9.643  11.819  0.00  0.00    +0.045 A 
ATOM     31  C   UNL     1      -3.981  -8.858   9.356  0.00  0.00    +0.004 A 
ATOM     32  C   UNL     1      -5.733  -8.749  11.015  0.00  0.00    +0.004 A 
ATOM     33  C   UNL     1      -5.210  -8.356   9.783  0.00  0.00    +0.000 A 
ENDBRANCH   3  26
ENDBRANCH  22   3
ENDBRANCH  20  22
ENDBRANCH  14   4
ENDBRANCH   8  14
BRANCH  10  15
ATOM     15  C   UNL     1      -8.162  -8.990  16.939  0.00  0.00    +0.103 C 
BRANCH  15  19
ATOM      1  O   UNL     1     -10.116  -7.653  17.436  0.00  0.00    -0.276 OA
ATOM      5  N   UNL     1     -10.373  -9.897  16.886  0.00  0.00    -0.311 N 
ATOM     19  C   UNL     1      -9.642  -8.742  17.121  0.00  0.00    +0.214 C 
ATOM     35  H   UNL     1      -9.890 -10.752  16.624  0.00  0.00    +0.149 HD
BRANCH   5  21
ATOM     21  C   UNL     1     -11.813  -9.954  16.989  0.00  0.00    +0.141 C 
BRANCH  21  23
ATOM      6  N   UNL     1     -13.028 -12.371  19.631  0.00  0.00    -0.263 NA
ATOM     23  C   UNL     1     -12.261 -10.492  18.317  0.00  0.00    -0.012 A 
ATOM     24  C   UNL     1     -12.336  -9.670  19.436  0.00  0.00    +0.008 A 
ATOM     25  C   UNL     1     -12.616 -11.823  18.466  0.00  0.00    +0.115 A 
ATOM     27  C   UNL     1     -12.755 -10.197  20.653  0.00  0.00    +0.020 A 
ATOM     30  C   UNL     1     -13.088 -11.541  20.697  0.00  0.00    +0.111 A 
ENDBRANCH  21  23
ENDBRANCH   5  21
ENDBRANCH  15  19
ENDBRANCH  10  15
TORSDOF 10
ENDMDL
MODEL 4
REMARK VINA RESULT:      -6.5      1.657      8.306
REMARK  Name = 38028562
REMARK  13 active torsions:
REMARK  status: ('A' for Active; 'I' for Inactive)
REMARK    1  A    between atoms: O_3  and  C_22
REMARK    2  A    between atoms: O_3  and  C_26
REMARK    3  A    between atoms: N_4  and  C_14
REMARK    4  A    between atoms: N_5  and  C_21
REMARK    5  A    between atoms: C_7  and  C_11
REMARK    6  A    between atoms: C_8  and  C_14
REMARK    7  A    between atoms: C_10  and  C_15
REMARK    8  A    between atoms: C_11  and  C_16
REMARK    9  A    between atoms: C_11  and  C_17
REMARK   10  A    between atoms: C_12  and  C_18
REMARK   11  A    between atoms: C_15  and  C_19
REMARK   12  A    between atoms: C_20  and  C_22
REMARK   13  A    between atoms: C_21  and  C_23
REMARK                            x       y       z     vdW  Elec       q    Type
REMARK                         _______ _______ _______ _____ _____    ______ ____
ROOT
ATOM      7  C   UNL     1      -5.766 -10.688  15.175  0.00  0.00    +0.000 C 
ATOM      8  C   UNL     1      -6.647 -10.702  16.450  0.00  0.00    +0.032 C 
ATOM      9  C   UNL     1      -4.776 -11.863  15.194  0.00  0.00    +0.012 C 
ATOM     10  C   UNL     1      -3.852 -11.826  16.426  0.00  0.00    +0.023 C 
ATOM     12  C   UNL     1      -4.625 -11.573  17.703  0.00  0.00    -0.073 C 
ATOM     13  C   UNL     1      -5.878 -11.082  17.694  0.00  0.00    -0.022 C 
ATOM     18  C   UNL     1      -3.944 -11.938  18.992  0.00  0.00    +0.039 C 
ENDROOT
BRANCH   7  11
ATOM     11  C   UNL     1      -6.613 -10.744  13.899  0.00  0.00    -0.013 C 
ATOM     16  C   UNL     1      -6.159  -9.672  12.913  0.00  0.00    +0.007 C 
ATOM     17  C   UNL     1      -6.532 -12.130  13.267  0.00  0.00    +0.007 C 
ENDBRANCH   7  11
BRANCH   8  14
ATOM     14  C   UNL     1      -7.328  -9.346  16.666  0.00  0.00    +0.112 C 
BRANCH  14   4
ATOM      2  O   UNL     1      -9.174 -10.344  18.657  0.00  0.00    -0.272 OA
ATOM      4  N   UNL     1      -8.747  -9.465  16.544  0.00  0.00    -0.312 N 
ATOM     20  C   UNL     1      -9.566  -9.960  17.559  0.00  0.00    +0.251 C 
ATOM     34  H   UNL     1      -9.182  -9.109  15.699  0.00  0.00    +0.149 HD
BRANCH  20  22
ATOM     22  C   UNL     1     -11.026  -9.974  17.160  0.00  0.00    +0.324 C 
BRANCH  22   3
ATOM      3  O   UNL     1     -11.690  -8.832  17.661  0.00  0.00    -0.483 OA
BRANCH   3  26
ATOM     26  C   UNL     1     -12.016  -7.848  16.757  0.00  0.00    +0.121 A 
ATOM     28  C   UNL     1     -13.258  -7.869  16.122  0.00  0.00    +0.045 A 
ATOM     29  C   UNL     1     -11.105  -6.831  16.475  0.00  0.00    +0.045 A 
ATOM     31  C   UNL     1     -13.588  -6.871  15.204  0.00  0.00    +0.004 A 
ATOM     32  C   UNL     1     -11.436  -5.834  15.558  0.00  0.00    +0.004 A 
ATOM     33  C   UNL     1     -12.677  -5.853  14.923  0.00  0.00    +0.000 A 
ENDBRANCH   3  26
ENDBRANCH  22   3
ENDBRANCH  20  22
ENDBRANCH  14   4
ENDBRANCH   8  14
BRANCH  10  15
ATOM     15  C   UNL     1      -2.734 -10.792  16.246  0.00  0.00    +0.103 C 
BRANCH  15  19
ATOM      1  O   UNL     1      -1.137 -11.952  14.849  0.00  0.00    -0.276 OA
ATOM      5  N   UNL     1      -2.228 -10.074  14.023  0.00  0.00    -0.311 N 
ATOM     19  C   UNL     1      -1.936 -11.029  14.985  0.00  0.00    +0.214 C 
ATOM     35  H   UNL     1      -2.910  -9.349  14.227  0.00  0.00    +0.149 HD
BRANCH   5  21
ATOM     21  C   UNL     1      -1.610 -10.055  12.717  0.00  0.00    +0.141 C 
BRANCH  21  23
ATOM      6  N   UNL     1      -3.853 -12.259  10.615  0.00  0.00    -0.263 NA
ATOM     23  C   UNL     1      -2.561 -10.489  11.639  0.00  0.00    -0.012 A 
ATOM     24  C   UNL     1      -3.027  -9.589  10.688  0.00  0.00    +0.008 A 
ATOM     25  C   UNL     1      -3.000 -11.802  11.559  0.00  0.00    +0.115 A 
ATOM     27  C   UNL     1      -3.906 -10.020   9.700  0.00  0.00    +0.020 A 
ATOM     30  C   UNL     1      -4.284 -11.354   9.707  0.00  0.00    +0.111 A 
ENDBRANCH  21  23
ENDBRANCH   5  21
ENDBRANCH  15  19
ENDBRANCH  10  15
TORSDOF 10
ENDMDL
MODEL 5
REMARK VINA RESULT:      -6.5      2.878      5.741
REMARK  Name = 38028562
REMARK  13 active torsions:
REMARK  status: ('A' for Active; 'I' for Inactive)
REMARK    1  A    between atoms: O_3  and  C_22
REMARK    2  A    between atoms: O_3  and  C_26
REMARK    3  A    between atoms: N_4  and  C_14
REMARK    4  A    between atoms: N_5  and  C_21
REMARK    5  A    between atoms: C_7  and  C_11
REMARK    6  A    between atoms: C_8  and  C_14
REMARK    7  A    between atoms: C_10  and  C_15
REMARK    8  A    between atoms: C_11  and  C_16
REMARK    9  A    between atoms: C_11  and  C_17
REMARK   10  A    between atoms: C_12  and  C_18
REMARK   11  A    between atoms: C_15  and  C_19
REMARK   12  A    between atoms: C_20  and  C_22
REMARK   13  A    between atoms: C_21  and  C_23
REMARK                            x       y       z     vdW  Elec       q    Type
REMARK                         _______ _______ _______ _____ _____    ______ ____
ROOT
ATOM      7  C   UNL     1      -3.883 -12.802  13.083  0.00  0.00    +0.000 C 
ATOM      8  C   UNL     1      -2.426 -12.627  12.585  0.00  0.00    +0.032 C 
ATOM      9  C   UNL     1      -4.877 -12.338  12.008  0.00  0.00    +0.012 C 
ATOM     10  C   UNL     1      -4.668 -10.861  11.621  0.00  0.00    +0.023 C 
ATOM     12  C   UNL     1      -3.207 -10.545  11.373  0.00  0.00    -0.073 C 
ATOM     13  C   UNL     1      -2.220 -11.352  11.801  0.00  0.00    -0.022 C 
ATOM     18  C   UNL     1      -2.908  -9.301  10.584  0.00  0.00    +0.039 C 
ENDROOT
BRANCH   7  11
ATOM     11  C   UNL     1      -4.179 -14.255  13.471  0.00  0.00    -0.013 C 
ATOM     16  C   UNL     1      -5.673 -14.445  13.713  0.00  0.00    +0.007 C 
ATOM     17  C   UNL     1      -3.681 -15.207  12.388  0.00  0.00    +0.007 C 
ENDBRANCH   7  11
BRANCH   8  14
ATOM     14  C   UNL     1      -1.433 -12.674  13.752  0.00  0.00    +0.112 C 
BRANCH  14   4
ATOM      2  O   UNL     1      -1.298 -10.001  14.849  0.00  0.00    -0.272 OA
ATOM      4  N   UNL     1      -2.042 -12.204  14.957  0.00  0.00    -0.312 N 
ATOM     20  C   UNL     1      -1.925 -10.891  15.415  0.00  0.00    +0.251 C 
ATOM     34  H   UNL     1      -2.642 -12.845  15.466  0.00  0.00    +0.149 HD
BRANCH  20  22
ATOM     22  C   UNL     1      -2.670 -10.672  16.714  0.00  0.00    +0.324 C 
BRANCH  22   3
ATOM      3  O   UNL     1      -4.038 -10.423  16.468  0.00  0.00    -0.483 OA
BRANCH   3  26
ATOM     26  C   UNL     1      -4.949 -11.105  17.240  0.00  0.00    +0.121 A 
ATOM     28  C   UNL     1      -5.226 -10.672  18.536  0.00  0.00    +0.045 A 
ATOM     29  C   UNL     1      -5.595 -12.229  16.726  0.00  0.00    +0.045 A 
ATOM     31  C   UNL     1      -6.151 -11.364  19.319  0.00  0.00    +0.004 A 
ATOM     32  C   UNL     1      -6.518 -12.920  17.509  0.00  0.00    +0.004 A 
ATOM     33  C   UNL     1      -6.797 -12.488  18.806  0.00  0.00    +0.000 A 
ENDBRANCH   3  26
ENDBRANCH  22   3
ENDBRANCH  20  22
ENDBRANCH  14   4
ENDBRANCH   8  14
BRANCH  10  15
ATOM     15  C   UNL     1      -5.261  -9.924  12.679  0.00  0.00    +0.103 C 
BRANCH  15  19
ATOM      1  O   UNL     1      -7.538  -9.563  11.945  0.00  0.00    -0.276 OA
ATOM      5  N   UNL     1      -7.140 -10.767  13.892  0.00  0.00    -0.311 N 
ATOM     19  C   UNL     1      -6.766 -10.046  12.769  0.00  0.00    +0.214 C 
ATOM     35  H   UNL     1      -6.425 -11.133  14.515  0.00  0.00    +0.149 HD
BRANCH   5  21
ATOM     21  C   UNL     1      -8.518 -11.039  14.232  0.00  0.00    +0.141 C 
BRANCH  21  23
ATOM      6  N   UNL     1     -10.083 -11.043  17.675  0.00  0.00    -0.263 NA
ATOM     23  C   UNL     1      -8.840 -10.634  15.641  0.00  0.00    -0.012 A 
ATOM     24  C   UNL     1      -8.240  -9.523  16.223  0.00  0.00    +0.008 A 
ATOM     25  C   UNL     1      -9.747 -11.354  16.403  0.00  0.00    +0.115 A 
ATOM     27  C   UNL     1      -8.559  -9.171  17.530  0.00  0.00    +0.020 A 
ATOM     30  C   UNL     1      -9.479  -9.956  18.207  0.00  0.00    +0.111 A 
ENDBRANCH  21  23
ENDBRANCH   5  21
ENDBRANCH  15  19
ENDBRANCH  10  15
TORSDOF 10
ENDMDL
MODEL 6
REMARK VINA RESULT:      -6.4     24.238     27.880
REMARK  Name = 38028562
REMARK  13 active torsions:
REMARK  status: ('A' for Active; 'I' for Inactive)
REMARK    1  A    between atoms: O_3  and  C_22
REMARK    2  A    between atoms: O_3  and  C_26
REMARK    3  A    between atoms: N_4  and  C_14
REMARK    4  A    between atoms: N_5  and  C_21
REMARK    5  A    between atoms: C_7  and  C_11
REMARK    6  A    between atoms: C_8  and  C_14
REMARK    7  A    between atoms: C_10  and  C_15
REMARK    8  A    between atoms: C_11  and  C_16
REMARK    9  A    between atoms: C_11  and  C_17
REMARK   10  A    between atoms: C_12  and  C_18
REMARK   11  A    between atoms: C_15  and  C_19
REMARK   12  A    between atoms: C_20  and  C_22
REMARK   13  A    between atoms: C_21  and  C_23
REMARK                            x       y       z     vdW  Elec       q    Type
REMARK                         _______ _______ _______ _____ _____    ______ ____
ROOT
ATOM      7  C   UNL     1       8.936   8.394   5.372  0.00  0.00    +0.000 C 
ATOM      8  C   UNL     1       8.853   7.805   6.803  0.00  0.00    +0.032 C 
ATOM      9  C   UNL     1       8.415   7.379   4.343  0.00  0.00    +0.012 C 
ATOM     10  C   UNL     1       9.208   6.059   4.374  0.00  0.00    +0.023 C 
ATOM     12  C   UNL     1       9.401   5.550   5.787  0.00  0.00    -0.073 C 
ATOM     13  C   UNL     1       9.225   6.342   6.861  0.00  0.00    -0.022 C 
ATOM     18  C   UNL     1       9.757   4.098   5.943  0.00  0.00    +0.039 C 
ENDROOT
BRANCH   7  11
ATOM     11  C   UNL     1       8.152   9.705   5.251  0.00  0.00    -0.013 C 
ATOM     16  C   UNL     1       9.094  10.860   4.925  0.00  0.00    +0.007 C 
ATOM     17  C   UNL     1       7.064   9.578   4.189  0.00  0.00    +0.007 C 
ENDBRANCH   7  11
BRANCH   8  14
ATOM     14  C   UNL     1       9.734   8.594   7.778  0.00  0.00    +0.112 C 
BRANCH  14   4
ATOM      2  O   UNL     1      11.549  10.761   8.390  0.00  0.00    -0.272 OA
ATOM      4  N   UNL     1      11.034   8.812   7.226  0.00  0.00    -0.312 N 
ATOM     20  C   UNL     1      11.847   9.890   7.579  0.00  0.00    +0.251 C 
ATOM     34  H   UNL     1      11.405   8.109   6.595  0.00  0.00    +0.149 HD
BRANCH  20  22
ATOM     22  C   UNL     1      13.169   9.873   6.842  0.00  0.00    +0.324 C 
BRANCH  22   3
ATOM      3  O   UNL     1      13.741   8.582   6.874  0.00  0.00    -0.483 OA
BRANCH   3  26
ATOM     26  C   UNL     1      14.324   8.125   5.715  0.00  0.00    +0.121 A 
ATOM     28  C   UNL     1      15.711   8.151   5.576  0.00  0.00    +0.045 A 
ATOM     29  C   UNL     1      13.527   7.635   4.681  0.00  0.00    +0.045 A 
ATOM     31  C   UNL     1      16.302   7.686   4.400  0.00  0.00    +0.004 A 
ATOM     32  C   UNL     1      14.118   7.172   3.506  0.00  0.00    +0.004 A 
ATOM     33  C   UNL     1      15.506   7.197   3.365  0.00  0.00    +0.000 A 
ENDBRANCH   3  26
ENDBRANCH  22   3
ENDBRANCH  20  22
ENDBRANCH  14   4
ENDBRANCH   8  14
BRANCH  10  15
ATOM     15  C   UNL     1      10.554   6.207   3.655  0.00  0.00    +0.103 C 
BRANCH  15  19
ATOM      1  O   UNL     1      10.078   5.182   1.516  0.00  0.00    -0.276 OA
ATOM      5  N   UNL     1      11.709   4.259   2.891  0.00  0.00    -0.311 N 
ATOM     19  C   UNL     1      10.729   5.182   2.558  0.00  0.00    +0.214 C 
ATOM     35  H   UNL     1      12.198   4.344   3.778  0.00  0.00    +0.149 HD
BRANCH   5  21
ATOM     21  C   UNL     1      12.087   3.163   2.027  0.00  0.00    +0.141 C 
BRANCH  21  23
ATOM      6  N   UNL     1      15.626   3.881   0.904  0.00  0.00    -0.263 NA
ATOM     23  C   UNL     1      13.247   3.519   1.143  0.00  0.00    -0.012 A 
ATOM     24  C   UNL     1      13.060   3.815  -0.202  0.00  0.00    +0.008 A 
ATOM     25  C   UNL     1      14.539   3.566   1.643  0.00  0.00    +0.115 A 
ATOM     27  C   UNL     1      14.154   4.143  -0.996  0.00  0.00    +0.020 A 
ATOM     30  C   UNL     1      15.405   4.162  -0.400  0.00  0.00    +0.111 A 
ENDBRANCH  21  23
ENDBRANCH   5  21
ENDBRANCH  15  19
ENDBRANCH  10  15
TORSDOF 10
ENDMDL
MODEL 7
REMARK VINA RESULT:      -6.4     24.682     27.981
REMARK  Name = 38028562
REMARK  13 active torsions:
REMARK  status: ('A' for Active; 'I' for Inactive)
REMARK    1  A    between atoms: O_3  and  C_22
REMARK    2  A    between atoms: O_3  and  C_26
REMARK    3  A    between atoms: N_4  and  C_14
REMARK    4  A    between atoms: N_5  and  C_21
REMARK    5  A    between atoms: C_7  and  C_11
REMARK    6  A    between atoms: C_8  and  C_14
REMARK    7  A    between atoms: C_10  and  C_15
REMARK    8  A    between atoms: C_11  and  C_16
REMARK    9  A    between atoms: C_11  and  C_17
REMARK   10  A    between atoms: C_12  and  C_18
REMARK   11  A    between atoms: C_15  and  C_19
REMARK   12  A    between atoms: C_20  and  C_22
REMARK   13  A    between atoms: C_21  and  C_23
REMARK                            x       y       z     vdW  Elec       q    Type
REMARK                         _______ _______ _______ _____ _____    ______ ____
ROOT
ATOM      7  C   UNL     1       8.939   8.390   3.193  0.00  0.00    +0.000 C 
ATOM      8  C   UNL     1       7.978   8.034   4.355  0.00  0.00    +0.032 C 
ATOM      9  C   UNL     1       9.420   7.114   2.484  0.00  0.00    +0.012 C 
ATOM     10  C   UNL     1      10.149   6.155   3.444  0.00  0.00    +0.023 C 
ATOM     12  C   UNL     1       9.384   5.963   4.737  0.00  0.00    -0.073 C 
ATOM     13  C   UNL     1       8.409   6.806   5.122  0.00  0.00    -0.022 C 
ATOM     18  C   UNL     1       9.735   4.754   5.559  0.00  0.00    +0.039 C 
ENDROOT
BRANCH   7  11
ATOM     11  C   UNL     1       8.280   9.330   2.178  0.00  0.00    -0.013 C 
ATOM     16  C   UNL     1       8.875  10.731   2.286  0.00  0.00    +0.007 C 
ATOM     17  C   UNL     1       8.440   8.782   0.763  0.00  0.00    +0.007 C 
ENDBRANCH   7  11
BRANCH   8  14
ATOM     14  C   UNL     1       7.823   9.212   5.323  0.00  0.00    +0.112 C 
BRANCH  14   4
ATOM      2  O   UNL     1       9.921  11.184   5.603  0.00  0.00    -0.272 OA
ATOM      4  N   UNL     1       8.877   9.219   6.289  0.00  0.00    -0.312 N 
ATOM     20  C   UNL     1       9.852  10.214   6.353  0.00  0.00    +0.251 C 
ATOM     34  H   UNL     1       8.871   8.496   7.001  0.00  0.00    +0.149 HD
BRANCH  20  22
ATOM     22  C   UNL     1      10.843   9.971   7.471  0.00  0.00    +0.324 C 
BRANCH  22   3
ATOM      3  O   UNL     1      11.379   8.667   7.387  0.00  0.00    -0.483 OA
BRANCH   3  26
ATOM     26  C   UNL     1      12.694   8.552   7.000  0.00  0.00    +0.121 A 
ATOM     28  C   UNL     1      13.438   9.696   6.712  0.00  0.00    +0.045 A 
ATOM     29  C   UNL     1      13.282   7.292   6.895  0.00  0.00    +0.045 A 
ATOM     31  C   UNL     1      14.772   9.580   6.319  0.00  0.00    +0.004 A 
ATOM     32  C   UNL     1      14.615   7.176   6.502  0.00  0.00    +0.004 A 
ATOM     33  C   UNL     1      15.360   8.320   6.214  0.00  0.00    +0.000 A 
ENDBRANCH   3  26
ENDBRANCH  22   3
ENDBRANCH  20  22
ENDBRANCH  14   4
ENDBRANCH   8  14
BRANCH  10  15
ATOM     15  C   UNL     1      11.580   6.630   3.718  0.00  0.00    +0.103 C 
BRANCH  15  19
ATOM      1  O   UNL     1      13.523   6.634   2.277  0.00  0.00    -0.276 OA
ATOM      5  N   UNL     1      12.272   4.689   2.506  0.00  0.00    -0.311 N 
ATOM     19  C   UNL     1      12.576   6.018   2.759  0.00  0.00    +0.214 C 
ATOM     35  H   UNL     1      11.467   4.264   2.958  0.00  0.00    +0.149 HD
BRANCH   5  21
ATOM     21  C   UNL     1      13.055   3.854   1.624  0.00  0.00    +0.141 C 
BRANCH  21  23
ATOM      6  N   UNL     1      10.469   3.976  -1.133  0.00  0.00    -0.263 NA
ATOM     23  C   UNL     1      12.424   3.723   0.268  0.00  0.00    -0.012 A 
ATOM     24  C   UNL     1      13.150   3.248  -0.818  0.00  0.00    +0.008 A 
ATOM     25  C   UNL     1      11.098   4.070   0.059  0.00  0.00    +0.115 A 
ATOM     27  C   UNL     1      12.538   3.136  -2.063  0.00  0.00    +0.020 A 
ATOM     30  C   UNL     1      11.207   3.509  -2.166  0.00  0.00    +0.111 A 
ENDBRANCH  21  23
ENDBRANCH   5  21
ENDBRANCH  15  19
ENDBRANCH  10  15
TORSDOF 10
ENDMDL
MODEL 8
REMARK VINA RESULT:      -6.3     18.532     20.809
REMARK  Name = 38028562
REMARK  13 active torsions:
REMARK  status: ('A' for Active; 'I' for Inactive)
REMARK    1  A    between atoms: O_3  and  C_22
REMARK    2  A    between atoms: O_3  and  C_26
REMARK    3  A    between atoms: N_4  and  C_14
REMARK    4  A    between atoms: N_5  and  C_21
REMARK    5  A    between atoms: C_7  and  C_11
REMARK    6  A    between atoms: C_8  and  C_14
REMARK    7  A    between atoms: C_10  and  C_15
REMARK    8  A    between atoms: C_11  and  C_16
REMARK    9  A    between atoms: C_11  and  C_17
REMARK   10  A    between atoms: C_12  and  C_18
REMARK   11  A    between atoms: C_15  and  C_19
REMARK   12  A    between atoms: C_20  and  C_22
REMARK   13  A    between atoms: C_21  and  C_23
REMARK                            x       y       z     vdW  Elec       q    Type
REMARK                         _______ _______ _______ _____ _____    ______ ____
ROOT
ATOM      7  C   UNL     1     -16.672   3.218  27.055  0.00  0.00    +0.000 C 
ATOM      8  C   UNL     1     -16.825   3.794  25.625  0.00  0.00    +0.032 C 
ATOM      9  C   UNL     1     -17.819   3.705  27.954  0.00  0.00    +0.012 C 
ATOM     10  C   UNL     1     -17.872   5.241  28.050  0.00  0.00    +0.023 C 
ATOM     12  C   UNL     1     -17.755   5.896  26.689  0.00  0.00    -0.073 C 
ATOM     13  C   UNL     1     -17.298   5.229  25.614  0.00  0.00    -0.022 C 
ATOM     18  C   UNL     1     -18.220   7.321  26.580  0.00  0.00    +0.039 C 
ENDROOT
BRANCH   7  11
ATOM     11  C   UNL     1     -16.633   1.686  27.049  0.00  0.00    -0.013 C 
ATOM     16  C   UNL     1     -16.848   1.144  28.458  0.00  0.00    +0.007 C 
ATOM     17  C   UNL     1     -17.680   1.131  26.089  0.00  0.00    +0.007 C 
ENDBRANCH   7  11
BRANCH   8  14
ATOM     14  C   UNL     1     -15.512   3.684  24.842  0.00  0.00    +0.112 C 
BRANCH  14   4
ATOM      2  O   UNL     1     -14.988   4.228  22.049  0.00  0.00    -0.272 OA
ATOM      4  N   UNL     1     -15.160   4.941  24.258  0.00  0.00    -0.312 N 
ATOM     20  C   UNL     1     -14.923   5.115  22.895  0.00  0.00    +0.251 C 
ATOM     34  H   UNL     1     -15.148   5.756  24.863  0.00  0.00    +0.149 HD
BRANCH  20  22
ATOM     22  C   UNL     1     -14.571   6.547  22.555  0.00  0.00    +0.324 C 
BRANCH  22   3
ATOM      3  O   UNL     1     -13.228   6.641  22.126  0.00  0.00    -0.483 OA
BRANCH   3  26
ATOM     26  C   UNL     1     -13.010   7.057  20.834  0.00  0.00    +0.121 A 
ATOM     28  C   UNL     1     -11.729   6.987  20.286  0.00  0.00    +0.045 A 
ATOM     29  C   UNL     1     -14.069   7.548  20.071  0.00  0.00    +0.045 A 
ATOM     31  C   UNL     1     -11.507   7.408  18.974  0.00  0.00    +0.004 A 
ATOM     32  C   UNL     1     -13.847   7.969  18.760  0.00  0.00    +0.004 A 
ATOM     33  C   UNL     1     -12.566   7.899  18.212  0.00  0.00    +0.000 A 
ENDBRANCH   3  26
ENDBRANCH  22   3
ENDBRANCH  20  22
ENDBRANCH  14   4
ENDBRANCH   8  14
BRANCH  10  15
ATOM     15  C   UNL     1     -16.798   5.772  29.008  0.00  0.00    +0.103 C 
BRANCH  15  19
ATOM      1  O   UNL     1     -17.660   4.672  30.982  0.00  0.00    -0.276 OA
ATOM      5  N   UNL     1     -15.391   4.538  30.496  0.00  0.00    -0.311 N 
ATOM     19  C   UNL     1     -16.698   4.942  30.268  0.00  0.00    +0.214 C 
ATOM     35  H   UNL     1     -14.661   4.809  29.842  0.00  0.00    +0.149 HD
BRANCH   5  21
ATOM     21  C   UNL     1     -15.001   3.733  31.631  0.00  0.00    +0.141 C 
BRANCH  21  23
ATOM      6  N   UNL     1     -13.476   0.830  29.747  0.00  0.00    -0.263 NA
ATOM     23  C   UNL     1     -14.662   2.327  31.232  0.00  0.00    -0.012 A 
ATOM     24  C   UNL     1     -15.183   1.239  31.923  0.00  0.00    +0.008 A 
ATOM     25  C   UNL     1     -13.821   2.070  30.160  0.00  0.00    +0.115 A 
ATOM     27  C   UNL     1     -14.852  -0.053  31.529  0.00  0.00    +0.020 A 
ATOM     30  C   UNL     1     -14.002  -0.202  30.444  0.00  0.00    +0.111 A 
ENDBRANCH  21  23
ENDBRANCH   5  21
ENDBRANCH  15  19
ENDBRANCH  10  15
TORSDOF 10
ENDMDL
MODEL 9
REMARK VINA RESULT:      -6.3     24.311     28.345
REMARK  Name = 38028562
REMARK  13 active torsions:
REMARK  status: ('A' for Active; 'I' for Inactive)
REMARK    1  A    between atoms: O_3  and  C_22
REMARK    2  A    between atoms: O_3  and  C_26
REMARK    3  A    between atoms: N_4  and  C_14
REMARK    4  A    between atoms: N_5  and  C_21
REMARK    5  A    between atoms: C_7  and  C_11
REMARK    6  A    between atoms: C_8  and  C_14
REMARK    7  A    between atoms: C_10  and  C_15
REMARK    8  A    between atoms: C_11  and  C_16
REMARK    9  A    between atoms: C_11  and  C_17
REMARK   10  A    between atoms: C_12  and  C_18
REMARK   11  A    between atoms: C_15  and  C_19
REMARK   12  A    between atoms: C_20  and  C_22
REMARK   13  A    between atoms: C_21  and  C_23
REMARK                            x       y       z     vdW  Elec       q    Type
REMARK                         _______ _______ _______ _____ _____    ______ ____
ROOT
ATOM      7  C   UNL     1      14.490   4.688  -0.766  0.00  0.00    +0.000 C 
ATOM      8  C   UNL     1      13.403   3.621  -1.050  0.00  0.00    +0.032 C 
ATOM      9  C   UNL     1      14.979   4.582   0.687  0.00  0.00    +0.012 C 
ATOM     10  C   UNL     1      13.836   4.769   1.702  0.00  0.00    +0.023 C 
ATOM     12  C   UNL     1      12.618   3.946   1.336  0.00  0.00    -0.073 C 
ATOM     13  C   UNL     1      12.448   3.430   0.106  0.00  0.00    -0.022 C 
ATOM     18  C   UNL     1      11.619   3.690   2.431  0.00  0.00    +0.039 C 
ENDROOT
BRANCH   7  11
ATOM     11  C   UNL     1      15.678   4.557  -1.724  0.00  0.00    -0.013 C 
ATOM     16  C   UNL     1      15.965   5.893  -2.401  0.00  0.00    +0.007 C 
ATOM     17  C   UNL     1      16.910   4.053  -0.978  0.00  0.00    +0.007 C 
ENDBRANCH   7  11
BRANCH   8  14
ATOM     14  C   UNL     1      12.610   3.963  -2.316  0.00  0.00    +0.112 C 
BRANCH  14   4
ATOM      2  O   UNL     1      12.185   6.813  -2.572  0.00  0.00    -0.272 OA
ATOM      4  N   UNL     1      11.423   4.692  -1.991  0.00  0.00    -0.312 N 
ATOM     20  C   UNL     1      11.303   6.073  -2.146  0.00  0.00    +0.251 C 
ATOM     34  H   UNL     1      10.609   4.162  -1.696  0.00  0.00    +0.149 HD
BRANCH  20  22
ATOM     22  C   UNL     1       9.940   6.578  -1.727  0.00  0.00    +0.324 C 
BRANCH  22   3
ATOM      3  O   UNL     1      10.055   7.801  -1.029  0.00  0.00    -0.483 OA
BRANCH   3  26
ATOM     26  C   UNL     1       9.604   7.826   0.270  0.00  0.00    +0.121 A 
ATOM     28  C   UNL     1       9.973   6.814   1.156  0.00  0.00    +0.045 A 
ATOM     29  C   UNL     1       8.779   8.864   0.702  0.00  0.00    +0.045 A 
ATOM     31  C   UNL     1       9.516   6.840   2.474  0.00  0.00    +0.004 A 
ATOM     32  C   UNL     1       8.322   8.890   2.019  0.00  0.00    +0.004 A 
ATOM     33  C   UNL     1       8.691   7.878   2.906  0.00  0.00    +0.000 A 
ENDBRANCH   3  26
ENDBRANCH  22   3
ENDBRANCH  20  22
ENDBRANCH  14   4
ENDBRANCH   8  14
BRANCH  10  15
ATOM     15  C   UNL     1      13.471   6.250   1.855  0.00  0.00    +0.103 C 
BRANCH  15  19
ATOM      1  O   UNL     1      14.845   7.115   3.648  0.00  0.00    -0.276 OA
ATOM      5  N   UNL     1      12.576   6.769   4.010  0.00  0.00    -0.311 N 
ATOM     19  C   UNL     1      13.738   6.760   3.253  0.00  0.00    +0.214 C 
ATOM     35  H   UNL     1      11.702   6.461   3.592  0.00  0.00    +0.149 HD
BRANCH   5  21
ATOM     21  C   UNL     1      12.534   7.208   5.387  0.00  0.00    +0.141 C 
BRANCH  21  23
ATOM      6  N   UNL     1      10.899   5.588   8.387  0.00  0.00    -0.263 NA
ATOM     23  C   UNL     1      11.586   6.385   6.210  0.00  0.00    -0.012 A 
ATOM     24  C   UNL     1      10.552   5.672   5.614  0.00  0.00    +0.008 A 
ATOM     25  C   UNL     1      11.716   6.310   7.588  0.00  0.00    +0.115 A 
ATOM     27  C   UNL     1       9.690   4.918   6.403  0.00  0.00    +0.020 A 
ATOM     30  C   UNL     1       9.905   4.908   7.772  0.00  0.00    +0.111 A 
ENDBRANCH  21  23
ENDBRANCH   5  21
ENDBRANCH  15  19
ENDBRANCH  10  15
TORSDOF 10
ENDMDL
MODEL 10
REMARK VINA RESULT:      -6.0     24.383     26.607
REMARK  Name = 38028562
REMARK  13 active torsions:
REMARK  status: ('A' for Active; 'I' for Inactive)
REMARK    1  A    between atoms: O_3  and  C_22
REMARK    2  A    between atoms: O_3  and  C_26
REMARK    3  A    between atoms: N_4  and  C_14
REMARK    4  A    between atoms: N_5  and  C_21
REMARK    5  A    between atoms: C_7  and  C_11
REMARK    6  A    between atoms: C_8  and  C_14
REMARK    7  A    between atoms: C_10  and  C_15
REMARK    8  A    between atoms: C_11  and  C_16
REMARK    9  A    between atoms: C_11  and  C_17
REMARK   10  A    between atoms: C_12  and  C_18
REMARK   11  A    between atoms: C_15  and  C_19
REMARK   12  A    between atoms: C_20  and  C_22
REMARK   13  A    between atoms: C_21  and  C_23
REMARK                            x       y       z     vdW  Elec       q    Type
REMARK                         _______ _______ _______ _____ _____    ______ ____
ROOT
ATOM      7  C   UNL     1       9.881   6.707   4.975  0.00  0.00    +0.000 C 
ATOM      8  C   UNL     1      10.407   6.278   3.582  0.00  0.00    +0.032 C 
ATOM      9  C   UNL     1       8.393   7.083   4.894  0.00  0.00    +0.012 C 
ATOM     10  C   UNL     1       8.136   8.231   3.900  0.00  0.00    +0.023 C 
ATOM     12  C   UNL     1       8.850   8.007   2.583  0.00  0.00    -0.073 C 
ATOM     13  C   UNL     1       9.854   7.121   2.457  0.00  0.00    -0.022 C 
ATOM     18  C   UNL     1       8.354   8.793   1.401  0.00  0.00    +0.039 C 
ENDROOT
BRANCH   7  11
ATOM     11  C   UNL     1      10.081   5.606   6.022  0.00  0.00    -0.013 C 
ATOM     16  C   UNL     1       9.280   5.919   7.281  0.00  0.00    +0.007 C 
ATOM     17  C   UNL     1       9.683   4.249   5.450  0.00  0.00    +0.007 C 
ENDBRANCH   7  11
BRANCH   8  14
ATOM     14  C   UNL     1      11.939   6.309   3.537  0.00  0.00    +0.112 C 
BRANCH  14   4
ATOM      2  O   UNL     1      13.754   6.379   1.285  0.00  0.00    -0.272 OA
ATOM      4  N   UNL     1      12.449   5.192   2.804  0.00  0.00    -0.312 N 
ATOM     20  C   UNL     1      13.324   5.317   1.725  0.00  0.00    +0.251 C 
ATOM     34  H   UNL     1      12.209   4.262   3.131  0.00  0.00    +0.149 HD
BRANCH  20  22
ATOM     22  C   UNL     1      13.702   3.974   1.138  0.00  0.00    +0.324 C 
BRANCH  22   3
ATOM      3  O   UNL     1      12.633   3.442   0.383  0.00  0.00    -0.483 OA
BRANCH   3  26
ATOM     26  C   UNL     1      12.785   3.409  -0.983  0.00  0.00    +0.121 A 
ATOM     28  C   UNL     1      12.057   2.493  -1.743  0.00  0.00    +0.045 A 
ATOM     29  C   UNL     1      13.666   4.290  -1.608  0.00  0.00    +0.045 A 
ATOM     31  C   UNL     1      12.211   2.459  -3.129  0.00  0.00    +0.004 A 
ATOM     32  C   UNL     1      13.820   4.256  -2.993  0.00  0.00    +0.004 A 
ATOM     33  C   UNL     1      13.093   3.341  -3.755  0.00  0.00    +0.000 A 
ENDBRANCH   3  26
ENDBRANCH  22   3
ENDBRANCH  20  22
ENDBRANCH  14   4
ENDBRANCH   8  14
BRANCH  10  15
ATOM     15  C   UNL     1       8.520   9.585   4.509  0.00  0.00    +0.103 C 
BRANCH  15  19
ATOM      1  O   UNL     1       7.646  11.830   4.294  0.00  0.00    -0.276 OA
ATOM      5  N   UNL     1       6.191  10.021   4.196  0.00  0.00    -0.311 N 
ATOM     19  C   UNL     1       7.434  10.621   4.324  0.00  0.00    +0.214 C 
ATOM     35  H   UNL     1       6.116   9.008   4.229  0.00  0.00    +0.149 HD
BRANCH   5  21
ATOM     21  C   UNL     1       4.969  10.770   4.009  0.00  0.00    +0.141 C 
BRANCH  21  23
ATOM      6  N   UNL     1       2.560  10.936   1.098  0.00  0.00    -0.263 NA
ATOM     23  C   UNL     1       4.366  10.531   2.655  0.00  0.00    -0.012 A 
ATOM     24  C   UNL     1       4.999   9.719   1.721  0.00  0.00    +0.008 A 
ATOM     25  C   UNL     1       3.158  11.111   2.298  0.00  0.00    +0.115 A 
ATOM     27  C   UNL     1       4.415   9.515   0.475  0.00  0.00    +0.020 A 
ATOM     30  C   UNL     1       3.205  10.140   0.216  0.00  0.00    +0.111 A 
ENDBRANCH  21  23
ENDBRANCH   5  21
ENDBRANCH  15  19
ENDBRANCH  10  15
TORSDOF 10
ENDMDL
