MODEL 1
REMARK VINA RESULT:      -6.6      0.000      0.000
REMARK  Name = 45783545
REMARK  10 active torsions:
REMARK  status: ('A' for Active; 'I' for Inactive)
REMARK    1  A    between atoms: O_2  and  C_27
REMARK    2  A    between atoms: O_2  and  C_28
REMARK    3  A    between atoms: O_3  and  C_29
REMARK    4  A    between atoms: O_3  and  C_30
REMARK    5  A    between atoms: N_4  and  C_13
REMARK    6  A    between atoms: C_9  and  C_14
REMARK    7  A    between atoms: C_13  and  C_15
REMARK    8  A    between atoms: C_18  and  C_21
REMARK    9  A    between atoms: C_19  and  C_25
REMARK   10  A    between atoms: C_28  and  C_29
REMARK                            x       y       z     vdW  Elec       q    Type
REMARK                         _______ _______ _______ _____ _____    ______ ____
ROOT
ATOM      1  O   UNL     1      15.161   8.384  20.013  0.00  0.00    -0.336 OA
ATOM      5  N   UNL     1      16.146   6.608  19.068  0.00  0.00    -0.190 NA
ATOM      6  N   UNL     1      16.357   8.183  20.715  0.00  0.00    -0.056 NA
ATOM     14  C   UNL     1      15.115   7.415  19.062  0.00  0.00    +0.245 A 
ATOM     18  C   UNL     1      16.880   7.118  20.099  0.00  0.00    +0.204 A 
ENDROOT
BRANCH  18  21
ATOM      7  N   UNL     1      19.839   4.866  20.126  0.00  0.00    -0.221 NA
ATOM     21  C   UNL     1      18.133   6.540  20.490  0.00  0.00    +0.041 A 
ATOM     23  C   UNL     1      18.852   7.049  21.565  0.00  0.00    +0.018 A 
ATOM     24  C   UNL     1      18.665   5.457  19.809  0.00  0.00    +0.126 A 
ATOM     26  C   UNL     1      20.064   6.468  21.923  0.00  0.00    +0.068 A 
ATOM     27  C   UNL     1      20.510   5.388  21.177  0.00  0.00    +0.215 A 
BRANCH  27   2
ATOM      2  O   UNL     1      21.700   4.798  21.509  0.00  0.00    -0.474 OA
BRANCH   2  28
ATOM     28  C   UNL     1      21.779   3.385  21.355  0.00  0.00    +0.258 C 
BRANCH  28  29
ATOM     29  C   UNL     1      23.238   2.976  21.288  0.00  0.00    +0.200 C 
BRANCH  29   3
ATOM      3  O   UNL     1      24.019   4.100  20.898  0.00  0.00    -0.380 OA
ATOM     30  C   UNL     1      24.695   3.864  19.672  0.00  0.00    +0.194 C 
ENDBRANCH  29   3
ENDBRANCH  28  29
ENDBRANCH   2  28
ENDBRANCH  27   2
ENDBRANCH  18  21
BRANCH  14   9
ATOM      4  N   UNL     1      12.814   8.275  18.665  0.00  0.00    -0.287 NA
ATOM      9  C   UNL     1      13.902   7.416  18.156  0.00  0.00    +0.146 C 
ATOM     10  C   UNL     1      14.209   7.966  16.751  0.00  0.00    +0.030 C 
ATOM     11  C   UNL     1      13.206   9.090  16.535  0.00  0.00    +0.017 C 
ATOM     12  C   UNL     1      12.081   8.753  17.493  0.00  0.00    +0.085 C 
BRANCH   4  13
ATOM     13  C   UNL     1      11.944   7.597  19.617  0.00  0.00    +0.120 C 
BRANCH  13  15
ATOM     15  C   UNL     1      11.560   8.495  20.764  0.00  0.00    -0.032 A 
ATOM     16  C   UNL     1      11.845   9.859  20.710  0.00  0.00    +0.023 A 
ATOM     17  C   UNL     1      10.918   7.961  21.881  0.00  0.00    +0.005 A 
ATOM     19  C   UNL     1      11.489  10.689  21.772  0.00  0.00    +0.052 A 
ATOM     20  C   UNL     1      10.560   8.790  22.944  0.00  0.00    +0.002 A 
ATOM     22  C   UNL     1      10.846  10.155  22.889  0.00  0.00    +0.019 A 
BRANCH  19  25
ATOM      8  N   UNL     1      12.015  13.222  21.672  0.00  0.00    -0.191 NA
ATOM     25  C   UNL     1      11.779  12.088  21.717  0.00  0.00    +0.099 C 
ENDBRANCH  19  25
ENDBRANCH  13  15
ENDBRANCH   4  13
ENDBRANCH  14   9
TORSDOF 9
ENDMDL
MODEL 2
REMARK VINA RESULT:      -6.6      2.061      2.667
REMARK  Name = 45783545
REMARK  10 active torsions:
REMARK  status: ('A' for Active; 'I' for Inactive)
REMARK    1  A    between atoms: O_2  and  C_27
REMARK    2  A    between atoms: O_2  and  C_28
REMARK    3  A    between atoms: O_3  and  C_29
REMARK    4  A    between atoms: O_3  and  C_30
REMARK    5  A    between atoms: N_4  and  C_13
REMARK    6  A    between atoms: C_9  and  C_14
REMARK    7  A    between atoms: C_13  and  C_15
REMARK    8  A    between atoms: C_18  and  C_21
REMARK    9  A    between atoms: C_19  and  C_25
REMARK   10  A    between atoms: C_28  and  C_29
REMARK                            x       y       z     vdW  Elec       q    Type
REMARK                         _______ _______ _______ _____ _____    ______ ____
ROOT
ATOM      1  O   UNL     1      13.927   6.677  19.948  0.00  0.00    -0.336 OA
ATOM      5  N   UNL     1      15.726   7.457  18.866  0.00  0.00    -0.190 NA
ATOM      6  N   UNL     1      15.020   6.445  20.793  0.00  0.00    -0.056 NA
ATOM     14  C   UNL     1      14.430   7.275  18.837  0.00  0.00    +0.245 A 
ATOM     18  C   UNL     1      16.043   6.932  20.085  0.00  0.00    +0.204 A 
ENDROOT
BRANCH  18  21
ATOM      7  N   UNL     1      19.079   7.823  22.038  0.00  0.00    -0.221 NA
ATOM     21  C   UNL     1      17.394   6.908  20.567  0.00  0.00    +0.041 A 
ATOM     23  C   UNL     1      18.315   5.994  20.069  0.00  0.00    +0.018 A 
ATOM     24  C   UNL     1      17.822   7.794  21.542  0.00  0.00    +0.126 A 
ATOM     26  C   UNL     1      19.619   5.994  20.553  0.00  0.00    +0.068 A 
ATOM     27  C   UNL     1      19.947   6.920  21.530  0.00  0.00    +0.215 A 
BRANCH  27   2
ATOM      2  O   UNL     1      21.225   6.941  22.023  0.00  0.00    -0.474 OA
BRANCH   2  28
ATOM     28  C   UNL     1      21.450   7.735  23.183  0.00  0.00    +0.258 C 
BRANCH  28  29
ATOM     29  C   UNL     1      21.854   6.829  24.331  0.00  0.00    +0.200 C 
BRANCH  29   3
ATOM      3  O   UNL     1      20.687   6.433  25.043  0.00  0.00    -0.380 OA
ATOM     30  C   UNL     1      20.274   7.433  25.962  0.00  0.00    +0.194 C 
ENDBRANCH  29   3
ENDBRANCH  28  29
ENDBRANCH   2  28
ENDBRANCH  27   2
ENDBRANCH  18  21
BRANCH  14   9
ATOM      4  N   UNL     1      12.604   8.803  18.112  0.00  0.00    -0.287 NA
ATOM      9  C   UNL     1      13.434   7.635  17.754  0.00  0.00    +0.146 C 
ATOM     10  C   UNL     1      14.113   8.030  16.429  0.00  0.00    +0.030 C 
ATOM     11  C   UNL     1      13.557   9.406  16.091  0.00  0.00    +0.017 C 
ATOM     12  C   UNL     1      12.249   9.459  16.854  0.00  0.00    +0.085 C 
BRANCH   4  13
ATOM     13  C   UNL     1      11.429   8.452  18.899  0.00  0.00    +0.120 C 
BRANCH  13  15
ATOM     15  C   UNL     1      11.461   9.082  20.266  0.00  0.00    -0.032 A 
ATOM     16  C   UNL     1      12.206  10.240  20.485  0.00  0.00    +0.023 A 
ATOM     17  C   UNL     1      10.743   8.507  21.315  0.00  0.00    +0.005 A 
ATOM     19  C   UNL     1      12.235  10.823  21.752  0.00  0.00    +0.052 A 
ATOM     20  C   UNL     1      10.770   9.089  22.582  0.00  0.00    +0.002 A 
ATOM     22  C   UNL     1      11.517  10.248  22.800  0.00  0.00    +0.019 A 
BRANCH  19  25
ATOM      8  N   UNL     1      13.617  12.974  22.160  0.00  0.00    -0.191 NA
ATOM     25  C   UNL     1      12.998  12.010  21.977  0.00  0.00    +0.099 C 
ENDBRANCH  19  25
ENDBRANCH  13  15
ENDBRANCH   4  13
ENDBRANCH  14   9
TORSDOF 9
ENDMDL
MODEL 3
REMARK VINA RESULT:      -6.5      1.927      4.029
REMARK  Name = 45783545
REMARK  10 active torsions:
REMARK  status: ('A' for Active; 'I' for Inactive)
REMARK    1  A    between atoms: O_2  and  C_27
REMARK    2  A    between atoms: O_2  and  C_28
REMARK    3  A    between atoms: O_3  and  C_29
REMARK    4  A    between atoms: O_3  and  C_30
REMARK    5  A    between atoms: N_4  and  C_13
REMARK    6  A    between atoms: C_9  and  C_14
REMARK    7  A    between atoms: C_13  and  C_15
REMARK    8  A    between atoms: C_18  and  C_21
REMARK    9  A    between atoms: C_19  and  C_25
REMARK   10  A    between atoms: C_28  and  C_29
REMARK                            x       y       z     vdW  Elec       q    Type
REMARK                         _______ _______ _______ _____ _____    ______ ____
ROOT
ATOM      1  O   UNL     1      14.301   6.814  19.960  0.00  0.00    -0.336 OA
ATOM      5  N   UNL     1      15.555   7.731  21.574  0.00  0.00    -0.190 NA
ATOM      6  N   UNL     1      15.623   6.443  19.684  0.00  0.00    -0.056 NA
ATOM     14  C   UNL     1      14.350   7.570  21.087  0.00  0.00    +0.245 A 
ATOM     18  C   UNL     1      16.302   7.022  20.679  0.00  0.00    +0.204 A 
ENDROOT
BRANCH  18  21
ATOM      7  N   UNL     1      19.790   7.768  21.731  0.00  0.00    -0.221 NA
ATOM     21  C   UNL     1      17.727   6.912  20.807  0.00  0.00    +0.041 A 
ATOM     23  C   UNL     1      18.426   5.895  20.168  0.00  0.00    +0.018 A 
ATOM     24  C   UNL     1      18.448   7.816  21.569  0.00  0.00    +0.126 A 
ATOM     26  C   UNL     1      19.808   5.813  20.309  0.00  0.00    +0.068 A 
ATOM     27  C   UNL     1      20.436   6.766  21.095  0.00  0.00    +0.215 A 
BRANCH  27   2
ATOM      2  O   UNL     1      21.796   6.708  21.249  0.00  0.00    -0.474 OA
BRANCH   2  28
ATOM     28  C   UNL     1      22.488   5.742  20.466  0.00  0.00    +0.258 C 
BRANCH  28  29
ATOM     29  C   UNL     1      23.365   4.903  21.376  0.00  0.00    +0.200 C 
BRANCH  29   3
ATOM      3  O   UNL     1      22.675   4.669  22.599  0.00  0.00    -0.380 OA
ATOM     30  C   UNL     1      22.251   3.318  22.706  0.00  0.00    +0.194 C 
ENDBRANCH  29   3
ENDBRANCH  28  29
ENDBRANCH   2  28
ENDBRANCH  27   2
ENDBRANCH  18  21
BRANCH  14   9
ATOM      4  N   UNL     1      12.318   8.921  20.600  0.00  0.00    -0.287 NA
ATOM      9  C   UNL     1      13.028   8.101  21.602  0.00  0.00    +0.146 C 
ATOM     10  C   UNL     1      12.036   6.979  21.962  0.00  0.00    +0.030 C 
ATOM     11  C   UNL     1      10.779   7.287  21.162  0.00  0.00    +0.017 C 
ATOM     12  C   UNL     1      10.890   8.771  20.880  0.00  0.00    +0.085 C 
BRANCH   4  13
ATOM     13  C   UNL     1      12.733  10.318  20.602  0.00  0.00    +0.120 C 
BRANCH  13  15
ATOM     15  C   UNL     1      13.248  10.751  19.255  0.00  0.00    -0.032 A 
ATOM     16  C   UNL     1      13.342   9.829  18.212  0.00  0.00    +0.023 A 
ATOM     17  C   UNL     1      13.629  12.077  19.048  0.00  0.00    +0.005 A 
ATOM     19  C   UNL     1      13.818  10.232  16.964  0.00  0.00    +0.052 A 
ATOM     20  C   UNL     1      14.104  12.481  17.801  0.00  0.00    +0.002 A 
ATOM     22  C   UNL     1      14.199  11.558  16.759  0.00  0.00    +0.019 A 
BRANCH  19  25
ATOM      8  N   UNL     1      13.992   8.522  15.029  0.00  0.00    -0.191 NA
ATOM     25  C   UNL     1      13.914   9.288  15.896  0.00  0.00    +0.099 C 
ENDBRANCH  19  25
ENDBRANCH  13  15
ENDBRANCH   4  13
ENDBRANCH  14   9
TORSDOF 9
ENDMDL
MODEL 4
REMARK VINA RESULT:      -6.4     26.470     30.171
REMARK  Name = 45783545
REMARK  10 active torsions:
REMARK  status: ('A' for Active; 'I' for Inactive)
REMARK    1  A    between atoms: O_2  and  C_27
REMARK    2  A    between atoms: O_2  and  C_28
REMARK    3  A    between atoms: O_3  and  C_29
REMARK    4  A    between atoms: O_3  and  C_30
REMARK    5  A    between atoms: N_4  and  C_13
REMARK    6  A    between atoms: C_9  and  C_14
REMARK    7  A    between atoms: C_13  and  C_15
REMARK    8  A    between atoms: C_18  and  C_21
REMARK    9  A    between atoms: C_19  and  C_25
REMARK   10  A    between atoms: C_28  and  C_29
REMARK                            x       y       z     vdW  Elec       q    Type
REMARK                         _______ _______ _______ _____ _____    ______ ____
ROOT
ATOM      1  O   UNL     1      -4.885 -11.092  17.368  0.00  0.00    -0.336 OA
ATOM      5  N   UNL     1      -5.648 -10.116  15.501  0.00  0.00    -0.190 NA
ATOM      6  N   UNL     1      -6.165 -10.611  17.674  0.00  0.00    -0.056 NA
ATOM     14  C   UNL     1      -4.659 -10.759  16.070  0.00  0.00    +0.245 A 
ATOM     18  C   UNL     1      -6.548 -10.050  16.524  0.00  0.00    +0.204 A 
ENDROOT
BRANCH  18  21
ATOM      7  N   UNL     1      -9.686  -8.850  14.930  0.00  0.00    -0.221 NA
ATOM     21  C   UNL     1      -7.824  -9.412  16.364  0.00  0.00    +0.041 A 
ATOM     23  C   UNL     1      -8.434  -8.757  17.427  0.00  0.00    +0.018 A 
ATOM     24  C   UNL     1      -8.484  -9.430  15.147  0.00  0.00    +0.126 A 
ATOM     26  C   UNL     1      -9.671  -8.147  17.243  0.00  0.00    +0.068 A 
ATOM     27  C   UNL     1     -10.249  -8.222  15.986  0.00  0.00    +0.215 A 
BRANCH  27   2
ATOM      2  O   UNL     1     -11.467  -7.628  15.779  0.00  0.00    -0.474 OA
BRANCH   2  28
ATOM     28  C   UNL     1     -11.480  -6.208  15.692  0.00  0.00    +0.258 C 
BRANCH  28  29
ATOM     29  C   UNL     1     -11.891  -5.802  14.289  0.00  0.00    +0.200 C 
BRANCH  29   3
ATOM      3  O   UNL     1     -13.173  -5.187  14.341  0.00  0.00    -0.380 OA
ATOM     30  C   UNL     1     -14.214  -6.139  14.177  0.00  0.00    +0.194 C 
ENDBRANCH  29   3
ENDBRANCH  28  29
ENDBRANCH   2  28
ENDBRANCH  27   2
ENDBRANCH  18  21
BRANCH  14   9
ATOM      4  N   UNL     1      -3.061 -10.562  14.172  0.00  0.00    -0.287 NA
ATOM      9  C   UNL     1      -3.323 -11.174  15.490  0.00  0.00    +0.146 C 
ATOM     10  C   UNL     1      -2.133 -10.739  16.366  0.00  0.00    +0.030 C 
ATOM     11  C   UNL     1      -1.228  -9.940  15.440  0.00  0.00    +0.017 C 
ATOM     12  C   UNL     1      -1.609 -10.431  14.058  0.00  0.00    +0.085 C 
BRANCH   4  13
ATOM     13  C   UNL     1      -3.633 -11.317  13.064  0.00  0.00    +0.120 C 
BRANCH  13  15
ATOM     15  C   UNL     1      -3.958 -10.431  11.891  0.00  0.00    -0.032 A 
ATOM     16  C   UNL     1      -5.283 -10.088  11.619  0.00  0.00    +0.023 A 
ATOM     17  C   UNL     1      -2.933  -9.951  11.075  0.00  0.00    +0.005 A 
ATOM     19  C   UNL     1      -5.583  -9.268  10.532  0.00  0.00    +0.052 A 
ATOM     20  C   UNL     1      -3.232  -9.129   9.989  0.00  0.00    +0.002 A 
ATOM     22  C   UNL     1      -4.557  -8.788   9.717  0.00  0.00    +0.019 A 
BRANCH  19  25
ATOM      8  N   UNL     1      -8.041  -8.629  10.029  0.00  0.00    -0.191 NA
ATOM     25  C   UNL     1      -6.940  -8.916  10.254  0.00  0.00    +0.099 C 
ENDBRANCH  19  25
ENDBRANCH  13  15
ENDBRANCH   4  13
ENDBRANCH  14   9
TORSDOF 9
ENDMDL
MODEL 5
REMARK VINA RESULT:      -6.3      2.734     11.044
REMARK  Name = 45783545
REMARK  10 active torsions:
REMARK  status: ('A' for Active; 'I' for Inactive)
REMARK    1  A    between atoms: O_2  and  C_27
REMARK    2  A    between atoms: O_2  and  C_28
REMARK    3  A    between atoms: O_3  and  C_29
REMARK    4  A    between atoms: O_3  and  C_30
REMARK    5  A    between atoms: N_4  and  C_13
REMARK    6  A    between atoms: C_9  and  C_14
REMARK    7  A    between atoms: C_13  and  C_15
REMARK    8  A    between atoms: C_18  and  C_21
REMARK    9  A    between atoms: C_19  and  C_25
REMARK   10  A    between atoms: C_28  and  C_29
REMARK                            x       y       z     vdW  Elec       q    Type
REMARK                         _______ _______ _______ _____ _____    ______ ____
ROOT
ATOM      1  O   UNL     1      21.542   5.175  20.441  0.00  0.00    -0.336 OA
ATOM      5  N   UNL     1      20.365   7.017  20.931  0.00  0.00    -0.190 NA
ATOM      6  N   UNL     1      20.209   4.881  20.125  0.00  0.00    -0.056 NA
ATOM     14  C   UNL     1      21.545   6.451  20.909  0.00  0.00    +0.245 A 
ATOM     18  C   UNL     1      19.578   6.016  20.441  0.00  0.00    +0.204 A 
ENDROOT
BRANCH  18  21
ATOM      7  N   UNL     1      16.203   5.973  18.879  0.00  0.00    -0.221 NA
ATOM     21  C   UNL     1      18.161   6.181  20.281  0.00  0.00    +0.041 A 
ATOM     23  C   UNL     1      17.379   6.684  21.313  0.00  0.00    +0.018 A 
ATOM     24  C   UNL     1      17.532   5.843  19.095  0.00  0.00    +0.126 A 
ATOM     26  C   UNL     1      16.008   6.835  21.129  0.00  0.00    +0.068 A 
ATOM     27  C   UNL     1      15.474   6.467  19.904  0.00  0.00    +0.215 A 
BRANCH  27   2
ATOM      2  O   UNL     1      14.127   6.605  19.698  0.00  0.00    -0.474 OA
BRANCH   2  28
ATOM     28  C   UNL     1      13.404   7.351  20.671  0.00  0.00    +0.258 C 
BRANCH  28  29
ATOM     29  C   UNL     1      12.156   7.924  20.028  0.00  0.00    +0.200 C 
BRANCH  29   3
ATOM      3  O   UNL     1      11.998   7.355  18.733  0.00  0.00    -0.380 OA
ATOM     30  C   UNL     1      11.796   8.356  17.746  0.00  0.00    +0.194 C 
ENDBRANCH  29   3
ENDBRANCH  28  29
ENDBRANCH   2  28
ENDBRANCH  27   2
ENDBRANCH  18  21
BRANCH  14   9
ATOM      4  N   UNL     1      23.959   5.996  21.311  0.00  0.00    -0.287 NA
ATOM      9  C   UNL     1      22.888   7.014  21.325  0.00  0.00    +0.146 C 
ATOM     10  C   UNL     1      23.388   8.120  20.377  0.00  0.00    +0.030 C 
ATOM     11  C   UNL     1      24.770   7.666  19.929  0.00  0.00    +0.017 C 
ATOM     12  C   UNL     1      25.203   6.710  21.021  0.00  0.00    +0.085 C 
BRANCH   4  13
ATOM     13  C   UNL     1      24.040   5.231  22.548  0.00  0.00    +0.120 C 
BRANCH  13  15
ATOM     15  C   UNL     1      24.139   3.752  22.286  0.00  0.00    -0.032 A 
ATOM     16  C   UNL     1      24.029   2.845  23.341  0.00  0.00    +0.023 A 
ATOM     17  C   UNL     1      24.340   3.286  20.986  0.00  0.00    +0.005 A 
ATOM     19  C   UNL     1      24.121   1.475  23.097  0.00  0.00    +0.052 A 
ATOM     20  C   UNL     1      24.431   1.916  20.741  0.00  0.00    +0.002 A 
ATOM     22  C   UNL     1      24.322   1.011  21.797  0.00  0.00    +0.019 A 
BRANCH  19  25
ATOM      8  N   UNL     1      23.915  -0.207  25.054  0.00  0.00    -0.191 NA
ATOM     25  C   UNL     1      24.008   0.547  24.178  0.00  0.00    +0.099 C 
ENDBRANCH  19  25
ENDBRANCH  13  15
ENDBRANCH   4  13
ENDBRANCH  14   9
TORSDOF 9
ENDMDL
MODEL 6
REMARK VINA RESULT:      -6.2      1.623      2.336
REMARK  Name = 45783545
REMARK  10 active torsions:
REMARK  status: ('A' for Active; 'I' for Inactive)
REMARK    1  A    between atoms: O_2  and  C_27
REMARK    2  A    between atoms: O_2  and  C_28
REMARK    3  A    between atoms: O_3  and  C_29
REMARK    4  A    between atoms: O_3  and  C_30
REMARK    5  A    between atoms: N_4  and  C_13
REMARK    6  A    between atoms: C_9  and  C_14
REMARK    7  A    between atoms: C_13  and  C_15
REMARK    8  A    between atoms: C_18  and  C_21
REMARK    9  A    between atoms: C_19  and  C_25
REMARK   10  A    between atoms: C_28  and  C_29
REMARK                            x       y       z     vdW  Elec       q    Type
REMARK                         _______ _______ _______ _____ _____    ______ ____
ROOT
ATOM      1  O   UNL     1      15.056   8.858  19.860  0.00  0.00    -0.336 OA
ATOM      5  N   UNL     1      15.439   6.682  20.229  0.00  0.00    -0.190 NA
ATOM      6  N   UNL     1      16.433   8.739  20.091  0.00  0.00    -0.056 NA
ATOM     14  C   UNL     1      14.547   7.603  19.959  0.00  0.00    +0.245 A 
ATOM     18  C   UNL     1      16.579   7.427  20.300  0.00  0.00    +0.204 A 
ENDROOT
BRANCH  18  21
ATOM      7  N   UNL     1      19.852   6.777  21.942  0.00  0.00    -0.221 NA
ATOM     21  C   UNL     1      17.853   6.830  20.585  0.00  0.00    +0.041 A 
ATOM     23  C   UNL     1      18.329   5.765  19.829  0.00  0.00    +0.018 A 
ATOM     24  C   UNL     1      18.645   7.295  21.622  0.00  0.00    +0.126 A 
ATOM     26  C   UNL     1      19.567   5.206  20.127  0.00  0.00    +0.068 A 
ATOM     27  C   UNL     1      20.283   5.744  21.185  0.00  0.00    +0.215 A 
BRANCH  27   2
ATOM      2  O   UNL     1      21.505   5.211  21.499  0.00  0.00    -0.474 OA
BRANCH   2  28
ATOM     28  C   UNL     1      21.681   3.821  21.251  0.00  0.00    +0.258 C 
BRANCH  28  29
ATOM     29  C   UNL     1      22.699   3.268  22.229  0.00  0.00    +0.200 C 
BRANCH  29   3
ATOM      3  O   UNL     1      22.149   3.303  23.541  0.00  0.00    -0.380 OA
ATOM     30  C   UNL     1      23.154   3.142  24.531  0.00  0.00    +0.194 C 
ENDBRANCH  29   3
ENDBRANCH  28  29
ENDBRANCH   2  28
ENDBRANCH  27   2
ENDBRANCH  18  21
BRANCH  14   9
ATOM      4  N   UNL     1      12.303   8.652  20.189  0.00  0.00    -0.287 NA
ATOM      9  C   UNL     1      13.055   7.461  19.747  0.00  0.00    +0.146 C 
ATOM     10  C   UNL     1      12.679   7.291  18.263  0.00  0.00    +0.030 C 
ATOM     11  C   UNL     1      11.667   8.392  17.979  0.00  0.00    +0.017 C 
ATOM     12  C   UNL     1      11.108   8.723  19.347  0.00  0.00    +0.085 C 
BRANCH   4  13
ATOM     13  C   UNL     1      11.973   8.629  21.608  0.00  0.00    +0.120 C 
BRANCH  13  15
ATOM     15  C   UNL     1      12.344   9.919  22.291  0.00  0.00    -0.032 A 
ATOM     16  C   UNL     1      11.356  10.849  22.615  0.00  0.00    +0.023 A 
ATOM     17  C   UNL     1      13.678  10.184  22.601  0.00  0.00    +0.005 A 
ATOM     19  C   UNL     1      11.701  12.043  23.247  0.00  0.00    +0.052 A 
ATOM     20  C   UNL     1      14.024  11.378  23.235  0.00  0.00    +0.002 A 
ATOM     22  C   UNL     1      13.035  12.307  23.558  0.00  0.00    +0.019 A 
BRANCH  19  25
ATOM      8  N   UNL     1       9.867  13.768  23.850  0.00  0.00    -0.191 NA
ATOM     25  C   UNL     1      10.689  12.995  23.580  0.00  0.00    +0.099 C 
ENDBRANCH  19  25
ENDBRANCH  13  15
ENDBRANCH   4  13
ENDBRANCH  14   9
TORSDOF 9
ENDMDL
MODEL 7
REMARK VINA RESULT:      -6.1     14.410     17.186
REMARK  Name = 45783545
REMARK  10 active torsions:
REMARK  status: ('A' for Active; 'I' for Inactive)
REMARK    1  A    between atoms: O_2  and  C_27
REMARK    2  A    between atoms: O_2  and  C_28
REMARK    3  A    between atoms: O_3  and  C_29
REMARK    4  A    between atoms: O_3  and  C_30
REMARK    5  A    between atoms: N_4  and  C_13
REMARK    6  A    between atoms: C_9  and  C_14
REMARK    7  A    between atoms: C_13  and  C_15
REMARK    8  A    between atoms: C_18  and  C_21
REMARK    9  A    between atoms: C_19  and  C_25
REMARK   10  A    between atoms: C_28  and  C_29
REMARK                            x       y       z     vdW  Elec       q    Type
REMARK                         _______ _______ _______ _____ _____    ______ ____
ROOT
ATOM      1  O   UNL     1      12.987   6.579   7.183  0.00  0.00    -0.336 OA
ATOM      5  N   UNL     1      13.127   7.488   5.141  0.00  0.00    -0.190 NA
ATOM      6  N   UNL     1      14.336   6.906   6.994  0.00  0.00    -0.056 NA
ATOM     14  C   UNL     1      12.346   6.955   6.046  0.00  0.00    +0.245 A 
ATOM     18  C   UNL     1      14.337   7.437   5.767  0.00  0.00    +0.204 A 
ENDROOT
BRANCH  18  21
ATOM      7  N   UNL     1      16.867   8.151   3.136  0.00  0.00    -0.221 NA
ATOM     21  C   UNL     1      15.532   7.924   5.139  0.00  0.00    +0.041 A 
ATOM     23  C   UNL     1      16.492   8.615   5.867  0.00  0.00    +0.018 A 
ATOM     24  C   UNL     1      15.764   7.719   3.789  0.00  0.00    +0.126 A 
ATOM     26  C   UNL     1      17.642   9.075   5.231  0.00  0.00    +0.068 A 
ATOM     27  C   UNL     1      17.779   8.819   3.877  0.00  0.00    +0.215 A 
BRANCH  27   2
ATOM      2  O   UNL     1      18.902   9.261   3.228  0.00  0.00    -0.474 OA
BRANCH   2  28
ATOM     28  C   UNL     1      20.154   8.932   3.820  0.00  0.00    +0.258 C 
BRANCH  28  29
ATOM     29  C   UNL     1      20.591   7.566   3.327  0.00  0.00    +0.200 C 
BRANCH  29   3
ATOM      3  O   UNL     1      20.683   6.680   4.437  0.00  0.00    -0.380 OA
ATOM     30  C   UNL     1      21.099   7.361   5.612  0.00  0.00    +0.194 C 
ENDBRANCH  29   3
ENDBRANCH  28  29
ENDBRANCH   2  28
ENDBRANCH  27   2
ENDBRANCH  18  21
BRANCH  14   9
ATOM      4  N   UNL     1      10.468   5.764   4.929  0.00  0.00    -0.287 NA
ATOM      9  C   UNL     1      10.853   6.704   6.000  0.00  0.00    +0.146 C 
ATOM     10  C   UNL     1      10.317   6.063   7.294  0.00  0.00    +0.030 C 
ATOM     11  C   UNL     1       9.595   4.802   6.844  0.00  0.00    +0.017 C 
ATOM     12  C   UNL     1       9.260   5.081   5.393  0.00  0.00    +0.085 C 
BRANCH   4  13
ATOM     13  C   UNL     1      10.270   6.412   3.639  0.00  0.00    +0.120 C 
BRANCH  13  15
ATOM     15  C   UNL     1      10.824   5.589   2.507  0.00  0.00    -0.032 A 
ATOM     16  C   UNL     1      12.087   5.007   2.617  0.00  0.00    +0.023 A 
ATOM     17  C   UNL     1      10.072   5.406   1.346  0.00  0.00    +0.005 A 
ATOM     19  C   UNL     1      12.599   4.244   1.568  0.00  0.00    +0.052 A 
ATOM     20  C   UNL     1      10.582   4.642   0.296  0.00  0.00    +0.002 A 
ATOM     22  C   UNL     1      11.846   4.061   0.408  0.00  0.00    +0.019 A 
BRANCH  19  25
ATOM      8  N   UNL     1      14.942   3.163   1.773  0.00  0.00    -0.191 NA
ATOM     25  C   UNL     1      13.892   3.647   1.682  0.00  0.00    +0.099 C 
ENDBRANCH  19  25
ENDBRANCH  13  15
ENDBRANCH   4  13
ENDBRANCH  14   9
TORSDOF 9
ENDMDL
MODEL 8
REMARK VINA RESULT:      -6.1     15.947     19.647
REMARK  Name = 45783545
REMARK  10 active torsions:
REMARK  status: ('A' for Active; 'I' for Inactive)
REMARK    1  A    between atoms: O_2  and  C_27
REMARK    2  A    between atoms: O_2  and  C_28
REMARK    3  A    between atoms: O_3  and  C_29
REMARK    4  A    between atoms: O_3  and  C_30
REMARK    5  A    between atoms: N_4  and  C_13
REMARK    6  A    between atoms: C_9  and  C_14
REMARK    7  A    between atoms: C_13  and  C_15
REMARK    8  A    between atoms: C_18  and  C_21
REMARK    9  A    between atoms: C_19  and  C_25
REMARK   10  A    between atoms: C_28  and  C_29
REMARK                            x       y       z     vdW  Elec       q    Type
REMARK                         _______ _______ _______ _____ _____    ______ ____
ROOT
ATOM      1  O   UNL     1       9.961   4.550   5.492  0.00  0.00    -0.336 OA
ATOM      5  N   UNL     1      11.168   5.842   4.116  0.00  0.00    -0.190 NA
ATOM      6  N   UNL     1      10.135   3.810   4.315  0.00  0.00    -0.056 NA
ATOM     14  C   UNL     1      10.600   5.732   5.291  0.00  0.00    +0.245 A 
ATOM     18  C   UNL     1      10.855   4.639   3.554  0.00  0.00    +0.204 A 
ENDROOT
BRANCH  18  21
ATOM      7  N   UNL     1      10.725   4.024  -0.112  0.00  0.00    -0.221 NA
ATOM     21  C   UNL     1      11.278   4.296   2.226  0.00  0.00    +0.041 A 
ATOM     23  C   UNL     1      12.589   3.914   1.968  0.00  0.00    +0.018 A 
ATOM     24  C   UNL     1      10.392   4.335   1.161  0.00  0.00    +0.126 A 
ATOM     26  C   UNL     1      12.970   3.585   0.671  0.00  0.00    +0.068 A 
ATOM     27  C   UNL     1      12.008   3.657  -0.324  0.00  0.00    +0.215 A 
BRANCH  27   2
ATOM      2  O   UNL     1      12.358   3.338  -1.610  0.00  0.00    -0.474 OA
BRANCH   2  28
ATOM     28  C   UNL     1      11.589   3.932  -2.649  0.00  0.00    +0.258 C 
BRANCH  28  29
ATOM     29  C   UNL     1      10.884   2.839  -3.430  0.00  0.00    +0.200 C 
BRANCH  29   3
ATOM      3  O   UNL     1       9.477   2.999  -3.286  0.00  0.00    -0.380 OA
ATOM     30  C   UNL     1       9.054   4.287  -3.706  0.00  0.00    +0.194 C 
ENDBRANCH  29   3
ENDBRANCH  28  29
ENDBRANCH   2  28
ENDBRANCH  27   2
ENDBRANCH  18  21
BRANCH  14   9
ATOM      4  N   UNL     1       9.472   7.712   6.290  0.00  0.00    -0.287 NA
ATOM      9  C   UNL     1      10.560   6.724   6.434  0.00  0.00    +0.146 C 
ATOM     10  C   UNL     1      10.298   6.051   7.795  0.00  0.00    +0.030 C 
ATOM     11  C   UNL     1       9.084   6.768   8.367  0.00  0.00    +0.017 C 
ATOM     12  C   UNL     1       9.084   8.101   7.646  0.00  0.00    +0.085 C 
BRANCH   4  13
ATOM     13  C   UNL     1       9.845   8.861   5.475  0.00  0.00    +0.120 C 
BRANCH  13  15
ATOM     15  C   UNL     1       8.995   8.970   4.237  0.00  0.00    -0.032 A 
ATOM     16  C   UNL     1       7.705   9.495   4.318  0.00  0.00    +0.023 A 
ATOM     17  C   UNL     1       9.499   8.548   3.007  0.00  0.00    +0.005 A 
ATOM     19  C   UNL     1       6.919   9.596   3.171  0.00  0.00    +0.052 A 
ATOM     20  C   UNL     1       8.714   8.649   1.859  0.00  0.00    +0.002 A 
ATOM     22  C   UNL     1       7.424   9.173   1.941  0.00  0.00    +0.019 A 
BRANCH  19  25
ATOM      8  N   UNL     1       4.526  10.572   3.320  0.00  0.00    -0.191 NA
ATOM     25  C   UNL     1       5.598  10.135   3.253  0.00  0.00    +0.099 C 
ENDBRANCH  19  25
ENDBRANCH  13  15
ENDBRANCH   4  13
ENDBRANCH  14   9
TORSDOF 9
ENDMDL
MODEL 9
REMARK VINA RESULT:      -6.0     26.902     29.651
REMARK  Name = 45783545
REMARK  10 active torsions:
REMARK  status: ('A' for Active; 'I' for Inactive)
REMARK    1  A    between atoms: O_2  and  C_27
REMARK    2  A    between atoms: O_2  and  C_28
REMARK    3  A    between atoms: O_3  and  C_29
REMARK    4  A    between atoms: O_3  and  C_30
REMARK    5  A    between atoms: N_4  and  C_13
REMARK    6  A    between atoms: C_9  and  C_14
REMARK    7  A    between atoms: C_13  and  C_15
REMARK    8  A    between atoms: C_18  and  C_21
REMARK    9  A    between atoms: C_19  and  C_25
REMARK   10  A    between atoms: C_28  and  C_29
REMARK                            x       y       z     vdW  Elec       q    Type
REMARK                         _______ _______ _______ _____ _____    ______ ____
ROOT
ATOM      1  O   UNL     1      -7.613 -10.474  10.966  0.00  0.00    -0.336 OA
ATOM      5  N   UNL     1      -6.389  -9.049  12.188  0.00  0.00    -0.190 NA
ATOM      6  N   UNL     1      -7.829 -10.824  12.306  0.00  0.00    -0.056 NA
ATOM     14  C   UNL     1      -6.754  -9.421  10.987  0.00  0.00    +0.245 A 
ATOM     18  C   UNL     1      -7.074  -9.939  12.963  0.00  0.00    +0.204 A 
ENDROOT
BRANCH  18  21
ATOM      7  N   UNL     1      -8.100  -9.868  16.537  0.00  0.00    -0.221 NA
ATOM     21  C   UNL     1      -6.981  -9.918  14.395  0.00  0.00    +0.041 A 
ATOM     23  C   UNL     1      -5.745  -9.928  15.032  0.00  0.00    +0.018 A 
ATOM     24  C   UNL     1      -8.118  -9.888  15.185  0.00  0.00    +0.126 A 
ATOM     26  C   UNL     1      -5.685  -9.906  16.422  0.00  0.00    +0.068 A 
ATOM     27  C   UNL     1      -6.881  -9.877  17.121  0.00  0.00    +0.215 A 
BRANCH  27   2
ATOM      2  O   UNL     1      -6.848  -9.855  18.491  0.00  0.00    -0.474 OA
BRANCH   2  28
ATOM     28  C   UNL     1      -7.548 -10.895  19.165  0.00  0.00    +0.258 C 
BRANCH  28  29
ATOM     29  C   UNL     1      -6.578 -12.015  19.490  0.00  0.00    +0.200 C 
BRANCH  29   3
ATOM      3  O   UNL     1      -5.317 -11.451  19.833  0.00  0.00    -0.380 OA
ATOM     30  C   UNL     1      -4.254 -12.100  19.152  0.00  0.00    +0.194 C 
ENDBRANCH  29   3
ENDBRANCH  28  29
ENDBRANCH   2  28
ENDBRANCH  27   2
ENDBRANCH  18  21
BRANCH  14   9
ATOM      4  N   UNL     1      -5.457  -9.742   8.887  0.00  0.00    -0.287 NA
ATOM      9  C   UNL     1      -6.358  -8.848   9.642  0.00  0.00    +0.146 C 
ATOM     10  C   UNL     1      -7.564  -8.630   8.709  0.00  0.00    +0.030 C 
ATOM     11  C   UNL     1      -7.224  -9.389   7.435  0.00  0.00    +0.017 C 
ATOM     12  C   UNL     1      -5.712  -9.485   7.470  0.00  0.00    +0.085 C 
BRANCH   4  13
ATOM     13  C   UNL     1      -4.053  -9.567   9.233  0.00  0.00    +0.120 C 
BRANCH  13  15
ATOM     15  C   UNL     1      -3.613 -10.533  10.301  0.00  0.00    -0.032 A 
ATOM     16  C   UNL     1      -3.016 -10.060  11.470  0.00  0.00    +0.023 A 
ATOM     17  C   UNL     1      -3.805 -11.903  10.122  0.00  0.00    +0.005 A 
ATOM     19  C   UNL     1      -2.610 -10.956  12.458  0.00  0.00    +0.052 A 
ATOM     20  C   UNL     1      -3.400 -12.800  11.111  0.00  0.00    +0.002 A 
ATOM     22  C   UNL     1      -2.803 -12.326  12.279  0.00  0.00    +0.019 A 
BRANCH  19  25
ATOM      8  N   UNL     1      -1.504 -10.078  14.628  0.00  0.00    -0.191 NA
ATOM     25  C   UNL     1      -2.000 -10.471  13.656  0.00  0.00    +0.099 C 
ENDBRANCH  19  25
ENDBRANCH  13  15
ENDBRANCH   4  13
ENDBRANCH  14   9
TORSDOF 9
ENDMDL
MODEL 10
REMARK VINA RESULT:      -6.0     27.201     30.505
REMARK  Name = 45783545
REMARK  10 active torsions:
REMARK  status: ('A' for Active; 'I' for Inactive)
REMARK    1  A    between atoms: O_2  and  C_27
REMARK    2  A    between atoms: O_2  and  C_28
REMARK    3  A    between atoms: O_3  and  C_29
REMARK    4  A    between atoms: O_3  and  C_30
REMARK    5  A    between atoms: N_4  and  C_13
REMARK    6  A    between atoms: C_9  and  C_14
REMARK    7  A    between atoms: C_13  and  C_15
REMARK    8  A    between atoms: C_18  and  C_21
REMARK    9  A    between atoms: C_19  and  C_25
REMARK   10  A    between atoms: C_28  and  C_29
REMARK                            x       y       z     vdW  Elec       q    Type
REMARK                         _______ _______ _______ _____ _____    ______ ____
ROOT
ATOM      1  O   UNL     1      -5.190  -9.781  15.652  0.00  0.00    -0.336 OA
ATOM      5  N   UNL     1      -5.284 -11.593  16.965  0.00  0.00    -0.190 NA
ATOM      6  N   UNL     1      -6.406  -9.698  16.344  0.00  0.00    -0.056 NA
ATOM     14  C   UNL     1      -4.592 -10.925  16.076  0.00  0.00    +0.245 A 
ATOM     18  C   UNL     1      -6.387 -10.802  17.097  0.00  0.00    +0.204 A 
ENDROOT
BRANCH  18  21
ATOM      7  N   UNL     1      -8.275 -12.519  19.802  0.00  0.00    -0.221 NA
ATOM     21  C   UNL     1      -7.457 -11.144  17.990  0.00  0.00    +0.041 A 
ATOM     23  C   UNL     1      -8.675 -10.477  17.936  0.00  0.00    +0.018 A 
ATOM     24  C   UNL     1      -7.308 -12.148  18.932  0.00  0.00    +0.126 A 
ATOM     26  C   UNL     1      -9.695 -10.830  18.814  0.00  0.00    +0.068 A 
ATOM     27  C   UNL     1      -9.446 -11.848  19.720  0.00  0.00    +0.215 A 
BRANCH  27   2
ATOM      2  O   UNL     1     -10.434 -12.215  20.595  0.00  0.00    -0.474 OA
BRANCH   2  28
ATOM     28  C   UNL     1     -11.477 -13.033  20.076  0.00  0.00    +0.258 C 
BRANCH  28  29
ATOM     29  C   UNL     1     -11.660 -14.236  20.981  0.00  0.00    +0.200 C 
BRANCH  29   3
ATOM      3  O   UNL     1     -11.468 -13.833  22.333  0.00  0.00    -0.380 OA
ATOM     30  C   UNL     1     -10.727 -14.799  23.064  0.00  0.00    +0.194 C 
ENDBRANCH  29   3
ENDBRANCH  28  29
ENDBRANCH   2  28
ENDBRANCH  27   2
ENDBRANCH  18  21
BRANCH  14   9
ATOM      4  N   UNL     1      -3.036 -10.585  14.165  0.00  0.00    -0.287 NA
ATOM      9  C   UNL     1      -3.243 -11.246  15.469  0.00  0.00    +0.146 C 
ATOM     10  C   UNL     1      -2.068 -10.765  16.341  0.00  0.00    +0.030 C 
ATOM     11  C   UNL     1      -1.224  -9.891  15.426  0.00  0.00    +0.017 C 
ATOM     12  C   UNL     1      -1.595 -10.367  14.037  0.00  0.00    +0.085 C 
BRANCH   4  13
ATOM     13  C   UNL     1      -3.578 -11.343  13.045  0.00  0.00    +0.120 C 
BRANCH  13  15
ATOM     15  C   UNL     1      -3.944 -10.450  11.889  0.00  0.00    -0.032 A 
ATOM     16  C   UNL     1      -5.280 -10.124  11.653  0.00  0.00    +0.023 A 
ATOM     17  C   UNL     1      -2.947  -9.946  11.054  0.00  0.00    +0.005 A 
ATOM     19  C   UNL     1      -5.619  -9.297  10.582  0.00  0.00    +0.052 A 
ATOM     20  C   UNL     1      -3.284  -9.118   9.984  0.00  0.00    +0.002 A 
ATOM     22  C   UNL     1      -4.621  -8.793   9.748  0.00  0.00    +0.019 A 
BRANCH  19  25
ATOM      8  N   UNL     1      -8.097  -8.691  10.145  0.00  0.00    -0.191 NA
ATOM     25  C   UNL     1      -6.987  -8.963  10.341  0.00  0.00    +0.099 C 
ENDBRANCH  19  25
ENDBRANCH  13  15
ENDBRANCH   4  13
ENDBRANCH  14   9
TORSDOF 9
ENDMDL
