MODEL 1
REMARK VINA RESULT:      -7.3      0.000      0.000
REMARK  Name = 45361088
REMARK  7 active torsions:
REMARK  status: ('A' for Active; 'I' for Inactive)
REMARK    1  A    between atoms: N_4  and  C_17
REMARK    2  A    between atoms: N_5  and  C_16
REMARK    3  A    between atoms: C_12  and  C_15
REMARK    4  A    between atoms: C_15  and  C_18
REMARK    5  A    between atoms: C_16  and  C_19
REMARK    6  A    between atoms: C_18  and  C_20
REMARK    7  A    between atoms: C_27  and  C_30
REMARK                            x       y       z     vdW  Elec       q    Type
REMARK                         _______ _______ _______ _____ _____    ______ ____
ROOT
ATOM      1  O   UNL     1      14.401  10.165  22.410  0.00  0.00    -0.274 OA
ATOM      4  N   UNL     1      14.544   7.658  19.464  0.00  0.00    -0.296 NA
ATOM      5  N   UNL     1      12.001   9.337  21.490  0.00  0.00    -0.286 NA
ATOM      6  N   UNL     1      15.421   8.131  22.171  0.00  0.00    -0.312 N 
ATOM      8  C   UNL     1      13.196   7.779  20.063  0.00  0.00    +0.084 C 
ATOM      9  C   UNL     1      13.077   8.329  21.514  0.00  0.00    +0.161 C 
ATOM     10  C   UNL     1      12.250   8.714  19.288  0.00  0.00    +0.036 C 
ATOM     11  C   UNL     1      11.189   9.067  20.308  0.00  0.00    +0.087 C 
ATOM     12  C   UNL     1      15.441   6.690  20.156  0.00  0.00    +0.074 C 
ATOM     13  C   UNL     1      14.341   8.987  22.062  0.00  0.00    +0.232 C 
ATOM     14  C   UNL     1      15.408   6.762  21.695  0.00  0.00    +0.123 C 
ATOM     17  C   UNL     1      14.453   7.333  18.030  0.00  0.00    +0.105 C 
ATOM     31  H   UNL     1      16.269   8.486  22.602  0.00  0.00    +0.149 HD
ENDROOT
BRANCH  12  15
ATOM     15  C   UNL     1      16.904   6.900  19.713  0.00  0.00    +0.029 C 
BRANCH  15  18
ATOM     18  C   UNL     1      17.874   6.104  20.566  0.00  0.00    +0.097 C 
BRANCH  18  20
ATOM      2  O   UNL     1      18.675   8.100  21.563  0.00  0.00    -0.276 OA
ATOM      3  O   UNL     1      22.701   5.234  21.766  0.00  0.00    -0.377 OA
ATOM      7  N   UNL     1      20.257   6.466  21.095  0.00  0.00    -0.297 N 
ATOM     20  C   UNL     1      18.965   6.987  21.120  0.00  0.00    +0.216 C 
ATOM     23  C   UNL     1      21.373   7.254  21.618  0.00  0.00    +0.136 C 
ATOM     24  C   UNL     1      20.655   5.204  20.463  0.00  0.00    +0.136 C 
ATOM     28  C   UNL     1      22.270   6.389  22.492  0.00  0.00    +0.179 C 
ATOM     29  C   UNL     1      21.587   4.424  21.382  0.00  0.00    +0.179 C 
ENDBRANCH  18  20
ENDBRANCH  15  18
ENDBRANCH  12  15
BRANCH   5  16
ATOM     16  C   UNL     1      11.203   9.362  22.709  0.00  0.00    +0.120 C 
BRANCH  16  19
ATOM     19  C   UNL     1      11.067  10.755  23.262  0.00  0.00    -0.033 A 
ATOM     21  C   UNL     1      11.048  10.958  24.642  0.00  0.00    +0.005 A 
ATOM     22  C   UNL     1      10.956  11.842  22.396  0.00  0.00    +0.005 A 
ATOM     25  C   UNL     1      10.917  12.248  25.155  0.00  0.00    +0.003 A 
ATOM     26  C   UNL     1      10.826  13.132  22.909  0.00  0.00    +0.003 A 
ATOM     27  C   UNL     1      10.807  13.336  24.288  0.00  0.00    -0.050 A 
ATOM     30  C   UNL     1      10.668  14.716  24.837  0.00  0.00    +0.044 C 
ENDBRANCH  16  19
ENDBRANCH   5  16
TORSDOF 5
ENDMDL
MODEL 2
REMARK VINA RESULT:      -7.0      3.138     10.206
REMARK  Name = 45361088
REMARK  7 active torsions:
REMARK  status: ('A' for Active; 'I' for Inactive)
REMARK    1  A    between atoms: N_4  and  C_17
REMARK    2  A    between atoms: N_5  and  C_16
REMARK    3  A    between atoms: C_12  and  C_15
REMARK    4  A    between atoms: C_15  and  C_18
REMARK    5  A    between atoms: C_16  and  C_19
REMARK    6  A    between atoms: C_18  and  C_20
REMARK    7  A    between atoms: C_27  and  C_30
REMARK                            x       y       z     vdW  Elec       q    Type
REMARK                         _______ _______ _______ _____ _____    ______ ____
ROOT
ATOM      1  O   UNL     1      19.965   6.576  23.628  0.00  0.00    -0.274 OA
ATOM      4  N   UNL     1      17.488   7.118  20.703  0.00  0.00    -0.296 NA
ATOM      5  N   UNL     1      20.766   5.585  21.247  0.00  0.00    -0.286 NA
ATOM      6  N   UNL     1      19.011   8.462  22.751  0.00  0.00    -0.312 N 
ATOM      8  C   UNL     1      18.821   6.651  20.261  0.00  0.00    +0.084 C 
ATOM      9  C   UNL     1      20.034   6.865  21.212  0.00  0.00    +0.161 C 
ATOM     10  C   UNL     1      18.893   5.137  19.986  0.00  0.00    +0.036 C 
ATOM     11  C   UNL     1      20.374   4.836  20.058  0.00  0.00    +0.087 C 
ATOM     12  C   UNL     1      17.383   8.593  20.889  0.00  0.00    +0.074 C 
ATOM     13  C   UNL     1      19.673   7.253  22.644  0.00  0.00    +0.232 C 
ATOM     14  C   UNL     1      18.581   9.243  21.608  0.00  0.00    +0.123 C 
ATOM     17  C   UNL     1      16.437   6.644  19.787  0.00  0.00    +0.105 C 
ATOM     31  H   UNL     1      18.812   8.815  23.681  0.00  0.00    +0.149 HD
ENDROOT
BRANCH  12  15
ATOM     15  C   UNL     1      16.113   8.946  21.692  0.00  0.00    +0.029 C 
BRANCH  15  18
ATOM     18  C   UNL     1      15.392  10.148  21.113  0.00  0.00    +0.097 C 
BRANCH  18  20
ATOM      2  O   UNL     1      15.191  10.251  18.753  0.00  0.00    -0.276 OA
ATOM      3  O   UNL     1      11.844   6.782  19.859  0.00  0.00    -0.377 OA
ATOM      7  N   UNL     1      13.602   8.984  19.876  0.00  0.00    -0.297 N 
ATOM     20  C   UNL     1      14.726   9.805  19.804  0.00  0.00    +0.216 C 
ATOM     23  C   UNL     1      12.898   8.598  18.653  0.00  0.00    +0.136 C 
ATOM     24  C   UNL     1      12.950   8.541  21.112  0.00  0.00    +0.136 C 
ATOM     28  C   UNL     1      12.574   7.111  18.674  0.00  0.00    +0.179 C 
ATOM     29  C   UNL     1      12.616   7.057  21.031  0.00  0.00    +0.179 C 
ENDBRANCH  18  20
ENDBRANCH  15  18
ENDBRANCH  12  15
BRANCH   5  16
ATOM     16  C   UNL     1      22.211   5.748  21.342  0.00  0.00    +0.120 C 
BRANCH  16  19
ATOM     19  C   UNL     1      22.919   4.423  21.443  0.00  0.00    -0.033 A 
ATOM     21  C   UNL     1      23.853   4.057  20.474  0.00  0.00    +0.005 A 
ATOM     22  C   UNL     1      22.639   3.561  22.502  0.00  0.00    +0.005 A 
ATOM     25  C   UNL     1      24.507   2.829  20.565  0.00  0.00    +0.003 A 
ATOM     26  C   UNL     1      23.294   2.332  22.594  0.00  0.00    +0.003 A 
ATOM     27  C   UNL     1      24.227   1.966  21.625  0.00  0.00    -0.050 A 
ATOM     30  C   UNL     1      24.927   0.652  21.722  0.00  0.00    +0.044 C 
ENDBRANCH  16  19
ENDBRANCH   5  16
TORSDOF 5
ENDMDL
MODEL 3
REMARK VINA RESULT:      -7.0     27.696     31.492
REMARK  Name = 45361088
REMARK  7 active torsions:
REMARK  status: ('A' for Active; 'I' for Inactive)
REMARK    1  A    between atoms: N_4  and  C_17
REMARK    2  A    between atoms: N_5  and  C_16
REMARK    3  A    between atoms: C_12  and  C_15
REMARK    4  A    between atoms: C_15  and  C_18
REMARK    5  A    between atoms: C_16  and  C_19
REMARK    6  A    between atoms: C_18  and  C_20
REMARK    7  A    between atoms: C_27  and  C_30
REMARK                            x       y       z     vdW  Elec       q    Type
REMARK                         _______ _______ _______ _____ _____    ______ ____
ROOT
ATOM      1  O   UNL     1     -13.664   4.902  22.840  0.00  0.00    -0.274 OA
ATOM      4  N   UNL     1     -17.299   3.581  23.008  0.00  0.00    -0.296 NA
ATOM      5  N   UNL     1     -15.404   6.115  21.170  0.00  0.00    -0.286 NA
ATOM      6  N   UNL     1     -15.149   4.704  24.570  0.00  0.00    -0.312 N 
ATOM      8  C   UNL     1     -17.170   4.841  22.242  0.00  0.00    +0.084 C 
ATOM      9  C   UNL     1     -15.924   5.738  22.498  0.00  0.00    +0.161 C 
ATOM     10  C   UNL     1     -17.114   4.642  20.717  0.00  0.00    +0.036 C 
ATOM     11  C   UNL     1     -16.492   5.927  20.216  0.00  0.00    +0.087 C 
ATOM     12  C   UNL     1     -17.440   3.766  24.480  0.00  0.00    +0.074 C 
ATOM     13  C   UNL     1     -14.797   5.073  23.285  0.00  0.00    +0.232 C 
ATOM     14  C   UNL     1     -16.495   4.817  25.095  0.00  0.00    +0.123 C 
ATOM     17  C   UNL     1     -18.408   2.764  22.489  0.00  0.00    +0.105 C 
ATOM     31  H   UNL     1     -14.424   4.328  25.172  0.00  0.00    +0.149 HD
ENDROOT
BRANCH  12  15
ATOM     15  C   UNL     1     -17.193   2.433  25.217  0.00  0.00    +0.029 C 
BRANCH  15  18
ATOM     18  C   UNL     1     -17.418   2.562  26.712  0.00  0.00    +0.097 C 
BRANCH  18  20
ATOM      2  O   UNL     1     -16.878   0.270  26.992  0.00  0.00    -0.276 OA
ATOM      3  O   UNL     1     -14.224   2.339  30.616  0.00  0.00    -0.377 OA
ATOM      7  N   UNL     1     -16.147   1.720  28.652  0.00  0.00    -0.297 N 
ATOM     20  C   UNL     1     -16.794   1.408  27.458  0.00  0.00    +0.216 C 
ATOM     23  C   UNL     1     -15.511   0.661  29.436  0.00  0.00    +0.136 C 
ATOM     24  C   UNL     1     -16.138   3.036  29.298  0.00  0.00    +0.136 C 
ATOM     28  C   UNL     1     -14.131   1.103  29.903  0.00  0.00    +0.179 C 
ATOM     29  C   UNL     1     -14.733   3.379  29.777  0.00  0.00    +0.179 C 
ENDBRANCH  18  20
ENDBRANCH  15  18
ENDBRANCH  12  15
BRANCH   5  16
ATOM     16  C   UNL     1     -14.861   7.466  21.123  0.00  0.00    +0.120 C 
BRANCH  16  19
ATOM     19  C   UNL     1     -13.734   7.584  20.132  0.00  0.00    -0.033 A 
ATOM     21  C   UNL     1     -12.442   7.210  20.498  0.00  0.00    +0.005 A 
ATOM     22  C   UNL     1     -13.982   8.070  18.849  0.00  0.00    +0.005 A 
ATOM     25  C   UNL     1     -11.397   7.322  19.582  0.00  0.00    +0.003 A 
ATOM     26  C   UNL     1     -12.937   8.182  17.931  0.00  0.00    +0.003 A 
ATOM     27  C   UNL     1     -11.645   7.808  18.297  0.00  0.00    -0.050 A 
ATOM     30  C   UNL     1     -10.527   7.927  17.316  0.00  0.00    +0.044 C 
ENDBRANCH  16  19
ENDBRANCH   5  16
TORSDOF 5
ENDMDL
MODEL 4
REMARK VINA RESULT:      -6.9      3.350      8.362
REMARK  Name = 45361088
REMARK  7 active torsions:
REMARK  status: ('A' for Active; 'I' for Inactive)
REMARK    1  A    between atoms: N_4  and  C_17
REMARK    2  A    between atoms: N_5  and  C_16
REMARK    3  A    between atoms: C_12  and  C_15
REMARK    4  A    between atoms: C_15  and  C_18
REMARK    5  A    between atoms: C_16  and  C_19
REMARK    6  A    between atoms: C_18  and  C_20
REMARK    7  A    between atoms: C_27  and  C_30
REMARK                            x       y       z     vdW  Elec       q    Type
REMARK                         _______ _______ _______ _____ _____    ______ ____
ROOT
ATOM      1  O   UNL     1      10.891   8.236  19.741  0.00  0.00    -0.274 OA
ATOM      4  N   UNL     1      12.679  11.593  20.460  0.00  0.00    -0.296 NA
ATOM      5  N   UNL     1      13.563   8.220  19.350  0.00  0.00    -0.286 NA
ATOM      6  N   UNL     1      10.966   9.570  21.598  0.00  0.00    -0.312 N 
ATOM      8  C   UNL     1      13.614  10.459  20.286  0.00  0.00    +0.084 C 
ATOM      9  C   UNL     1      13.071   9.014  20.491  0.00  0.00    +0.161 C 
ATOM     10  C   UNL     1      14.235  10.371  18.880  0.00  0.00    +0.036 C 
ATOM     11  C   UNL     1      14.705   8.935  18.792  0.00  0.00    +0.087 C 
ATOM     12  C   UNL     1      12.137  11.739  21.840  0.00  0.00    +0.074 C 
ATOM     13  C   UNL     1      11.550   8.895  20.542  0.00  0.00    +0.232 C 
ATOM     14  C   UNL     1      11.705  10.421  22.510  0.00  0.00    +0.123 C 
ATOM     17  C   UNL     1      13.298  12.854  20.019  0.00  0.00    +0.105 C 
ATOM     31  H   UNL     1       9.966   9.466  21.735  0.00  0.00    +0.149 HD
ENDROOT
BRANCH  12  15
ATOM     15  C   UNL     1      10.916  12.683  21.843  0.00  0.00    +0.029 C 
BRANCH  15  18
ATOM     18  C   UNL     1      11.152  13.912  22.700  0.00  0.00    +0.097 C 
BRANCH  18  20
ATOM      2  O   UNL     1      10.358  13.095  24.779  0.00  0.00    -0.276 OA
ATOM      3  O   UNL     1      15.220  13.363  25.638  0.00  0.00    -0.377 OA
ATOM      7  N   UNL     1      12.591  13.727  24.696  0.00  0.00    -0.297 N 
ATOM     20  C   UNL     1      11.321  13.540  24.152  0.00  0.00    +0.216 C 
ATOM     23  C   UNL     1      12.843  13.387  26.097  0.00  0.00    +0.136 C 
ATOM     24  C   UNL     1      13.721  14.370  24.019  0.00  0.00    +0.136 C 
ATOM     28  C   UNL     1      14.151  12.620  26.228  0.00  0.00    +0.179 C 
ATOM     29  C   UNL     1      14.996  13.566  24.241  0.00  0.00    +0.179 C 
ENDBRANCH  18  20
ENDBRANCH  15  18
ENDBRANCH  12  15
BRANCH   5  16
ATOM     16  C   UNL     1      13.895   6.845  19.702  0.00  0.00    +0.120 C 
BRANCH  16  19
ATOM     19  C   UNL     1      15.370   6.668  19.942  0.00  0.00    -0.033 A 
ATOM     21  C   UNL     1      16.182   6.145  18.935  0.00  0.00    +0.005 A 
ATOM     22  C   UNL     1      15.925   7.025  21.170  0.00  0.00    +0.005 A 
ATOM     25  C   UNL     1      17.548   5.977  19.158  0.00  0.00    +0.003 A 
ATOM     26  C   UNL     1      17.292   6.859  21.393  0.00  0.00    +0.003 A 
ATOM     27  C   UNL     1      18.104   6.335  20.387  0.00  0.00    -0.050 A 
ATOM     30  C   UNL     1      19.566   6.156  20.625  0.00  0.00    +0.044 C 
ENDBRANCH  16  19
ENDBRANCH   5  16
TORSDOF 5
ENDMDL
MODEL 5
REMARK VINA RESULT:      -6.6     27.349     30.309
REMARK  Name = 45361088
REMARK  7 active torsions:
REMARK  status: ('A' for Active; 'I' for Inactive)
REMARK    1  A    between atoms: N_4  and  C_17
REMARK    2  A    between atoms: N_5  and  C_16
REMARK    3  A    between atoms: C_12  and  C_15
REMARK    4  A    between atoms: C_15  and  C_18
REMARK    5  A    between atoms: C_16  and  C_19
REMARK    6  A    between atoms: C_18  and  C_20
REMARK    7  A    between atoms: C_27  and  C_30
REMARK                            x       y       z     vdW  Elec       q    Type
REMARK                         _______ _______ _______ _____ _____    ______ ____
ROOT
ATOM      1  O   UNL     1      -1.244 -10.625  15.548  0.00  0.00    -0.274 OA
ATOM      4  N   UNL     1      -4.398 -12.710  16.378  0.00  0.00    -0.296 NA
ATOM      5  N   UNL     1      -2.173 -12.155  13.527  0.00  0.00    -0.286 NA
ATOM      6  N   UNL     1      -3.314 -10.037  16.324  0.00  0.00    -0.312 N 
ATOM      8  C   UNL     1      -4.080 -12.683  14.933  0.00  0.00    +0.084 C 
ATOM      9  C   UNL     1      -3.187 -11.527  14.393  0.00  0.00    +0.161 C 
ATOM     10  C   UNL     1      -3.325 -13.929  14.436  0.00  0.00    +0.036 C 
ATOM     11  C   UNL     1      -2.691 -13.465  13.143  0.00  0.00    +0.087 C 
ATOM     12  C   UNL     1      -5.203 -11.549  16.854  0.00  0.00    +0.074 C 
ATOM     13  C   UNL     1      -2.468 -10.711  15.464  0.00  0.00    +0.232 C 
ATOM     14  C   UNL     1      -4.757 -10.181  16.303  0.00  0.00    +0.123 C 
ATOM     17  C   UNL     1      -5.060 -13.973  16.745  0.00  0.00    +0.105 C 
ATOM     31  H   UNL     1      -2.900  -9.414  17.010  0.00  0.00    +0.149 HD
ENDROOT
BRANCH  12  15
ATOM     15  C   UNL     1      -5.167 -11.464  18.394  0.00  0.00    +0.029 C 
BRANCH  15  18
ATOM     18  C   UNL     1      -6.093 -10.385  18.924  0.00  0.00    +0.097 C 
BRANCH  18  20
ATOM      2  O   UNL     1      -7.667 -11.789  20.007  0.00  0.00    -0.276 OA
ATOM      3  O   UNL     1     -10.644  -8.865  17.354  0.00  0.00    -0.377 OA
ATOM      7  N   UNL     1      -8.493 -10.386  18.351  0.00  0.00    -0.297 N 
ATOM     20  C   UNL     1      -7.484 -10.923  19.149  0.00  0.00    +0.216 C 
ATOM     23  C   UNL     1      -9.872 -10.849  18.508  0.00  0.00    +0.136 C 
ATOM     24  C   UNL     1      -8.293  -9.452  17.240  0.00  0.00    +0.136 C 
ATOM     28  C   UNL     1     -10.830  -9.665  18.524  0.00  0.00    +0.179 C 
ATOM     29  C   UNL     1      -9.320  -8.328  17.303  0.00  0.00    +0.179 C 
ENDBRANCH  18  20
ENDBRANCH  15  18
ENDBRANCH  12  15
BRANCH   5  16
ATOM     16  C   UNL     1      -1.819 -11.344  12.369  0.00  0.00    +0.120 C 
BRANCH  16  19
ATOM     19  C   UNL     1      -2.998 -11.120  11.459  0.00  0.00    -0.033 A 
ATOM     21  C   UNL     1      -3.470 -12.162  10.662  0.00  0.00    +0.005 A 
ATOM     22  C   UNL     1      -3.615  -9.871  11.413  0.00  0.00    +0.005 A 
ATOM     25  C   UNL     1      -4.560 -11.954   9.816  0.00  0.00    +0.003 A 
ATOM     26  C   UNL     1      -4.706  -9.663  10.568  0.00  0.00    +0.003 A 
ATOM     27  C   UNL     1      -5.178 -10.704   9.770  0.00  0.00    -0.050 A 
ATOM     30  C   UNL     1      -6.344 -10.482   8.866  0.00  0.00    +0.044 C 
ENDBRANCH  16  19
ENDBRANCH   5  16
TORSDOF 5
ENDMDL
MODEL 6
REMARK VINA RESULT:      -6.5      2.335     10.095
REMARK  Name = 45361088
REMARK  7 active torsions:
REMARK  status: ('A' for Active; 'I' for Inactive)
REMARK    1  A    between atoms: N_4  and  C_17
REMARK    2  A    between atoms: N_5  and  C_16
REMARK    3  A    between atoms: C_12  and  C_15
REMARK    4  A    between atoms: C_15  and  C_18
REMARK    5  A    between atoms: C_16  and  C_19
REMARK    6  A    between atoms: C_18  and  C_20
REMARK    7  A    between atoms: C_27  and  C_30
REMARK                            x       y       z     vdW  Elec       q    Type
REMARK                         _______ _______ _______ _____ _____    ______ ____
ROOT
ATOM      1  O   UNL     1      19.302   5.731  19.987  0.00  0.00    -0.274 OA
ATOM      4  N   UNL     1      17.767   9.182  20.831  0.00  0.00    -0.296 NA
ATOM      5  N   UNL     1      20.486   7.045  22.027  0.00  0.00    -0.286 NA
ATOM      6  N   UNL     1      17.176   6.374  20.538  0.00  0.00    -0.312 N 
ATOM      8  C   UNL     1      18.717   8.699  21.858  0.00  0.00    +0.084 C 
ATOM      9  C   UNL     1      19.020   7.173  21.927  0.00  0.00    +0.161 C 
ATOM     10  C   UNL     1      20.129   9.300  21.735  0.00  0.00    +0.036 C 
ATOM     11  C   UNL     1      20.995   8.326  22.504  0.00  0.00    +0.087 C 
ATOM     12  C   UNL     1      16.375   8.673  20.992  0.00  0.00    +0.074 C 
ATOM     13  C   UNL     1      18.546   6.365  20.721  0.00  0.00    +0.232 C 
ATOM     14  C   UNL     1      16.268   7.175  21.335  0.00  0.00    +0.123 C 
ATOM     17  C   UNL     1      17.767  10.654  20.769  0.00  0.00    +0.105 C 
ATOM     31  H   UNL     1      16.790   5.792  19.802  0.00  0.00    +0.149 HD
ENDROOT
BRANCH  12  15
ATOM     15  C   UNL     1      15.562   8.913  19.702  0.00  0.00    +0.029 C 
BRANCH  15  18
ATOM     18  C   UNL     1      14.227   9.575  19.989  0.00  0.00    +0.097 C 
BRANCH  18  20
ATOM      2  O   UNL     1      13.253   7.485  19.434  0.00  0.00    -0.276 OA
ATOM      3  O   UNL     1      10.007   9.221  22.738  0.00  0.00    -0.377 OA
ATOM      7  N   UNL     1      11.972   8.915  20.742  0.00  0.00    -0.297 N 
ATOM     20  C   UNL     1      13.112   8.559  20.023  0.00  0.00    +0.216 C 
ATOM     23  C   UNL     1      10.845   7.986  20.831  0.00  0.00    +0.136 C 
ATOM     24  C   UNL     1      11.720  10.226  21.346  0.00  0.00    +0.136 C 
ATOM     28  C   UNL     1      10.330   7.912  22.262  0.00  0.00    +0.179 C 
ATOM     29  C   UNL     1      11.163  10.062  22.754  0.00  0.00    +0.179 C 
ENDBRANCH  18  20
ENDBRANCH  15  18
ENDBRANCH  12  15
BRANCH   5  16
ATOM     16  C   UNL     1      20.912   5.936  22.871  0.00  0.00    +0.120 C 
BRANCH  16  19
ATOM     19  C   UNL     1      21.903   5.046  22.170  0.00  0.00    -0.033 A 
ATOM     21  C   UNL     1      22.147   3.760  22.652  0.00  0.00    +0.005 A 
ATOM     22  C   UNL     1      22.577   5.507  21.040  0.00  0.00    +0.005 A 
ATOM     25  C   UNL     1      23.067   2.936  22.005  0.00  0.00    +0.003 A 
ATOM     26  C   UNL     1      23.497   4.682  20.392  0.00  0.00    +0.003 A 
ATOM     27  C   UNL     1      23.742   3.397  20.874  0.00  0.00    -0.050 A 
ATOM     30  C   UNL     1      24.725   2.515  20.181  0.00  0.00    +0.044 C 
ENDBRANCH  16  19
ENDBRANCH   5  16
TORSDOF 5
ENDMDL
MODEL 7
REMARK VINA RESULT:      -6.4     28.231     31.612
REMARK  Name = 45361088
REMARK  7 active torsions:
REMARK  status: ('A' for Active; 'I' for Inactive)
REMARK    1  A    between atoms: N_4  and  C_17
REMARK    2  A    between atoms: N_5  and  C_16
REMARK    3  A    between atoms: C_12  and  C_15
REMARK    4  A    between atoms: C_15  and  C_18
REMARK    5  A    between atoms: C_16  and  C_19
REMARK    6  A    between atoms: C_18  and  C_20
REMARK    7  A    between atoms: C_27  and  C_30
REMARK                            x       y       z     vdW  Elec       q    Type
REMARK                         _______ _______ _______ _____ _____    ______ ____
ROOT
ATOM      1  O   UNL     1      -6.513  -9.240  16.503  0.00  0.00    -0.274 OA
ATOM      4  N   UNL     1      -9.973  -9.835  18.133  0.00  0.00    -0.296 NA
ATOM      5  N   UNL     1      -6.903 -11.720  17.497  0.00  0.00    -0.286 NA
ATOM      6  N   UNL     1      -8.647  -9.003  15.710  0.00  0.00    -0.312 N 
ATOM      8  C   UNL     1      -9.206 -11.082  17.921  0.00  0.00    +0.084 C 
ATOM      9  C   UNL     1      -8.067 -11.079  16.859  0.00  0.00    +0.161 C 
ATOM     10  C   UNL     1      -8.471 -11.585  19.177  0.00  0.00    +0.036 C 
ATOM     11  C   UNL     1      -7.408 -12.506  18.618  0.00  0.00    +0.087 C 
ATOM     12  C   UNL     1     -10.758  -9.384  16.949  0.00  0.00    +0.074 C 
ATOM     13  C   UNL     1      -7.646  -9.697  16.365  0.00  0.00    +0.232 C 
ATOM     14  C   UNL     1     -10.012  -9.478  15.604  0.00  0.00    +0.123 C 
ATOM     17  C   UNL     1     -10.851  -9.954  19.310  0.00  0.00    +0.105 C 
ATOM     31  H   UNL     1      -8.410  -8.111  15.289  0.00  0.00    +0.149 HD
ENDROOT
BRANCH  12  15
ATOM     15  C   UNL     1     -11.210  -7.920  17.127  0.00  0.00    +0.029 C 
BRANCH  15  18
ATOM     18  C   UNL     1     -12.242  -7.515  16.091  0.00  0.00    +0.097 C 
BRANCH  18  20
ATOM      2  O   UNL     1     -10.656  -5.851  15.510  0.00  0.00    -0.276 OA
ATOM      3  O   UNL     1     -13.950  -5.367  11.854  0.00  0.00    -0.377 OA
ATOM      7  N   UNL     1     -12.633  -5.872  14.292  0.00  0.00    -0.297 N 
ATOM     20  C   UNL     1     -11.765  -6.337  15.278  0.00  0.00    +0.216 C 
ATOM     23  C   UNL     1     -12.246  -4.736  13.455  0.00  0.00    +0.136 C 
ATOM     24  C   UNL     1     -14.004  -6.342  14.074  0.00  0.00    +0.136 C 
ATOM     28  C   UNL     1     -12.570  -5.020  11.994  0.00  0.00    +0.179 C 
ATOM     29  C   UNL     1     -14.259  -6.555  12.587  0.00  0.00    +0.179 C 
ENDBRANCH  18  20
ENDBRANCH  15  18
ENDBRANCH  12  15
BRANCH   5  16
ATOM     16  C   UNL     1      -6.109 -12.525  16.577  0.00  0.00    +0.120 C 
BRANCH  16  19
ATOM     19  C   UNL     1      -4.789 -11.875  16.259  0.00  0.00    -0.033 A 
ATOM     21  C   UNL     1      -3.943 -11.475  17.293  0.00  0.00    +0.005 A 
ATOM     22  C   UNL     1      -4.413 -11.671  14.932  0.00  0.00    +0.005 A 
ATOM     25  C   UNL     1      -2.721 -10.870  16.999  0.00  0.00    +0.003 A 
ATOM     26  C   UNL     1      -3.191 -11.067  14.638  0.00  0.00    +0.003 A 
ATOM     27  C   UNL     1      -2.345 -10.666  15.671  0.00  0.00    -0.050 A 
ATOM     30  C   UNL     1      -1.038 -10.019  15.357  0.00  0.00    +0.044 C 
ENDBRANCH  16  19
ENDBRANCH   5  16
TORSDOF 5
ENDMDL
MODEL 8
REMARK VINA RESULT:      -6.4     27.519     30.308
REMARK  Name = 45361088
REMARK  7 active torsions:
REMARK  status: ('A' for Active; 'I' for Inactive)
REMARK    1  A    between atoms: N_4  and  C_17
REMARK    2  A    between atoms: N_5  and  C_16
REMARK    3  A    between atoms: C_12  and  C_15
REMARK    4  A    between atoms: C_15  and  C_18
REMARK    5  A    between atoms: C_16  and  C_19
REMARK    6  A    between atoms: C_18  and  C_20
REMARK    7  A    between atoms: C_27  and  C_30
REMARK                            x       y       z     vdW  Elec       q    Type
REMARK                         _______ _______ _______ _____ _____    ______ ____
ROOT
ATOM      1  O   UNL     1      -5.956  -9.557  13.379  0.00  0.00    -0.274 OA
ATOM      4  N   UNL     1      -3.180 -10.874  15.733  0.00  0.00    -0.296 NA
ATOM      5  N   UNL     1      -3.812 -10.631  12.137  0.00  0.00    -0.286 NA
ATOM      6  N   UNL     1      -5.984 -11.079  15.087  0.00  0.00    -0.312 N 
ATOM      8  C   UNL     1      -3.002 -11.296  14.326  0.00  0.00    +0.084 C 
ATOM      9  C   UNL     1      -4.243 -11.286  13.387  0.00  0.00    +0.161 C 
ATOM     10  C   UNL     1      -1.996 -10.437  13.538  0.00  0.00    +0.036 C 
ATOM     11  C   UNL     1      -2.356 -10.709  12.094  0.00  0.00    +0.087 C 
ATOM     12  C   UNL     1      -4.086 -11.749  16.530  0.00  0.00    +0.074 C 
ATOM     13  C   UNL     1      -5.458 -10.537  13.929  0.00  0.00    +0.232 C 
ATOM     14  C   UNL     1      -5.374 -12.182  15.803  0.00  0.00    +0.123 C 
ATOM     17  C   UNL     1      -1.879 -10.738  16.409  0.00  0.00    +0.105 C 
ATOM     31  H   UNL     1      -6.839 -10.676  15.455  0.00  0.00    +0.149 HD
ENDROOT
BRANCH  12  15
ATOM     15  C   UNL     1      -4.505 -11.044  17.837  0.00  0.00    +0.029 C 
BRANCH  15  18
ATOM     18  C   UNL     1      -5.282 -11.968  18.755  0.00  0.00    +0.097 C 
BRANCH  18  20
ATOM      2  O   UNL     1      -6.290 -10.333  20.146  0.00  0.00    -0.276 OA
ATOM      3  O   UNL     1     -10.216 -12.065  17.688  0.00  0.00    -0.377 OA
ATOM      7  N   UNL     1      -7.729 -11.722  18.965  0.00  0.00    -0.297 N 
ATOM     20  C   UNL     1      -6.472 -11.263  19.357  0.00  0.00    +0.216 C 
ATOM     23  C   UNL     1      -8.936 -11.091  19.498  0.00  0.00    +0.136 C 
ATOM     24  C   UNL     1      -7.982 -12.901  18.132  0.00  0.00    +0.136 C 
ATOM     28  C   UNL     1      -9.942 -10.846  18.382  0.00  0.00    +0.179 C 
ATOM     29  C   UNL     1      -9.033 -12.584  17.075  0.00  0.00    +0.179 C 
ENDBRANCH  18  20
ENDBRANCH  15  18
ENDBRANCH  12  15
BRANCH   5  16
ATOM     16  C   UNL     1      -4.428 -11.200  10.945  0.00  0.00    +0.120 C 
BRANCH  16  19
ATOM     19  C   UNL     1      -5.307 -10.203  10.238  0.00  0.00    -0.033 A 
ATOM     21  C   UNL     1      -4.902  -8.873  10.126  0.00  0.00    +0.005 A 
ATOM     22  C   UNL     1      -6.527 -10.608   9.698  0.00  0.00    +0.005 A 
ATOM     25  C   UNL     1      -5.717  -7.948   9.474  0.00  0.00    +0.003 A 
ATOM     26  C   UNL     1      -7.343  -9.684   9.045  0.00  0.00    +0.003 A 
ATOM     27  C   UNL     1      -6.938  -8.354   8.933  0.00  0.00    -0.050 A 
ATOM     30  C   UNL     1      -7.810  -7.365   8.236  0.00  0.00    +0.044 C 
ENDBRANCH  16  19
ENDBRANCH   5  16
TORSDOF 5
ENDMDL
MODEL 9
REMARK VINA RESULT:      -6.4     28.220     30.449
REMARK  Name = 45361088
REMARK  7 active torsions:
REMARK  status: ('A' for Active; 'I' for Inactive)
REMARK    1  A    between atoms: N_4  and  C_17
REMARK    2  A    between atoms: N_5  and  C_16
REMARK    3  A    between atoms: C_12  and  C_15
REMARK    4  A    between atoms: C_15  and  C_18
REMARK    5  A    between atoms: C_16  and  C_19
REMARK    6  A    between atoms: C_18  and  C_20
REMARK    7  A    between atoms: C_27  and  C_30
REMARK                            x       y       z     vdW  Elec       q    Type
REMARK                         _______ _______ _______ _____ _____    ______ ____
ROOT
ATOM      1  O   UNL     1      -5.760 -10.036  13.515  0.00  0.00    -0.274 OA
ATOM      4  N   UNL     1      -4.148 -12.163  10.712  0.00  0.00    -0.296 NA
ATOM      5  N   UNL     1      -3.706 -11.602  14.301  0.00  0.00    -0.286 NA
ATOM      6  N   UNL     1      -4.828  -9.473  11.503  0.00  0.00    -0.312 N 
ATOM      8  C   UNL     1      -3.355 -12.146  11.962  0.00  0.00    +0.084 C 
ATOM      9  C   UNL     1      -3.585 -10.981  12.969  0.00  0.00    +0.161 C 
ATOM     10  C   UNL     1      -3.564 -13.385  12.851  0.00  0.00    +0.036 C 
ATOM     11  C   UNL     1      -3.094 -12.923  14.214  0.00  0.00    +0.087 C 
ATOM     12  C   UNL     1      -3.890 -11.011   9.803  0.00  0.00    +0.074 C 
ATOM     13  C   UNL     1      -4.835 -10.142  12.713  0.00  0.00    +0.232 C 
ATOM     14  C   UNL     1      -3.793  -9.642  10.502  0.00  0.00    +0.123 C 
ATOM     17  C   UNL     1      -3.961 -13.433   9.991  0.00  0.00    +0.105 C 
ATOM     31  H   UNL     1      -5.593  -8.837  11.306  0.00  0.00    +0.149 HD
ENDROOT
BRANCH  12  15
ATOM     15  C   UNL     1      -5.000 -10.908   8.735  0.00  0.00    +0.029 C 
BRANCH  15  18
ATOM     18  C   UNL     1      -5.106  -9.508   8.161  0.00  0.00    +0.097 C 
BRANCH  18  20
ATOM      2  O   UNL     1      -6.901  -8.640   9.444  0.00  0.00    -0.276 OA
ATOM      3  O   UNL     1      -8.547  -7.885   4.842  0.00  0.00    -0.377 OA
ATOM      7  N   UNL     1      -7.260  -8.842   7.158  0.00  0.00    -0.297 N 
ATOM     20  C   UNL     1      -6.502  -8.958   8.322  0.00  0.00    +0.216 C 
ATOM     23  C   UNL     1      -8.623  -8.313   7.224  0.00  0.00    +0.136 C 
ATOM     24  C   UNL     1      -6.865  -9.326   5.832  0.00  0.00    +0.136 C 
ATOM     28  C   UNL     1      -8.853  -7.301   6.110  0.00  0.00    +0.179 C 
ATOM     29  C   UNL     1      -7.173  -8.275   4.773  0.00  0.00    +0.179 C 
ENDBRANCH  18  20
ENDBRANCH  15  18
ENDBRANCH  12  15
BRANCH   5  16
ATOM     16  C   UNL     1      -3.125 -10.797  15.369  0.00  0.00    +0.120 C 
BRANCH  16  19
ATOM     19  C   UNL     1      -3.924 -10.893  16.641  0.00  0.00    -0.033 A 
ATOM     21  C   UNL     1      -5.137 -10.215  16.755  0.00  0.00    +0.005 A 
ATOM     22  C   UNL     1      -3.450 -11.658  17.706  0.00  0.00    +0.005 A 
ATOM     25  C   UNL     1      -5.876 -10.300  17.935  0.00  0.00    +0.003 A 
ATOM     26  C   UNL     1      -4.189 -11.744  18.886  0.00  0.00    +0.003 A 
ATOM     27  C   UNL     1      -5.402 -11.066  19.001  0.00  0.00    -0.050 A 
ATOM     30  C   UNL     1      -6.193 -11.158  20.262  0.00  0.00    +0.044 C 
ENDBRANCH  16  19
ENDBRANCH   5  16
TORSDOF 5
ENDMDL
MODEL 10
REMARK VINA RESULT:      -6.4     27.814     30.087
REMARK  Name = 45361088
REMARK  7 active torsions:
REMARK  status: ('A' for Active; 'I' for Inactive)
REMARK    1  A    between atoms: N_4  and  C_17
REMARK    2  A    between atoms: N_5  and  C_16
REMARK    3  A    between atoms: C_12  and  C_15
REMARK    4  A    between atoms: C_15  and  C_18
REMARK    5  A    between atoms: C_16  and  C_19
REMARK    6  A    between atoms: C_18  and  C_20
REMARK    7  A    between atoms: C_27  and  C_30
REMARK                            x       y       z     vdW  Elec       q    Type
REMARK                         _______ _______ _______ _____ _____    ______ ____
ROOT
ATOM      1  O   UNL     1      -6.787  -9.329  16.384  0.00  0.00    -0.274 OA
ATOM      4  N   UNL     1      -4.711 -12.423  15.335  0.00  0.00    -0.296 NA
ATOM      5  N   UNL     1      -7.387 -11.611  17.696  0.00  0.00    -0.286 NA
ATOM      6  N   UNL     1      -4.533  -9.718  16.322  0.00  0.00    -0.312 N 
ATOM      8  C   UNL     1      -5.498 -12.638  16.571  0.00  0.00    +0.084 C 
ATOM      9  C   UNL     1      -5.964 -11.392  17.378  0.00  0.00    +0.161 C 
ATOM     10  C   UNL     1      -6.823 -13.388  16.345  0.00  0.00    +0.036 C 
ATOM     11  C   UNL     1      -7.637 -13.044  17.574  0.00  0.00    +0.087 C 
ATOM     12  C   UNL     1      -3.387 -11.775  15.553  0.00  0.00    +0.074 C 
ATOM     13  C   UNL     1      -5.833 -10.059  16.644  0.00  0.00    +0.232 C 
ATOM     14  C   UNL     1      -3.398 -10.593  16.541  0.00  0.00    +0.123 C 
ATOM     17  C   UNL     1      -4.545 -13.685  14.594  0.00  0.00    +0.105 C 
ATOM     31  H   UNL     1      -4.369  -8.808  15.903  0.00  0.00    +0.149 HD
ENDROOT
BRANCH  12  15
ATOM     15  C   UNL     1      -2.815 -11.257  14.216  0.00  0.00    +0.029 C 
BRANCH  15  18
ATOM     18  C   UNL     1      -3.893 -10.662  13.331  0.00  0.00    +0.097 C 
BRANCH  18  20
ATOM      2  O   UNL     1      -2.172 -10.549  11.704  0.00  0.00    -0.276 OA
ATOM      3  O   UNL     1      -6.027  -8.784   9.158  0.00  0.00    -0.377 OA
ATOM      7  N   UNL     1      -4.187  -9.534  11.156  0.00  0.00    -0.297 N 
ATOM     20  C   UNL     1      -3.331 -10.246  11.993  0.00  0.00    +0.216 C 
ATOM     23  C   UNL     1      -3.724  -9.097   9.839  0.00  0.00    +0.136 C 
ATOM     24  C   UNL     1      -5.523  -9.049  11.516  0.00  0.00    +0.136 C 
ATOM     28  C   UNL     1      -4.783  -9.381   8.783  0.00  0.00    +0.179 C 
ATOM     29  C   UNL     1      -6.508  -9.330  10.389  0.00  0.00    +0.179 C 
ENDBRANCH  18  20
ENDBRANCH  15  18
ENDBRANCH  12  15
BRANCH   5  16
ATOM     16  C   UNL     1      -7.774 -11.096  19.003  0.00  0.00    +0.120 C 
BRANCH  16  19
ATOM     19  C   UNL     1      -9.231 -10.721  19.049  0.00  0.00    -0.033 A 
ATOM     21  C   UNL     1     -10.052 -11.235  20.052  0.00  0.00    +0.005 A 
ATOM     22  C   UNL     1      -9.761  -9.861  18.087  0.00  0.00    +0.005 A 
ATOM     25  C   UNL     1     -11.403 -10.891  20.093  0.00  0.00    +0.003 A 
ATOM     26  C   UNL     1     -11.112  -9.515  18.129  0.00  0.00    +0.003 A 
ATOM     27  C   UNL     1     -11.933 -10.030  19.131  0.00  0.00    -0.050 A 
ATOM     30  C   UNL     1     -13.377  -9.661  19.176  0.00  0.00    +0.044 C 
ENDBRANCH  16  19
ENDBRANCH   5  16
TORSDOF 5
ENDMDL
