MODEL 1
REMARK VINA RESULT:      -7.5      0.000      0.000
REMARK  Name = 51137898
REMARK  5 active torsions:
REMARK  status: ('A' for Active; 'I' for Inactive)
REMARK    1  A    between atoms: N_1  and  C_10
REMARK    2  A    between atoms: N_2  and  C_14
REMARK    3  A    between atoms: C_5  and  C_9
REMARK    4  A    between atoms: C_10  and  C_12
REMARK    5  A    between atoms: C_23  and  C_24
REMARK                            x       y       z     vdW  Elec       q    Type
REMARK                         _______ _______ _______ _____ _____    ______ ____
ROOT
ATOM      1  N   UNL     1      19.244   5.854  20.713  0.00  0.00    -0.297 NA
ATOM      5  C   UNL     1      21.265   5.068  21.607  0.00  0.00    +0.070 C 
ATOM      6  C   UNL     1      21.149   6.582  21.850  0.00  0.00    +0.028 C 
ATOM      7  C   UNL     1      20.207   4.764  20.537  0.00  0.00    +0.096 C 
ATOM      8  C   UNL     1      20.061   7.053  20.893  0.00  0.00    +0.085 C 
ENDROOT
BRANCH   5   9
ATOM      2  N   UNL     1      23.331   3.669  21.964  0.00  0.00    -0.330 N 
ATOM      3  N   UNL     1      23.332   4.983  20.171  0.00  0.00    -0.232 NA
ATOM      9  C   UNL     1      22.646   4.591  21.221  0.00  0.00    +0.115 A 
ATOM     11  C   UNL     1      24.539   3.453  21.351  0.00  0.00    +0.069 A 
ATOM     13  C   UNL     1      24.516   4.284  20.236  0.00  0.00    +0.089 A 
ATOM     14  C   UNL     1      22.869   3.034  23.178  0.00  0.00    +0.150 C 
ATOM     15  C   UNL     1      25.618   2.627  21.670  0.00  0.00    +0.028 A 
ATOM     18  C   UNL     1      25.625   4.306  19.374  0.00  0.00    +0.030 A 
ATOM     19  C   UNL     1      26.715   2.662  20.801  0.00  0.00    +0.002 A 
ATOM     20  C   UNL     1      26.720   3.485  19.673  0.00  0.00    +0.002 A 
ENDBRANCH   5   9
BRANCH   1  10
ATOM     10  C   UNL     1      18.328   5.971  19.588  0.00  0.00    +0.119 C 
BRANCH  10  12
ATOM     12  C   UNL     1      16.947   6.380  20.030  0.00  0.00    -0.033 A 
ATOM     16  C   UNL     1      15.929   6.525  19.089  0.00  0.00    +0.005 A 
ATOM     17  C   UNL     1      16.688   6.613  21.381  0.00  0.00    +0.005 A 
ATOM     21  C   UNL     1      14.650   6.903  19.499  0.00  0.00    +0.010 A 
ATOM     22  C   UNL     1      15.410   6.991  21.790  0.00  0.00    +0.010 A 
ATOM     23  C   UNL     1      14.390   7.136  20.849  0.00  0.00    +0.000 A 
BRANCH  23  24
ATOM      4  N   UNL     1      12.146   6.536  21.273  0.00  0.00    -0.255 NA
ATOM     24  C   UNL     1      13.064   7.529  21.273  0.00  0.00    +0.071 A 
ATOM     25  C   UNL     1      12.793   8.835  21.645  0.00  0.00    +0.028 A 
ATOM     26  C   UNL     1      11.495   9.143  22.042  0.00  0.00    +0.004 A 
ATOM     27  C   UNL     1      10.897   6.873  21.664  0.00  0.00    +0.111 A 
ATOM     28  C   UNL     1      10.524   8.149  22.055  0.00  0.00    +0.020 A 
ENDBRANCH  23  24
ENDBRANCH  10  12
ENDBRANCH   1  10
TORSDOF 4
ENDMDL
MODEL 2
REMARK VINA RESULT:      -7.3     21.257     26.692
REMARK  Name = 51137898
REMARK  5 active torsions:
REMARK  status: ('A' for Active; 'I' for Inactive)
REMARK    1  A    between atoms: N_1  and  C_10
REMARK    2  A    between atoms: N_2  and  C_14
REMARK    3  A    between atoms: C_5  and  C_9
REMARK    4  A    between atoms: C_10  and  C_12
REMARK    5  A    between atoms: C_23  and  C_24
REMARK                            x       y       z     vdW  Elec       q    Type
REMARK                         _______ _______ _______ _____ _____    ______ ____
ROOT
ATOM      1  N   UNL     1      -1.654  10.328   5.621  0.00  0.00    -0.297 NA
ATOM      5  C   UNL     1      -0.916  12.096   6.974  0.00  0.00    +0.070 C 
ATOM      6  C   UNL     1      -0.626  12.421   5.499  0.00  0.00    +0.028 C 
ATOM      7  C   UNL     1      -1.204  10.589   6.991  0.00  0.00    +0.096 C 
ATOM      8  C   UNL     1      -0.737  11.086   4.772  0.00  0.00    +0.085 C 
ENDROOT
BRANCH   5   9
ATOM      2  N   UNL     1      -0.099  12.996   9.182  0.00  0.00    -0.330 N 
ATOM      3  N   UNL     1       1.468  12.422   7.715  0.00  0.00    -0.232 NA
ATOM      9  C   UNL     1       0.176  12.498   7.939  0.00  0.00    +0.115 A 
ATOM     11  C   UNL     1       1.096  13.260   9.801  0.00  0.00    +0.069 A 
ATOM     13  C   UNL     1       2.059  12.894   8.865  0.00  0.00    +0.089 A 
ATOM     14  C   UNL     1      -1.412  13.210   9.747  0.00  0.00    +0.150 C 
ATOM     15  C   UNL     1       1.408  13.773  11.061  0.00  0.00    +0.028 A 
ATOM     18  C   UNL     1       3.418  13.039   9.187  0.00  0.00    +0.030 A 
ATOM     19  C   UNL     1       2.767  13.912  11.365  0.00  0.00    +0.002 A 
ATOM     20  C   UNL     1       3.756  13.551  10.447  0.00  0.00    +0.002 A 
ENDBRANCH   5   9
BRANCH   1  10
ATOM     10  C   UNL     1      -1.663   8.909   5.301  0.00  0.00    +0.119 C 
BRANCH  10  12
ATOM     12  C   UNL     1      -3.060   8.390   5.088  0.00  0.00    -0.033 A 
ATOM     16  C   UNL     1      -3.350   7.048   5.332  0.00  0.00    +0.005 A 
ATOM     17  C   UNL     1      -4.064   9.252   4.647  0.00  0.00    +0.005 A 
ATOM     21  C   UNL     1      -4.645   6.568   5.134  0.00  0.00    +0.010 A 
ATOM     22  C   UNL     1      -5.358   8.772   4.449  0.00  0.00    +0.010 A 
ATOM     23  C   UNL     1      -5.649   7.430   4.694  0.00  0.00    +0.000 A 
BRANCH  23  24
ATOM      4  N   UNL     1      -7.683   7.543   3.500  0.00  0.00    -0.255 NA
ATOM     24  C   UNL     1      -6.992   6.931   4.488  0.00  0.00    +0.071 A 
ATOM     25  C   UNL     1      -7.498   5.904   5.267  0.00  0.00    +0.028 A 
ATOM     26  C   UNL     1      -8.797   5.474   5.015  0.00  0.00    +0.004 A 
ATOM     27  C   UNL     1      -8.942   7.099   3.285  0.00  0.00    +0.111 A 
ATOM     28  C   UNL     1      -9.539   6.078   4.007  0.00  0.00    +0.020 A 
ENDBRANCH  23  24
ENDBRANCH  10  12
ENDBRANCH   1  10
TORSDOF 4
ENDMDL
MODEL 3
REMARK VINA RESULT:      -7.2     33.147     35.834
REMARK  Name = 51137898
REMARK  5 active torsions:
REMARK  status: ('A' for Active; 'I' for Inactive)
REMARK    1  A    between atoms: N_1  and  C_10
REMARK    2  A    between atoms: N_2  and  C_14
REMARK    3  A    between atoms: C_5  and  C_9
REMARK    4  A    between atoms: C_10  and  C_12
REMARK    5  A    between atoms: C_23  and  C_24
REMARK                            x       y       z     vdW  Elec       q    Type
REMARK                         _______ _______ _______ _____ _____    ______ ____
ROOT
ATOM      1  N   UNL     1     -16.669   1.818  27.538  0.00  0.00    -0.297 NA
ATOM      5  C   UNL     1     -16.928   3.360  25.789  0.00  0.00    +0.070 C 
ATOM      6  C   UNL     1     -17.482   1.992  25.356  0.00  0.00    +0.028 C 
ATOM      7  C   UNL     1     -16.077   3.059  27.031  0.00  0.00    +0.096 C 
ATOM      8  C   UNL     1     -16.897   0.997  26.350  0.00  0.00    +0.085 C 
ENDROOT
BRANCH   5   9
ATOM      2  N   UNL     1     -16.746   5.074  23.950  0.00  0.00    -0.330 N 
ATOM      3  N   UNL     1     -14.901   3.921  24.404  0.00  0.00    -0.232 NA
ATOM      9  C   UNL     1     -16.164   4.104  24.718  0.00  0.00    +0.115 A 
ATOM     11  C   UNL     1     -15.795   5.547  23.083  0.00  0.00    +0.069 A 
ATOM     13  C   UNL     1     -14.653   4.812  23.386  0.00  0.00    +0.089 A 
ATOM     14  C   UNL     1     -18.118   5.522  24.033  0.00  0.00    +0.150 C 
ATOM     15  C   UNL     1     -15.835   6.526  22.088  0.00  0.00    +0.028 A 
ATOM     18  C   UNL     1     -13.471   5.054  22.666  0.00  0.00    +0.030 A 
ATOM     19  C   UNL     1     -14.650   6.753  21.381  0.00  0.00    +0.002 A 
ATOM     20  C   UNL     1     -13.487   6.032  21.663  0.00  0.00    +0.002 A 
ENDBRANCH   5   9
BRANCH   1  10
ATOM     10  C   UNL     1     -15.817   1.157  28.515  0.00  0.00    +0.119 C 
BRANCH  10  12
ATOM     12  C   UNL     1     -15.459   2.072  29.657  0.00  0.00    -0.033 A 
ATOM     16  C   UNL     1     -14.126   2.219  30.039  0.00  0.00    +0.005 A 
ATOM     17  C   UNL     1     -16.460   2.771  30.330  0.00  0.00    +0.005 A 
ATOM     21  C   UNL     1     -13.794   3.067  31.096  0.00  0.00    +0.010 A 
ATOM     22  C   UNL     1     -16.128   3.618  31.387  0.00  0.00    +0.010 A 
ATOM     23  C   UNL     1     -14.794   3.767  31.770  0.00  0.00    +0.000 A 
BRANCH  23  24
ATOM      4  N   UNL     1     -14.539   4.087  34.095  0.00  0.00    -0.255 NA
ATOM     24  C   UNL     1     -14.450   4.645  32.866  0.00  0.00    +0.071 A 
ATOM     25  C   UNL     1     -14.063   5.955  32.636  0.00  0.00    +0.028 A 
ATOM     26  C   UNL     1     -13.746   6.743  33.738  0.00  0.00    +0.004 A 
ATOM     27  C   UNL     1     -14.224   4.884  35.141  0.00  0.00    +0.111 A 
ATOM     28  C   UNL     1     -13.825   6.205  35.016  0.00  0.00    +0.020 A 
ENDBRANCH  23  24
ENDBRANCH  10  12
ENDBRANCH   1  10
TORSDOF 4
ENDMDL
MODEL 4
REMARK VINA RESULT:      -7.2      1.858     10.729
REMARK  Name = 51137898
REMARK  5 active torsions:
REMARK  status: ('A' for Active; 'I' for Inactive)
REMARK    1  A    between atoms: N_1  and  C_10
REMARK    2  A    between atoms: N_2  and  C_14
REMARK    3  A    between atoms: C_5  and  C_9
REMARK    4  A    between atoms: C_10  and  C_12
REMARK    5  A    between atoms: C_23  and  C_24
REMARK                            x       y       z     vdW  Elec       q    Type
REMARK                         _______ _______ _______ _____ _____    ______ ____
ROOT
ATOM      1  N   UNL     1      17.862   6.408  20.730  0.00  0.00    -0.297 NA
ATOM      5  C   UNL     1      15.659   6.880  21.380  0.00  0.00    +0.070 C 
ATOM      6  C   UNL     1      15.673   6.399  19.919  0.00  0.00    +0.028 C 
ATOM      7  C   UNL     1      17.121   7.233  21.687  0.00  0.00    +0.096 C 
ATOM      8  C   UNL     1      17.124   6.533  19.474  0.00  0.00    +0.085 C 
ENDROOT
BRANCH   5   9
ATOM      2  N   UNL     1      13.350   7.876  21.557  0.00  0.00    -0.330 N 
ATOM      3  N   UNL     1      15.044   9.232  22.035  0.00  0.00    -0.232 NA
ATOM      9  C   UNL     1      14.705   8.018  21.665  0.00  0.00    +0.115 A 
ATOM     11  C   UNL     1      12.776   9.078  21.880  0.00  0.00    +0.069 A 
ATOM     13  C   UNL     1      13.853   9.908  22.174  0.00  0.00    +0.089 A 
ATOM     14  C   UNL     1      12.643   6.674  21.172  0.00  0.00    +0.150 C 
ATOM     15  C   UNL     1      11.446   9.499  21.937  0.00  0.00    +0.028 A 
ATOM     18  C   UNL     1      13.611  11.240  22.550  0.00  0.00    +0.030 A 
ATOM     19  C   UNL     1      11.222  10.828  22.312  0.00  0.00    +0.002 A 
ATOM     20  C   UNL     1      12.284  11.685  22.615  0.00  0.00    +0.002 A 
ENDBRANCH   5   9
BRANCH   1  10
ATOM     10  C   UNL     1      19.251   6.823  20.601  0.00  0.00    +0.119 C 
BRANCH  10  12
ATOM     12  C   UNL     1      20.202   5.754  21.073  0.00  0.00    -0.033 A 
ATOM     16  C   UNL     1      20.954   5.953  22.230  0.00  0.00    +0.005 A 
ATOM     17  C   UNL     1      20.328   4.567  20.352  0.00  0.00    +0.005 A 
ATOM     21  C   UNL     1      21.835   4.962  22.667  0.00  0.00    +0.010 A 
ATOM     22  C   UNL     1      21.209   3.578  20.789  0.00  0.00    +0.010 A 
ATOM     23  C   UNL     1      21.961   3.775  21.947  0.00  0.00    +0.000 A 
BRANCH  23  24
ATOM      4  N   UNL     1      22.803   2.462  23.719  0.00  0.00    -0.255 NA
ATOM     24  C   UNL     1      22.875   2.748  22.399  0.00  0.00    +0.071 A 
ATOM     25  C   UNL     1      23.744   2.127  21.517  0.00  0.00    +0.028 A 
ATOM     26  C   UNL     1      24.594   1.149  22.022  0.00  0.00    +0.004 A 
ATOM     27  C   UNL     1      23.646   1.506  24.173  0.00  0.00    +0.111 A 
ATOM     28  C   UNL     1      24.550   0.827  23.373  0.00  0.00    +0.020 A 
ENDBRANCH  23  24
ENDBRANCH  10  12
ENDBRANCH   1  10
TORSDOF 4
ENDMDL
MODEL 5
REMARK VINA RESULT:      -7.1     31.463     35.321
REMARK  Name = 51137898
REMARK  5 active torsions:
REMARK  status: ('A' for Active; 'I' for Inactive)
REMARK    1  A    between atoms: N_1  and  C_10
REMARK    2  A    between atoms: N_2  and  C_14
REMARK    3  A    between atoms: C_5  and  C_9
REMARK    4  A    between atoms: C_10  and  C_12
REMARK    5  A    between atoms: C_23  and  C_24
REMARK                            x       y       z     vdW  Elec       q    Type
REMARK                         _______ _______ _______ _____ _____    ______ ____
ROOT
ATOM      1  N   UNL     1     -17.014   3.522  24.669  0.00  0.00    -0.297 NA
ATOM      5  C   UNL     1     -16.243   5.519  23.711  0.00  0.00    +0.070 C 
ATOM      6  C   UNL     1     -17.415   4.969  22.881  0.00  0.00    +0.028 C 
ATOM      7  C   UNL     1     -15.801   4.340  24.589  0.00  0.00    +0.096 C 
ATOM      8  C   UNL     1     -17.553   3.514  23.310  0.00  0.00    +0.085 C 
ENDROOT
BRANCH   5   9
ATOM      2  N   UNL     1     -14.979   7.453  22.701  0.00  0.00    -0.330 N 
ATOM      3  N   UNL     1     -14.152   5.427  22.310  0.00  0.00    -0.232 NA
ATOM      9  C   UNL     1     -15.110   6.106  22.900  0.00  0.00    +0.115 A 
ATOM     11  C   UNL     1     -13.862   7.655  21.932  0.00  0.00    +0.069 A 
ATOM     13  C   UNL     1     -13.364   6.376  21.701  0.00  0.00    +0.089 A 
ATOM     14  C   UNL     1     -15.858   8.482  23.209  0.00  0.00    +0.150 C 
ATOM     15  C   UNL     1     -13.263   8.813  21.433  0.00  0.00    +0.028 A 
ATOM     18  C   UNL     1     -12.200   6.223  20.930  0.00  0.00    +0.030 A 
ATOM     19  C   UNL     1     -12.105   8.642  20.666  0.00  0.00    +0.002 A 
ATOM     20  C   UNL     1     -11.581   7.371  20.419  0.00  0.00    +0.002 A 
ENDBRANCH   5   9
BRANCH   1  10
ATOM     10  C   UNL     1     -16.746   2.182  25.168  0.00  0.00    +0.119 C 
BRANCH  10  12
ATOM     12  C   UNL     1     -16.444   2.183  26.644  0.00  0.00    -0.033 A 
ATOM     16  C   UNL     1     -16.128   3.379  27.288  0.00  0.00    +0.005 A 
ATOM     17  C   UNL     1     -16.481   0.990  27.365  0.00  0.00    +0.005 A 
ATOM     21  C   UNL     1     -15.848   3.381  28.655  0.00  0.00    +0.010 A 
ATOM     22  C   UNL     1     -16.200   0.992  28.730  0.00  0.00    +0.010 A 
ATOM     23  C   UNL     1     -15.885   2.188  29.376  0.00  0.00    +0.000 A 
BRANCH  23  24
ATOM      4  N   UNL     1     -15.983   3.303  31.455  0.00  0.00    -0.255 NA
ATOM     24  C   UNL     1     -15.594   2.189  30.794  0.00  0.00    +0.071 A 
ATOM     25  C   UNL     1     -14.960   1.113  31.393  0.00  0.00    +0.028 A 
ATOM     26  C   UNL     1     -14.712   1.182  32.760  0.00  0.00    +0.004 A 
ATOM     27  C   UNL     1     -15.724   3.334  32.782  0.00  0.00    +0.111 A 
ATOM     28  C   UNL     1     -15.098   2.310  33.474  0.00  0.00    +0.020 A 
ENDBRANCH  23  24
ENDBRANCH  10  12
ENDBRANCH   1  10
TORSDOF 4
ENDMDL
MODEL 6
REMARK VINA RESULT:      -6.9     27.664     30.931
REMARK  Name = 51137898
REMARK  5 active torsions:
REMARK  status: ('A' for Active; 'I' for Inactive)
REMARK    1  A    between atoms: N_1  and  C_10
REMARK    2  A    between atoms: N_2  and  C_14
REMARK    3  A    between atoms: C_5  and  C_9
REMARK    4  A    between atoms: C_10  and  C_12
REMARK    5  A    between atoms: C_23  and  C_24
REMARK                            x       y       z     vdW  Elec       q    Type
REMARK                         _______ _______ _______ _____ _____    ______ ____
ROOT
ATOM      1  N   UNL     1      -2.135 -10.939  13.766  0.00  0.00    -0.297 NA
ATOM      5  C   UNL     1      -3.402 -10.247  15.615  0.00  0.00    +0.070 C 
ATOM      6  C   UNL     1      -1.973 -10.588  16.069  0.00  0.00    +0.028 C 
ATOM      7  C   UNL     1      -3.527 -10.875  14.219  0.00  0.00    +0.096 C 
ATOM      8  C   UNL     1      -1.381 -11.407  14.928  0.00  0.00    +0.085 C 
ENDROOT
BRANCH   5   9
ATOM      2  N   UNL     1      -5.817 -10.479  16.298  0.00  0.00    -0.330 N 
ATOM      3  N   UNL     1      -4.313 -11.317  17.703  0.00  0.00    -0.232 NA
ATOM      9  C   UNL     1      -4.493 -10.694  16.561  0.00  0.00    +0.115 A 
ATOM     11  C   UNL     1      -6.540 -10.999  17.341  0.00  0.00    +0.069 A 
ATOM     13  C   UNL     1      -5.579 -11.515  18.205  0.00  0.00    +0.089 A 
ATOM     14  C   UNL     1      -6.363  -9.822  15.131  0.00  0.00    +0.150 C 
ATOM     15  C   UNL     1      -7.911 -11.058  17.596  0.00  0.00    +0.028 A 
ATOM     18  C   UNL     1      -5.991 -12.133  19.398  0.00  0.00    +0.030 A 
ATOM     19  C   UNL     1      -8.304 -11.675  18.788  0.00  0.00    +0.002 A 
ATOM     20  C   UNL     1      -7.363 -12.204  19.675  0.00  0.00    +0.002 A 
ENDBRANCH   5   9
BRANCH   1  10
ATOM     10  C   UNL     1      -1.968 -11.807  12.610  0.00  0.00    +0.119 C 
BRANCH  10  12
ATOM     12  C   UNL     1      -2.839 -11.380  11.458  0.00  0.00    -0.033 A 
ATOM     16  C   UNL     1      -2.793 -10.062  11.002  0.00  0.00    +0.005 A 
ATOM     17  C   UNL     1      -3.689 -12.301  10.848  0.00  0.00    +0.005 A 
ATOM     21  C   UNL     1      -3.600  -9.667   9.934  0.00  0.00    +0.010 A 
ATOM     22  C   UNL     1      -4.496 -11.905   9.781  0.00  0.00    +0.010 A 
ATOM     23  C   UNL     1      -4.450 -10.588   9.324  0.00  0.00    +0.000 A 
BRANCH  23  24
ATOM      4  N   UNL     1      -6.235  -9.263   8.526  0.00  0.00    -0.255 NA
ATOM     24  C   UNL     1      -5.287 -10.177   8.217  0.00  0.00    +0.071 A 
ATOM     25  C   UNL     1      -5.102 -10.704   6.950  0.00  0.00    +0.028 A 
ATOM     26  C   UNL     1      -5.943 -10.263   5.933  0.00  0.00    +0.004 A 
ATOM     27  C   UNL     1      -7.033  -8.860   7.512  0.00  0.00    +0.111 A 
ATOM     28  C   UNL     1      -6.929  -9.325   6.212  0.00  0.00    +0.020 A 
ENDBRANCH  23  24
ENDBRANCH  10  12
ENDBRANCH   1  10
TORSDOF 4
ENDMDL
MODEL 7
REMARK VINA RESULT:      -6.9     28.066     32.958
REMARK  Name = 51137898
REMARK  5 active torsions:
REMARK  status: ('A' for Active; 'I' for Inactive)
REMARK    1  A    between atoms: N_1  and  C_10
REMARK    2  A    between atoms: N_2  and  C_14
REMARK    3  A    between atoms: C_5  and  C_9
REMARK    4  A    between atoms: C_10  and  C_12
REMARK    5  A    between atoms: C_23  and  C_24
REMARK                            x       y       z     vdW  Elec       q    Type
REMARK                         _______ _______ _______ _____ _____    ______ ____
ROOT
ATOM      1  N   UNL     1      -6.641  -9.948   7.551  0.00  0.00    -0.297 NA
ATOM      5  C   UNL     1      -8.691  -9.029   8.224  0.00  0.00    +0.070 C 
ATOM      6  C   UNL     1      -8.762  -9.409   6.736  0.00  0.00    +0.028 C 
ATOM      7  C   UNL     1      -7.192  -9.037   8.557  0.00  0.00    +0.096 C 
ATOM      8  C   UNL     1      -7.311  -9.582   6.304  0.00  0.00    +0.085 C 
ENDROOT
BRANCH   5   9
ATOM      2  N   UNL     1     -10.513  -7.676   9.322  0.00  0.00    -0.330 N 
ATOM      3  N   UNL     1      -8.954  -6.525   8.236  0.00  0.00    -0.232 NA
ATOM      9  C   UNL     1      -9.366  -7.724   8.579  0.00  0.00    +0.115 A 
ATOM     11  C   UNL     1     -10.864  -6.359   9.466  0.00  0.00    +0.069 A 
ATOM     13  C   UNL     1      -9.876  -5.660   8.779  0.00  0.00    +0.089 A 
ATOM     14  C   UNL     1     -11.232  -8.810   9.859  0.00  0.00    +0.150 C 
ATOM     15  C   UNL     1     -11.931  -5.737  10.117  0.00  0.00    +0.028 A 
ATOM     18  C   UNL     1      -9.937  -4.258   8.729  0.00  0.00    +0.030 A 
ATOM     19  C   UNL     1     -11.976  -4.340  10.057  0.00  0.00    +0.002 A 
ATOM     20  C   UNL     1     -10.998  -3.611   9.377  0.00  0.00    +0.002 A 
ENDBRANCH   5   9
BRANCH   1  10
ATOM     10  C   UNL     1      -5.192  -9.853   7.451  0.00  0.00    +0.119 C 
BRANCH  10  12
ATOM     12  C   UNL     1      -4.516 -10.219   8.746  0.00  0.00    -0.033 A 
ATOM     16  C   UNL     1      -3.822  -9.248   9.468  0.00  0.00    +0.005 A 
ATOM     17  C   UNL     1      -4.585 -11.528   9.223  0.00  0.00    +0.005 A 
ATOM     21  C   UNL     1      -3.196  -9.587  10.668  0.00  0.00    +0.010 A 
ATOM     22  C   UNL     1      -3.958 -11.867  10.421  0.00  0.00    +0.010 A 
ATOM     23  C   UNL     1      -3.265 -10.896  11.145  0.00  0.00    +0.000 A 
BRANCH  23  24
ATOM      4  N   UNL     1      -2.248 -12.545  12.495  0.00  0.00    -0.255 NA
ATOM     24  C   UNL     1      -2.615 -11.248  12.389  0.00  0.00    +0.071 A 
ATOM     25  C   UNL     1      -2.402 -10.299  13.375  0.00  0.00    +0.028 A 
ATOM     26  C   UNL     1      -1.771 -10.707  14.546  0.00  0.00    +0.004 A 
ATOM     27  C   UNL     1      -1.639 -12.905  13.647  0.00  0.00    +0.111 A 
ATOM     28  C   UNL     1      -1.380 -12.033  14.692  0.00  0.00    +0.020 A 
ENDBRANCH  23  24
ENDBRANCH  10  12
ENDBRANCH   1  10
TORSDOF 4
ENDMDL
MODEL 8
REMARK VINA RESULT:      -6.8     28.814     30.962
REMARK  Name = 51137898
REMARK  5 active torsions:
REMARK  status: ('A' for Active; 'I' for Inactive)
REMARK    1  A    between atoms: N_1  and  C_10
REMARK    2  A    between atoms: N_2  and  C_14
REMARK    3  A    between atoms: C_5  and  C_9
REMARK    4  A    between atoms: C_10  and  C_12
REMARK    5  A    between atoms: C_23  and  C_24
REMARK                            x       y       z     vdW  Elec       q    Type
REMARK                         _______ _______ _______ _____ _____    ______ ____
ROOT
ATOM      1  N   UNL     1      -5.188 -11.948  16.833  0.00  0.00    -0.297 NA
ATOM      5  C   UNL     1      -4.113 -11.511  14.795  0.00  0.00    +0.070 C 
ATOM      6  C   UNL     1      -3.436 -10.705  15.917  0.00  0.00    +0.028 C 
ATOM      7  C   UNL     1      -5.454 -11.959  15.393  0.00  0.00    +0.096 C 
ATOM      8  C   UNL     1      -4.435 -10.717  17.068  0.00  0.00    +0.085 C 
ENDROOT
BRANCH   5   9
ATOM      2  N   UNL     1      -3.300 -10.786  12.522  0.00  0.00    -0.330 N 
ATOM      3  N   UNL     1      -5.308 -10.051  13.128  0.00  0.00    -0.232 NA
ATOM      9  C   UNL     1      -4.269 -10.770  13.487  0.00  0.00    +0.115 A 
ATOM     11  C   UNL     1      -3.745 -10.026  11.471  0.00  0.00    +0.069 A 
ATOM     13  C   UNL     1      -4.999  -9.578  11.873  0.00  0.00    +0.089 A 
ATOM     14  C   UNL     1      -2.033 -11.478  12.593  0.00  0.00    +0.150 C 
ATOM     15  C   UNL     1      -3.173  -9.700  10.240  0.00  0.00    +0.028 A 
ATOM     18  C   UNL     1      -5.743  -8.757  11.010  0.00  0.00    +0.030 A 
ATOM     19  C   UNL     1      -3.927  -8.881   9.392  0.00  0.00    +0.002 A 
ATOM     20  C   UNL     1      -5.190  -8.418   9.768  0.00  0.00    +0.002 A 
ENDBRANCH   5   9
BRANCH   1  10
ATOM     10  C   UNL     1      -6.409 -12.010  17.622  0.00  0.00    +0.119 C 
BRANCH  10  12
ATOM     12  C   UNL     1      -7.434 -11.013  17.150  0.00  0.00    -0.033 A 
ATOM     16  C   UNL     1      -7.433  -9.717  17.665  0.00  0.00    +0.005 A 
ATOM     17  C   UNL     1      -8.382 -11.385  16.197  0.00  0.00    +0.005 A 
ATOM     21  C   UNL     1      -8.383  -8.793  17.227  0.00  0.00    +0.010 A 
ATOM     22  C   UNL     1      -9.331 -10.462  15.760  0.00  0.00    +0.010 A 
ATOM     23  C   UNL     1      -9.330  -9.165  16.274  0.00  0.00    +0.000 A 
BRANCH  23  24
ATOM      4  N   UNL     1     -10.996  -8.569  14.709  0.00  0.00    -0.255 NA
ATOM     24  C   UNL     1     -10.315  -8.207  15.820  0.00  0.00    +0.071 A 
ATOM     25  C   UNL     1     -10.516  -7.016  16.499  0.00  0.00    +0.028 A 
ATOM     26  C   UNL     1     -11.479  -6.141  16.006  0.00  0.00    +0.004 A 
ATOM     27  C   UNL     1     -11.923  -7.693  14.260  0.00  0.00    +0.111 A 
ATOM     28  C   UNL     1     -12.200  -6.479  14.867  0.00  0.00    +0.020 A 
ENDBRANCH  23  24
ENDBRANCH  10  12
ENDBRANCH   1  10
TORSDOF 4
ENDMDL
MODEL 9
REMARK VINA RESULT:      -6.7      1.540      2.363
REMARK  Name = 51137898
REMARK  5 active torsions:
REMARK  status: ('A' for Active; 'I' for Inactive)
REMARK    1  A    between atoms: N_1  and  C_10
REMARK    2  A    between atoms: N_2  and  C_14
REMARK    3  A    between atoms: C_5  and  C_9
REMARK    4  A    between atoms: C_10  and  C_12
REMARK    5  A    between atoms: C_23  and  C_24
REMARK                            x       y       z     vdW  Elec       q    Type
REMARK                         _______ _______ _______ _____ _____    ______ ____
ROOT
ATOM      1  N   UNL     1      19.646   7.571  21.956  0.00  0.00    -0.297 NA
ATOM      5  C   UNL     1      20.947   5.934  23.019  0.00  0.00    +0.070 C 
ATOM      6  C   UNL     1      21.675   7.287  23.075  0.00  0.00    +0.028 C 
ATOM      7  C   UNL     1      19.860   6.122  21.951  0.00  0.00    +0.096 C 
ATOM      8  C   UNL     1      20.987   8.150  22.025  0.00  0.00    +0.085 C 
ENDROOT
BRANCH   5   9
ATOM      2  N   UNL     1      22.362   4.492  21.513  0.00  0.00    -0.330 N 
ATOM      3  N   UNL     1      22.206   3.842  23.632  0.00  0.00    -0.232 NA
ATOM      9  C   UNL     1      21.838   4.743  22.750  0.00  0.00    +0.115 A 
ATOM     11  C   UNL     1      23.118   3.351  21.603  0.00  0.00    +0.069 A 
ATOM     13  C   UNL     1      23.004   2.964  22.934  0.00  0.00    +0.089 A 
ATOM     14  C   UNL     1      22.158   5.283  20.320  0.00  0.00    +0.150 C 
ATOM     15  C   UNL     1      23.868   2.645  20.661  0.00  0.00    +0.028 A 
ATOM     18  C   UNL     1      23.671   1.808  23.372  0.00  0.00    +0.030 A 
ATOM     19  C   UNL     1      24.525   1.496  21.113  0.00  0.00    +0.002 A 
ATOM     20  C   UNL     1      24.431   1.084  22.444  0.00  0.00    +0.002 A 
ENDBRANCH   5   9
BRANCH   1  10
ATOM     10  C   UNL     1      18.904   8.025  20.789  0.00  0.00    +0.119 C 
BRANCH  10  12
ATOM     12  C   UNL     1      17.416   7.947  21.006  0.00  0.00    -0.033 A 
ATOM     16  C   UNL     1      16.749   8.993  21.642  0.00  0.00    +0.005 A 
ATOM     17  C   UNL     1      16.706   6.829  20.569  0.00  0.00    +0.005 A 
ATOM     21  C   UNL     1      15.370   8.921  21.843  0.00  0.00    +0.010 A 
ATOM     22  C   UNL     1      15.328   6.757  20.770  0.00  0.00    +0.010 A 
ATOM     23  C   UNL     1      14.659   7.803  21.406  0.00  0.00    +0.000 A 
BRANCH  23  24
ATOM      4  N   UNL     1      12.662   6.551  21.264  0.00  0.00    -0.255 NA
ATOM     24  C   UNL     1      13.230   7.728  21.614  0.00  0.00    +0.071 A 
ATOM     25  C   UNL     1      12.527   8.802  22.135  0.00  0.00    +0.028 A 
ATOM     26  C   UNL     1      11.154   8.660  22.308  0.00  0.00    +0.004 A 
ATOM     27  C   UNL     1      11.326   6.450  21.447  0.00  0.00    +0.111 A 
ATOM     28  C   UNL     1      10.536   7.465  21.960  0.00  0.00    +0.020 A 
ENDBRANCH  23  24
ENDBRANCH  10  12
ENDBRANCH   1  10
TORSDOF 4
ENDMDL
MODEL 10
REMARK VINA RESULT:      -6.7     31.966     35.055
REMARK  Name = 51137898
REMARK  5 active torsions:
REMARK  status: ('A' for Active; 'I' for Inactive)
REMARK    1  A    between atoms: N_1  and  C_10
REMARK    2  A    between atoms: N_2  and  C_14
REMARK    3  A    between atoms: C_5  and  C_9
REMARK    4  A    between atoms: C_10  and  C_12
REMARK    5  A    between atoms: C_23  and  C_24
REMARK                            x       y       z     vdW  Elec       q    Type
REMARK                         _______ _______ _______ _____ _____    ______ ____
ROOT
ATOM      1  N   UNL     1     -14.219   6.949  33.955  0.00  0.00    -0.297 NA
ATOM      5  C   UNL     1     -15.409   5.196  32.949  0.00  0.00    +0.070 C 
ATOM      6  C   UNL     1     -15.322   4.955  34.465  0.00  0.00    +0.028 C 
ATOM      7  C   UNL     1     -14.348   6.268  32.664  0.00  0.00    +0.096 C 
ATOM      8  C   UNL     1     -14.208   5.875  34.948  0.00  0.00    +0.085 C 
ENDROOT
BRANCH   5   9
ATOM      2  N   UNL     1     -16.108   3.641  31.092  0.00  0.00    -0.330 N 
ATOM      3  N   UNL     1     -14.276   3.072  32.213  0.00  0.00    -0.232 NA
ATOM      9  C   UNL     1     -15.238   3.958  32.098  0.00  0.00    +0.115 A 
ATOM     11  C   UNL     1     -15.677   2.471  30.520  0.00  0.00    +0.069 A 
ATOM     13  C   UNL     1     -14.533   2.136  31.237  0.00  0.00    +0.089 A 
ATOM     14  C   UNL     1     -17.274   4.399  30.699  0.00  0.00    +0.150 C 
ATOM     15  C   UNL     1     -16.177   1.701  29.469  0.00  0.00    +0.028 A 
ATOM     18  C   UNL     1     -13.831   0.967  30.900  0.00  0.00    +0.030 A 
ATOM     19  C   UNL     1     -15.466   0.539  29.147  0.00  0.00    +0.002 A 
ATOM     20  C   UNL     1     -14.313   0.177  29.848  0.00  0.00    +0.002 A 
ENDBRANCH   5   9
BRANCH   1  10
ATOM     10  C   UNL     1     -13.028   7.782  34.026  0.00  0.00    +0.119 C 
BRANCH  10  12
ATOM     12  C   UNL     1     -12.782   8.518  32.735  0.00  0.00    -0.033 A 
ATOM     16  C   UNL     1     -13.827   9.199  32.111  0.00  0.00    +0.005 A 
ATOM     17  C   UNL     1     -11.509   8.517  32.164  0.00  0.00    +0.005 A 
ATOM     21  C   UNL     1     -13.598   9.881  30.915  0.00  0.00    +0.010 A 
ATOM     22  C   UNL     1     -11.281   9.198  30.969  0.00  0.00    +0.010 A 
ATOM     23  C   UNL     1     -12.326   9.881  30.345  0.00  0.00    +0.000 A 
BRANCH  23  24
ATOM      4  N   UNL     1     -12.523  11.868  29.084  0.00  0.00    -0.255 NA
ATOM     24  C   UNL     1     -12.089  10.587  29.104  0.00  0.00    +0.071 A 
ATOM     25  C   UNL     1     -11.463   9.964  28.038  0.00  0.00    +0.028 A 
ATOM     26  C   UNL     1     -11.267  10.703  26.875  0.00  0.00    +0.004 A 
ATOM     27  C   UNL     1     -12.317  12.553  27.937  0.00  0.00    +0.111 A 
ATOM     28  C   UNL     1     -11.700  12.022  26.817  0.00  0.00    +0.020 A 
ENDBRANCH  23  24
ENDBRANCH  10  12
ENDBRANCH   1  10
TORSDOF 4
ENDMDL
