REMARK  Name = 75536134
REMARK  8 active torsions:
REMARK  status: ('A' for Active; 'I' for Inactive)
REMARK    1  A    between atoms: O_4  and  C_12
REMARK    2  A    between atoms: O_5  and  C_14
REMARK    3  A    between atoms: O_7  and  C_21
REMARK    4  A    between atoms: O_7  and  C_25
REMARK    5  A    between atoms: N_8  and  C_11
REMARK    6  A    between atoms: N_9  and  C_22
REMARK    7  A    between atoms: C_10  and  C_15
REMARK    8  A    between atoms: C_28  and  C_29
REMARK                            x       y       z     vdW  Elec       q    Type
REMARK                         _______ _______ _______ _____ _____    ______ ____
ROOT
ATOM     10  C   UNL     1       3.165   0.946   0.956  0.00  0.00    +0.044 C 
ATOM     11  C   UNL     1       2.390   1.783  -0.087  0.00  0.00    +0.113 C 
ATOM     12  C   UNL     1       3.186   3.085  -0.161  0.00  0.00    +0.164 C 
ATOM     13  C   UNL     1       4.607   1.516   0.967  0.00  0.00    +0.044 C 
ATOM     14  C   UNL     1       4.633   2.610  -0.099  0.00  0.00    +0.145 C 
ENDROOT
BRANCH  11   8
ATOM      6  O   UNL     1       0.112   0.200  -0.804  0.00  0.00    -0.252 OA
ATOM      8  N   UNL     1       1.023   2.010   0.311  0.00  0.00    -0.293 N 
ATOM      9  N   UNL     1      -1.242   1.649   0.452  0.00  0.00    -0.269 N 
ATOM     18  C   UNL     1      -0.038   1.185  -0.084  0.00  0.00    +0.304 C 
ATOM     30  H   UNL     1       0.828   2.763   0.963  0.00  0.00    +0.151 HD
ATOM     33  H   UNL     1      -1.193   2.484   1.030  0.00  0.00    +0.156 HD
BRANCH   9  22
ATOM     22  C   UNL     1      -2.535   1.098   0.289  0.00  0.00    +0.035 A 
ATOM     23  C   UNL     1      -2.712  -0.049  -0.485  0.00  0.00    +0.024 A 
ATOM     24  C   UNL     1      -3.632   1.701   0.904  0.00  0.00    +0.024 A 
ATOM     26  C   UNL     1      -3.986  -0.592  -0.645  0.00  0.00    +0.014 A 
ATOM     27  C   UNL     1      -4.907   1.157   0.744  0.00  0.00    +0.014 A 
ATOM     28  C   UNL     1      -5.084   0.011  -0.031  0.00  0.00    +0.055 A 
BRANCH  28  29
ATOM      1  F   UNL     1      -7.338   0.285  -0.784  0.00  0.00    -0.166 F 
ATOM      2  F   UNL     1      -7.032  -0.949   0.973  0.00  0.00    -0.166 F 
ATOM      3  F   UNL     1      -6.446  -1.688  -0.986  0.00  0.00    -0.166 F 
ATOM     29  C   UNL     1      -6.447  -0.571  -0.202  0.00  0.00    +0.417 C 
ENDBRANCH  28  29
ENDBRANCH   9  22
ENDBRANCH  11   8
BRANCH  10  15
ATOM     15  C   UNL     1       3.086  -0.544   0.697  0.00  0.00    -0.042 A 
ATOM     16  C   UNL     1       3.561  -1.069  -0.505  0.00  0.00    +0.007 A 
ATOM     17  C   UNL     1       2.538  -1.391   1.659  0.00  0.00    +0.007 A 
ATOM     19  C   UNL     1       3.488  -2.441  -0.745  0.00  0.00    +0.046 A 
ATOM     20  C   UNL     1       2.465  -2.763   1.420  0.00  0.00    +0.046 A 
ATOM     21  C   UNL     1       2.940  -3.288   0.218  0.00  0.00    +0.120 A 
BRANCH  21   7
ATOM      7  O   UNL     1       2.867  -4.627  -0.015  0.00  0.00    -0.495 OA
ATOM     25  C   UNL     1       3.371  -5.096  -1.265  0.00  0.00    +0.277 C 
ENDBRANCH  21   7
ENDBRANCH  10  15
BRANCH  12   4
ATOM      4  O   UNL     1       2.933   3.801  -1.356  0.00  0.00    -0.387 OA
ATOM     31  H   UNL     1       3.540   4.560  -1.375  0.00  0.00    +0.210 HD
ENDBRANCH  12   4
BRANCH  14   5
ATOM      5  O   UNL     1       5.033   2.031  -1.337  0.00  0.00    -0.389 OA
ATOM     32  H   UNL     1       5.945   1.711  -1.229  0.00  0.00    +0.210 HD
ENDBRANCH  14   5
TORSDOF 7
