MODEL 1
REMARK VINA RESULT:      -7.1      0.000      0.000
REMARK  Name = 26743147
REMARK  8 active torsions:
REMARK  status: ('A' for Active; 'I' for Inactive)
REMARK    1  A    between atoms: O_3  and  C_19
REMARK    2  A    between atoms: O_3  and  C_25
REMARK    3  A    between atoms: N_5  and  C_18
REMARK    4  A    between atoms: C_7  and  C_13
REMARK    5  A    between atoms: C_8  and  C_12
REMARK    6  A    between atoms: C_12  and  C_14
REMARK    7  A    between atoms: C_13  and  C_15
REMARK    8  A    between atoms: C_17  and  C_19
REMARK                            x       y       z     vdW  Elec       q    Type
REMARK                         _______ _______ _______ _____ _____    ______ ____
ROOT
ATOM      4  N   UNL     1      10.069   9.502  22.601  0.00  0.00    -0.316 NA
ATOM      7  C   UNL     1      12.701   9.809  21.304  0.00  0.00    +0.004 C 
ATOM      8  C   UNL     1      11.618   8.838  20.778  0.00  0.00    +0.012 C 
ATOM      9  C   UNL     1      12.022  10.931  22.108  0.00  0.00    +0.019 C 
ATOM     10  C   UNL     1      10.679   8.370  21.902  0.00  0.00    +0.085 C 
ATOM     11  C   UNL     1      11.075  10.392  23.178  0.00  0.00    +0.081 C 
ATOM     31  H   UNL     1       9.462   9.154  23.342  0.00  0.00    +0.122 HD
ENDROOT
BRANCH   8  12
ATOM     12  C   UNL     1      12.202   7.637  20.032  0.00  0.00    +0.064 C 
BRANCH  12  14
ATOM      2  O   UNL     1      12.177   8.147  16.468  0.00  0.00    -0.356 OA
ATOM      6  N   UNL     1      11.591   7.719  17.652  0.00  0.00    -0.083 NA
ATOM     14  C   UNL     1      12.499   7.974  18.600  0.00  0.00    +0.084 A 
ATOM     16  C   UNL     1      13.665   8.559  18.077  0.00  0.00    +0.074 A 
ATOM     17  C   UNL     1      13.411   8.646  16.733  0.00  0.00    +0.175 A 
BRANCH  17  19
ATOM     19  C   UNL     1      14.176   9.148  15.585  0.00  0.00    +0.306 C 
BRANCH  19   3
ATOM      3  O   UNL     1      13.681  10.425  15.179  0.00  0.00    -0.484 OA
BRANCH   3  25
ATOM     25  C   UNL     1      14.584  11.452  15.163  0.00  0.00    +0.121 A 
ATOM     26  C   UNL     1      14.723  12.240  14.020  0.00  0.00    +0.045 A 
ATOM     27  C   UNL     1      15.364  11.713  16.289  0.00  0.00    +0.045 A 
ATOM     28  C   UNL     1      15.644  13.287  14.003  0.00  0.00    +0.004 A 
ATOM     29  C   UNL     1      16.284  12.760  16.272  0.00  0.00    +0.004 A 
ATOM     30  C   UNL     1      16.425  13.548  15.129  0.00  0.00    +0.000 A 
ENDBRANCH   3  25
ENDBRANCH  19   3
ENDBRANCH  17  19
ENDBRANCH  12  14
ENDBRANCH   8  12
BRANCH   7  13
ATOM     13  C   UNL     1      13.797   9.130  22.136  0.00  0.00    +0.100 C 
BRANCH  13  15
ATOM      1  O   UNL     1      15.689   9.777  20.794  0.00  0.00    -0.275 OA
ATOM      5  N   UNL     1      15.349   7.512  21.315  0.00  0.00    -0.285 N 
ATOM     15  C   UNL     1      15.058   8.874  21.331  0.00  0.00    +0.217 C 
ATOM     32  H   UNL     1      14.717   6.891  21.816  0.00  0.00    +0.155 HD
BRANCH   5  18
ATOM     18  C   UNL     1      16.436   6.869  20.677  0.00  0.00    +0.033 A 
ATOM     20  C   UNL     1      17.685   6.833  21.296  0.00  0.00    +0.023 A 
ATOM     21  C   UNL     1      16.258   6.273  19.428  0.00  0.00    +0.023 A 
ATOM     22  C   UNL     1      18.757   6.199  20.666  0.00  0.00    +0.002 A 
ATOM     23  C   UNL     1      17.329   5.639  18.799  0.00  0.00    +0.002 A 
ATOM     24  C   UNL     1      18.579   5.602  19.418  0.00  0.00    +0.000 A 
ENDBRANCH   5  18
ENDBRANCH  13  15
ENDBRANCH   7  13
TORSDOF 8
ENDMDL
MODEL 2
REMARK VINA RESULT:      -6.9      3.162      8.118
REMARK  Name = 26743147
REMARK  8 active torsions:
REMARK  status: ('A' for Active; 'I' for Inactive)
REMARK    1  A    between atoms: O_3  and  C_19
REMARK    2  A    between atoms: O_3  and  C_25
REMARK    3  A    between atoms: N_5  and  C_18
REMARK    4  A    between atoms: C_7  and  C_13
REMARK    5  A    between atoms: C_8  and  C_12
REMARK    6  A    between atoms: C_12  and  C_14
REMARK    7  A    between atoms: C_13  and  C_15
REMARK    8  A    between atoms: C_17  and  C_19
REMARK                            x       y       z     vdW  Elec       q    Type
REMARK                         _______ _______ _______ _____ _____    ______ ____
ROOT
ATOM      4  N   UNL     1      12.324   7.201  17.535  0.00  0.00    -0.316 NA
ATOM      7  C   UNL     1      12.996   9.380  19.408  0.00  0.00    +0.004 C 
ATOM      8  C   UNL     1      13.627   7.971  19.504  0.00  0.00    +0.012 C 
ATOM      9  C   UNL     1      12.533   9.626  17.961  0.00  0.00    +0.019 C 
ATOM     10  C   UNL     1      12.702   6.893  18.914  0.00  0.00    +0.085 C 
ATOM     11  C   UNL     1      11.652   8.496  17.431  0.00  0.00    +0.081 C 
ATOM     31  H   UNL     1      11.706   6.472  17.182  0.00  0.00    +0.122 HD
ENDROOT
BRANCH   8  12
ATOM     12  C   UNL     1      14.047   7.597  20.926  0.00  0.00    +0.064 C 
BRANCH  12  14
ATOM      2  O   UNL     1      17.168   9.126  21.866  0.00  0.00    -0.356 OA
ATOM      6  N   UNL     1      15.782   9.114  21.782  0.00  0.00    -0.083 NA
ATOM     14  C   UNL     1      15.481   7.956  21.185  0.00  0.00    +0.084 A 
ATOM     16  C   UNL     1      16.627   7.204  20.873  0.00  0.00    +0.074 A 
ATOM     17  C   UNL     1      17.660   7.983  21.322  0.00  0.00    +0.175 A 
BRANCH  17  19
ATOM     19  C   UNL     1      19.120   7.830  21.327  0.00  0.00    +0.306 C 
BRANCH  19   3
ATOM      3  O   UNL     1      19.505   6.720  20.514  0.00  0.00    -0.484 OA
BRANCH   3  25
ATOM     25  C   UNL     1      20.354   5.812  21.083  0.00  0.00    +0.121 A 
ATOM     26  C   UNL     1      20.612   4.601  20.441  0.00  0.00    +0.045 A 
ATOM     27  C   UNL     1      20.963   6.097  22.306  0.00  0.00    +0.045 A 
ATOM     28  C   UNL     1      21.477   3.674  21.022  0.00  0.00    +0.004 A 
ATOM     29  C   UNL     1      21.828   5.170  22.886  0.00  0.00    +0.004 A 
ATOM     30  C   UNL     1      22.086   3.958  22.244  0.00  0.00    +0.000 A 
ENDBRANCH   3  25
ENDBRANCH  19   3
ENDBRANCH  17  19
ENDBRANCH  12  14
ENDBRANCH   8  12
BRANCH   7  13
ATOM     13  C   UNL     1      11.848   9.619  20.395  0.00  0.00    +0.100 C 
BRANCH  13  15
ATOM      1  O   UNL     1      13.152  11.442  21.275  0.00  0.00    -0.275 OA
ATOM      5  N   UNL     1      11.008  11.020  22.137  0.00  0.00    -0.285 N 
ATOM     15  C   UNL     1      12.106  10.803  21.308  0.00  0.00    +0.217 C 
ATOM     32  H   UNL     1      10.213  10.394  22.035  0.00  0.00    +0.155 HD
BRANCH   5  18
ATOM     18  C   UNL     1      10.856  12.023  23.123  0.00  0.00    +0.033 A 
ATOM     20  C   UNL     1      10.892  11.683  24.475  0.00  0.00    +0.023 A 
ATOM     21  C   UNL     1      10.670  13.352  22.742  0.00  0.00    +0.023 A 
ATOM     22  C   UNL     1      10.742  12.672  25.447  0.00  0.00    +0.002 A 
ATOM     23  C   UNL     1      10.520  14.342  23.714  0.00  0.00    +0.002 A 
ATOM     24  C   UNL     1      10.557  14.002  25.067  0.00  0.00    +0.000 A 
ENDBRANCH   5  18
ENDBRANCH  13  15
ENDBRANCH   7  13
TORSDOF 8
ENDMDL
MODEL 3
REMARK VINA RESULT:      -6.9     26.317     30.645
REMARK  Name = 26743147
REMARK  8 active torsions:
REMARK  status: ('A' for Active; 'I' for Inactive)
REMARK    1  A    between atoms: O_3  and  C_19
REMARK    2  A    between atoms: O_3  and  C_25
REMARK    3  A    between atoms: N_5  and  C_18
REMARK    4  A    between atoms: C_7  and  C_13
REMARK    5  A    between atoms: C_8  and  C_12
REMARK    6  A    between atoms: C_12  and  C_14
REMARK    7  A    between atoms: C_13  and  C_15
REMARK    8  A    between atoms: C_17  and  C_19
REMARK                            x       y       z     vdW  Elec       q    Type
REMARK                         _______ _______ _______ _____ _____    ______ ____
ROOT
ATOM      4  N   UNL     1     -17.919   6.662  22.059  0.00  0.00    -0.316 NA
ATOM      7  C   UNL     1     -15.131   5.924  21.437  0.00  0.00    +0.004 C 
ATOM      8  C   UNL     1     -15.942   5.248  22.567  0.00  0.00    +0.012 C 
ATOM      9  C   UNL     1     -16.104   6.494  20.390  0.00  0.00    +0.019 C 
ATOM     10  C   UNL     1     -17.033   6.181  23.119  0.00  0.00    +0.085 C 
ATOM     11  C   UNL     1     -17.183   7.377  21.017  0.00  0.00    +0.081 C 
ATOM     31  H   UNL     1     -18.621   7.283  22.460  0.00  0.00    +0.122 HD
ENDROOT
BRANCH   8  12
ATOM     12  C   UNL     1     -15.063   4.720  23.702  0.00  0.00    +0.064 C 
BRANCH  12  14
ATOM      2  O   UNL     1     -16.765   1.688  24.636  0.00  0.00    -0.356 OA
ATOM      6  N   UNL     1     -16.266   2.576  23.692  0.00  0.00    -0.083 NA
ATOM     14  C   UNL     1     -15.714   3.564  24.404  0.00  0.00    +0.084 A 
ATOM     16  C   UNL     1     -15.833   3.354  25.789  0.00  0.00    +0.074 A 
ATOM     17  C   UNL     1     -16.501   2.161  25.880  0.00  0.00    +0.175 A 
BRANCH  17  19
ATOM     19  C   UNL     1     -16.963   1.339  27.006  0.00  0.00    +0.306 C 
BRANCH  19   3
ATOM      3  O   UNL     1     -16.976   2.109  28.210  0.00  0.00    -0.484 OA
BRANCH   3  25
ATOM     25  C   UNL     1     -15.977   1.855  29.108  0.00  0.00    +0.121 A 
ATOM     26  C   UNL     1     -15.895   0.606  29.723  0.00  0.00    +0.045 A 
ATOM     27  C   UNL     1     -15.040   2.844  29.409  0.00  0.00    +0.045 A 
ATOM     28  C   UNL     1     -14.876   0.345  30.640  0.00  0.00    +0.004 A 
ATOM     29  C   UNL     1     -14.022   2.584  30.325  0.00  0.00    +0.004 A 
ATOM     30  C   UNL     1     -13.939   1.334  30.941  0.00  0.00    +0.000 A 
ENDBRANCH   3  25
ENDBRANCH  19   3
ENDBRANCH  17  19
ENDBRANCH  12  14
ENDBRANCH   8  12
BRANCH   7  13
ATOM     13  C   UNL     1     -14.162   7.008  21.925  0.00  0.00    +0.100 C 
BRANCH  13  15
ATOM      1  O   UNL     1     -11.996   6.205  21.244  0.00  0.00    -0.275 OA
ATOM      5  N   UNL     1     -12.888   8.139  20.252  0.00  0.00    -0.285 N 
ATOM     15  C   UNL     1     -12.879   7.045  21.115  0.00  0.00    +0.217 C 
ATOM     32  H   UNL     1     -13.706   8.744  20.270  0.00  0.00    +0.155 HD
BRANCH   5  18
ATOM     18  C   UNL     1     -11.881   8.522  19.335  0.00  0.00    +0.033 A 
ATOM     20  C   UNL     1     -11.633   7.741  18.206  0.00  0.00    +0.023 A 
ATOM     21  C   UNL     1     -11.137   9.680  19.560  0.00  0.00    +0.023 A 
ATOM     22  C   UNL     1     -10.640   8.119  17.302  0.00  0.00    +0.002 A 
ATOM     23  C   UNL     1     -10.145  10.058  18.655  0.00  0.00    +0.002 A 
ATOM     24  C   UNL     1      -9.896   9.278  17.526  0.00  0.00    +0.000 A 
ENDBRANCH   5  18
ENDBRANCH  13  15
ENDBRANCH   7  13
TORSDOF 8
ENDMDL
MODEL 4
REMARK VINA RESULT:      -6.8     26.660     29.082
REMARK  Name = 26743147
REMARK  8 active torsions:
REMARK  status: ('A' for Active; 'I' for Inactive)
REMARK    1  A    between atoms: O_3  and  C_19
REMARK    2  A    between atoms: O_3  and  C_25
REMARK    3  A    between atoms: N_5  and  C_18
REMARK    4  A    between atoms: C_7  and  C_13
REMARK    5  A    between atoms: C_8  and  C_12
REMARK    6  A    between atoms: C_12  and  C_14
REMARK    7  A    between atoms: C_13  and  C_15
REMARK    8  A    between atoms: C_17  and  C_19
REMARK                            x       y       z     vdW  Elec       q    Type
REMARK                         _______ _______ _______ _____ _____    ______ ____
ROOT
ATOM      4  N   UNL     1      -6.587 -13.142  18.592  0.00  0.00    -0.316 NA
ATOM      7  C   UNL     1      -7.049 -10.857  16.783  0.00  0.00    +0.004 C 
ATOM      8  C   UNL     1      -5.634 -11.382  17.122  0.00  0.00    +0.012 C 
ATOM      9  C   UNL     1      -8.067 -11.993  16.982  0.00  0.00    +0.019 C 
ATOM     10  C   UNL     1      -5.597 -12.068  18.498  0.00  0.00    +0.085 C 
ATOM     11  C   UNL     1      -7.944 -12.653  18.354  0.00  0.00    +0.081 C 
ATOM     31  H   UNL     1      -6.539 -13.565  19.517  0.00  0.00    +0.122 HD
ENDROOT
BRANCH   8  12
ATOM     12  C   UNL     1      -4.556 -10.300  17.033  0.00  0.00    +0.064 C 
BRANCH  12  14
ATOM      2  O   UNL     1      -1.570 -11.208  15.239  0.00  0.00    -0.356 OA
ATOM      6  N   UNL     1      -2.263 -10.929  16.410  0.00  0.00    -0.083 NA
ATOM     14  C   UNL     1      -3.511 -10.652  16.016  0.00  0.00    +0.084 A 
ATOM     16  C   UNL     1      -3.661 -10.740  14.621  0.00  0.00    +0.074 A 
ATOM     17  C   UNL     1      -2.412 -11.093  14.181  0.00  0.00    +0.175 A 
BRANCH  17  19
ATOM     19  C   UNL     1      -1.840 -11.357  12.855  0.00  0.00    +0.306 C 
BRANCH  19   3
ATOM      3  O   UNL     1      -1.961 -10.200  12.024  0.00  0.00    -0.484 OA
BRANCH   3  25
ATOM     25  C   UNL     1      -2.839 -10.289  10.979  0.00  0.00    +0.121 A 
ATOM     26  C   UNL     1      -3.179  -9.146  10.256  0.00  0.00    +0.045 A 
ATOM     27  C   UNL     1      -3.394 -11.522  10.637  0.00  0.00    +0.045 A 
ATOM     28  C   UNL     1      -4.075  -9.236   9.191  0.00  0.00    +0.004 A 
ATOM     29  C   UNL     1      -4.289 -11.612   9.572  0.00  0.00    +0.004 A 
ATOM     30  C   UNL     1      -4.630 -10.469   8.848  0.00  0.00    +0.000 A 
ENDBRANCH   3  25
ENDBRANCH  19   3
ENDBRANCH  17  19
ENDBRANCH  12  14
ENDBRANCH   8  12
BRANCH   7  13
ATOM     13  C   UNL     1      -7.460  -9.611  17.577  0.00  0.00    +0.100 C 
BRANCH  13  15
ATOM      1  O   UNL     1      -9.827  -9.489  18.005  0.00  0.00    -0.275 OA
ATOM      5  N   UNL     1      -8.927  -8.423  16.115  0.00  0.00    -0.285 N 
ATOM     15  C   UNL     1      -8.886  -9.182  17.282  0.00  0.00    +0.217 C 
ATOM     32  H   UNL     1      -8.048  -8.259  15.630  0.00  0.00    +0.155 HD
BRANCH   5  18
ATOM     18  C   UNL     1     -10.063  -7.840  15.505  0.00  0.00    +0.033 A 
ATOM     20  C   UNL     1     -10.813  -8.570  14.584  0.00  0.00    +0.023 A 
ATOM     21  C   UNL     1     -10.432  -6.533  15.826  0.00  0.00    +0.023 A 
ATOM     22  C   UNL     1     -11.932  -7.994  13.983  0.00  0.00    +0.002 A 
ATOM     23  C   UNL     1     -11.553  -5.958  15.226  0.00  0.00    +0.002 A 
ATOM     24  C   UNL     1     -12.302  -6.688  14.304  0.00  0.00    +0.000 A 
ENDBRANCH   5  18
ENDBRANCH  13  15
ENDBRANCH   7  13
TORSDOF 8
ENDMDL
MODEL 5
REMARK VINA RESULT:      -6.2     27.127     29.014
REMARK  Name = 26743147
REMARK  8 active torsions:
REMARK  status: ('A' for Active; 'I' for Inactive)
REMARK    1  A    between atoms: O_3  and  C_19
REMARK    2  A    between atoms: O_3  and  C_25
REMARK    3  A    between atoms: N_5  and  C_18
REMARK    4  A    between atoms: C_7  and  C_13
REMARK    5  A    between atoms: C_8  and  C_12
REMARK    6  A    between atoms: C_12  and  C_14
REMARK    7  A    between atoms: C_13  and  C_15
REMARK    8  A    between atoms: C_17  and  C_19
REMARK                            x       y       z     vdW  Elec       q    Type
REMARK                         _______ _______ _______ _____ _____    ______ ____
ROOT
ATOM      4  N   UNL     1      -6.371 -11.285  20.211  0.00  0.00    -0.316 NA
ATOM      7  C   UNL     1      -5.980 -11.427  17.290  0.00  0.00    +0.004 C 
ATOM      8  C   UNL     1      -7.356 -11.140  17.936  0.00  0.00    +0.012 C 
ATOM      9  C   UNL     1      -4.869 -11.012  18.269  0.00  0.00    +0.019 C 
ATOM     10  C   UNL     1      -7.459 -11.745  19.346  0.00  0.00    +0.085 C 
ATOM     11  C   UNL     1      -5.059 -11.618  19.659  0.00  0.00    +0.081 C 
ATOM     31  H   UNL     1      -6.468 -11.713  21.131  0.00  0.00    +0.122 HD
ENDROOT
BRANCH   8  12
ATOM     12  C   UNL     1      -8.532 -11.596  17.070  0.00  0.00    +0.064 C 
BRANCH  12  14
ATOM      2  O   UNL     1      -8.876  -9.141  14.459  0.00  0.00    -0.356 OA
ATOM      6  N   UNL     1      -8.917  -9.533  15.791  0.00  0.00    -0.083 NA
ATOM     14  C   UNL     1      -8.591 -10.829  15.781  0.00  0.00    +0.084 A 
ATOM     16  C   UNL     1      -8.335 -11.304  14.483  0.00  0.00    +0.074 A 
ATOM     17  C   UNL     1      -8.528 -10.204  13.690  0.00  0.00    +0.175 A 
BRANCH  17  19
ATOM     19  C   UNL     1      -8.436  -9.966  12.244  0.00  0.00    +0.306 C 
BRANCH  19   3
ATOM      3  O   UNL     1      -7.437 -10.808  11.665  0.00  0.00    -0.484 OA
BRANCH   3  25
ATOM     25  C   UNL     1      -6.461 -10.185  10.938  0.00  0.00    +0.121 A 
ATOM     26  C   UNL     1      -5.821  -9.057  11.452  0.00  0.00    +0.045 A 
ATOM     27  C   UNL     1      -6.104 -10.677   9.682  0.00  0.00    +0.045 A 
ATOM     28  C   UNL     1      -4.826  -8.421  10.711  0.00  0.00    +0.004 A 
ATOM     29  C   UNL     1      -5.109 -10.041   8.941  0.00  0.00    +0.004 A 
ATOM     30  C   UNL     1      -4.469  -8.912   9.455  0.00  0.00    +0.000 A 
ENDBRANCH   3  25
ENDBRANCH  19   3
ENDBRANCH  17  19
ENDBRANCH  12  14
ENDBRANCH   8  12
BRANCH   7  13
ATOM     13  C   UNL     1      -5.793 -12.880  16.838  0.00  0.00    +0.100 C 
BRANCH  13  15
ATOM      1  O   UNL     1      -4.080 -14.017  15.583  0.00  0.00    -0.275 OA
ATOM      5  N   UNL     1      -4.758 -11.860  14.943  0.00  0.00    -0.285 N 
ATOM     15  C   UNL     1      -4.770 -13.013  15.725  0.00  0.00    +0.217 C 
ATOM     32  H   UNL     1      -5.400 -11.113  15.199  0.00  0.00    +0.155 HD
BRANCH   5  18
ATOM     18  C   UNL     1      -3.950 -11.592  13.814  0.00  0.00    +0.033 A 
ATOM     20  C   UNL     1      -3.010 -10.562  13.858  0.00  0.00    +0.023 A 
ATOM     21  C   UNL     1      -4.092 -12.358  12.657  0.00  0.00    +0.023 A 
ATOM     22  C   UNL     1      -2.213 -10.298  12.744  0.00  0.00    +0.002 A 
ATOM     23  C   UNL     1      -3.293 -12.094  11.543  0.00  0.00    +0.002 A 
ATOM     24  C   UNL     1      -2.354 -11.064  11.587  0.00  0.00    +0.000 A 
ENDBRANCH   5  18
ENDBRANCH  13  15
ENDBRANCH   7  13
TORSDOF 8
ENDMDL
MODEL 6
REMARK VINA RESULT:      -6.2     27.051     29.574
REMARK  Name = 26743147
REMARK  8 active torsions:
REMARK  status: ('A' for Active; 'I' for Inactive)
REMARK    1  A    between atoms: O_3  and  C_19
REMARK    2  A    between atoms: O_3  and  C_25
REMARK    3  A    between atoms: N_5  and  C_18
REMARK    4  A    between atoms: C_7  and  C_13
REMARK    5  A    between atoms: C_8  and  C_12
REMARK    6  A    between atoms: C_12  and  C_14
REMARK    7  A    between atoms: C_13  and  C_15
REMARK    8  A    between atoms: C_17  and  C_19
REMARK                            x       y       z     vdW  Elec       q    Type
REMARK                         _______ _______ _______ _____ _____    ______ ____
ROOT
ATOM      4  N   UNL     1      -7.209 -10.600  19.858  0.00  0.00    -0.316 NA
ATOM      7  C   UNL     1      -6.098 -10.647  17.125  0.00  0.00    +0.004 C 
ATOM      8  C   UNL     1      -7.484 -10.044  17.454  0.00  0.00    +0.012 C 
ATOM      9  C   UNL     1      -5.222 -10.611  18.390  0.00  0.00    +0.019 C 
ATOM     10  C   UNL     1      -8.103 -10.693  18.704  0.00  0.00    +0.085 C 
ATOM     11  C   UNL     1      -5.918 -11.235  19.599  0.00  0.00    +0.081 C 
ATOM     31  H   UNL     1      -7.648 -11.047  20.662  0.00  0.00    +0.122 HD
ENDROOT
BRANCH   8  12
ATOM     12  C   UNL     1      -8.460 -10.109  16.277  0.00  0.00    +0.064 C 
BRANCH  12  14
ATOM      2  O   UNL     1     -11.431  -8.273  17.150  0.00  0.00    -0.356 OA
ATOM      6  N   UNL     1     -10.604  -9.386  17.236  0.00  0.00    -0.083 NA
ATOM     14  C   UNL     1      -9.571  -9.112  16.433  0.00  0.00    +0.084 A 
ATOM     16  C   UNL     1      -9.690  -7.853  15.821  0.00  0.00    +0.074 A 
ATOM     17  C   UNL     1     -10.876  -7.366  16.306  0.00  0.00    +0.175 A 
BRANCH  17  19
ATOM     19  C   UNL     1     -11.623  -6.120  16.098  0.00  0.00    +0.306 C 
BRANCH  19   3
ATOM      3  O   UNL     1     -11.415  -5.632  14.771  0.00  0.00    -0.484 OA
BRANCH   3  25
ATOM     25  C   UNL     1     -12.530  -5.238  14.084  0.00  0.00    +0.121 A 
ATOM     26  C   UNL     1     -13.774  -5.780  14.405  0.00  0.00    +0.045 A 
ATOM     27  C   UNL     1     -12.423  -4.293  13.063  0.00  0.00    +0.045 A 
ATOM     28  C   UNL     1     -14.911  -5.379  13.704  0.00  0.00    +0.004 A 
ATOM     29  C   UNL     1     -13.560  -3.892  12.363  0.00  0.00    +0.004 A 
ATOM     30  C   UNL     1     -14.805  -4.435  12.683  0.00  0.00    +0.000 A 
ENDBRANCH   3  25
ENDBRANCH  19   3
ENDBRANCH  17  19
ENDBRANCH  12  14
ENDBRANCH   8  12
BRANCH   7  13
ATOM     13  C   UNL     1      -6.154 -12.063  16.541  0.00  0.00    +0.100 C 
BRANCH  13  15
ATOM      1  O   UNL     1      -4.935 -13.319  14.887  0.00  0.00    -0.275 OA
ATOM      5  N   UNL     1      -4.928 -10.970  14.808  0.00  0.00    -0.285 N 
ATOM     15  C   UNL     1      -5.270 -12.221  15.318  0.00  0.00    +0.217 C 
ATOM     32  H   UNL     1      -5.293 -10.152  15.289  0.00  0.00    +0.155 HD
BRANCH   5  18
ATOM     18  C   UNL     1      -4.122 -10.690  13.680  0.00  0.00    +0.033 A 
ATOM     20  C   UNL     1      -2.732 -10.711  13.794  0.00  0.00    +0.023 A 
ATOM     21  C   UNL     1      -4.717 -10.393  12.454  0.00  0.00    +0.023 A 
ATOM     22  C   UNL     1      -1.937 -10.434  12.682  0.00  0.00    +0.002 A 
ATOM     23  C   UNL     1      -3.921 -10.117  11.341  0.00  0.00    +0.002 A 
ATOM     24  C   UNL     1      -2.531 -10.137  11.455  0.00  0.00    +0.000 A 
ENDBRANCH   5  18
ENDBRANCH  13  15
ENDBRANCH   7  13
TORSDOF 8
ENDMDL
MODEL 7
REMARK VINA RESULT:      -6.2     26.876     29.713
REMARK  Name = 26743147
REMARK  8 active torsions:
REMARK  status: ('A' for Active; 'I' for Inactive)
REMARK    1  A    between atoms: O_3  and  C_19
REMARK    2  A    between atoms: O_3  and  C_25
REMARK    3  A    between atoms: N_5  and  C_18
REMARK    4  A    between atoms: C_7  and  C_13
REMARK    5  A    between atoms: C_8  and  C_12
REMARK    6  A    between atoms: C_12  and  C_14
REMARK    7  A    between atoms: C_13  and  C_15
REMARK    8  A    between atoms: C_17  and  C_19
REMARK                            x       y       z     vdW  Elec       q    Type
REMARK                         _______ _______ _______ _____ _____    ______ ____
ROOT
ATOM      4  N   UNL     1      -7.396  -9.502  14.314  0.00  0.00    -0.316 NA
ATOM      7  C   UNL     1      -7.534  -9.667  17.257  0.00  0.00    +0.004 C 
ATOM      8  C   UNL     1      -6.196  -9.674  16.481  0.00  0.00    +0.012 C 
ATOM      9  C   UNL     1      -8.607  -8.971  16.401  0.00  0.00    +0.019 C 
ATOM     10  C   UNL     1      -6.367 -10.231  15.057  0.00  0.00    +0.085 C 
ATOM     11  C   UNL     1      -8.692  -9.549  14.989  0.00  0.00    +0.081 C 
ATOM     31  H   UNL     1      -7.487  -9.903  13.382  0.00  0.00    +0.122 HD
ENDROOT
BRANCH   8  12
ATOM     12  C   UNL     1      -5.081 -10.420  17.217  0.00  0.00    +0.064 C 
BRANCH  12  14
ATOM      2  O   UNL     1      -3.577 -12.968  15.167  0.00  0.00    -0.356 OA
ATOM      6  N   UNL     1      -4.517 -12.530  16.091  0.00  0.00    -0.083 NA
ATOM     14  C   UNL     1      -4.249 -11.233  16.269  0.00  0.00    +0.084 A 
ATOM     16  C   UNL     1      -3.160 -10.802  15.492  0.00  0.00    +0.074 A 
ATOM     17  C   UNL     1      -2.775 -11.930  14.817  0.00  0.00    +0.175 A 
BRANCH  17  19
ATOM     19  C   UNL     1      -1.717 -12.219  13.841  0.00  0.00    +0.306 C 
BRANCH  19   3
ATOM      3  O   UNL     1      -2.288 -12.527  12.567  0.00  0.00    -0.484 OA
BRANCH   3  25
ATOM     25  C   UNL     1      -2.572 -11.465  11.754  0.00  0.00    +0.121 A 
ATOM     26  C   UNL     1      -1.756 -10.334  11.774  0.00  0.00    +0.045 A 
ATOM     27  C   UNL     1      -3.677 -11.513  10.904  0.00  0.00    +0.045 A 
ATOM     28  C   UNL     1      -2.046  -9.250  10.945  0.00  0.00    +0.004 A 
ATOM     29  C   UNL     1      -3.966 -10.430  10.076  0.00  0.00    +0.004 A 
ATOM     30  C   UNL     1      -3.151  -9.298  10.095  0.00  0.00    +0.000 A 
ENDBRANCH   3  25
ENDBRANCH  19   3
ENDBRANCH  17  19
ENDBRANCH  12  14
ENDBRANCH   8  12
BRANCH   7  13
ATOM     13  C   UNL     1      -8.007 -11.057  17.700  0.00  0.00    +0.100 C 
BRANCH  13  15
ATOM      1  O   UNL     1      -8.338 -10.913  20.081  0.00  0.00    -0.275 OA
ATOM      5  N   UNL     1     -10.196 -11.084  18.654  0.00  0.00    -0.285 N 
ATOM     15  C   UNL     1      -8.841 -11.007  18.967  0.00  0.00    +0.217 C 
ATOM     32  H   UNL     1     -10.447 -11.159  17.671  0.00  0.00    +0.155 HD
BRANCH   5  18
ATOM     18  C   UNL     1     -11.291 -11.069  19.550  0.00  0.00    +0.033 A 
ATOM     20  C   UNL     1     -11.994  -9.886  19.773  0.00  0.00    +0.023 A 
ATOM     21  C   UNL     1     -11.666 -12.239  20.211  0.00  0.00    +0.023 A 
ATOM     22  C   UNL     1     -13.073  -9.872  20.657  0.00  0.00    +0.002 A 
ATOM     23  C   UNL     1     -12.746 -12.225  21.095  0.00  0.00    +0.002 A 
ATOM     24  C   UNL     1     -13.449 -11.042  21.317  0.00  0.00    +0.000 A 
ENDBRANCH   5  18
ENDBRANCH  13  15
ENDBRANCH   7  13
TORSDOF 8
ENDMDL
MODEL 8
REMARK VINA RESULT:      -6.1      3.163      8.246
REMARK  Name = 26743147
REMARK  8 active torsions:
REMARK  status: ('A' for Active; 'I' for Inactive)
REMARK    1  A    between atoms: O_3  and  C_19
REMARK    2  A    between atoms: O_3  and  C_25
REMARK    3  A    between atoms: N_5  and  C_18
REMARK    4  A    between atoms: C_7  and  C_13
REMARK    5  A    between atoms: C_8  and  C_12
REMARK    6  A    between atoms: C_12  and  C_14
REMARK    7  A    between atoms: C_13  and  C_15
REMARK    8  A    between atoms: C_17  and  C_19
REMARK                            x       y       z     vdW  Elec       q    Type
REMARK                         _______ _______ _______ _____ _____    ______ ____
ROOT
ATOM      4  N   UNL     1      12.913   6.979  21.797  0.00  0.00    -0.316 NA
ATOM      7  C   UNL     1      13.848   7.477  19.043  0.00  0.00    +0.004 C 
ATOM      8  C   UNL     1      14.814   7.362  20.246  0.00  0.00    +0.012 C 
ATOM      9  C   UNL     1      12.550   6.718  19.367  0.00  0.00    +0.019 C 
ATOM     10  C   UNL     1      14.129   7.759  21.564  0.00  0.00    +0.085 C 
ATOM     11  C   UNL     1      11.949   7.136  20.709  0.00  0.00    +0.081 C 
ATOM     31  H   UNL     1      12.484   7.275  22.672  0.00  0.00    +0.122 HD
ENDROOT
BRANCH   8  12
ATOM     12  C   UNL     1      16.108   8.155  20.053  0.00  0.00    +0.064 C 
BRANCH  12  14
ATOM      2  O   UNL     1      18.692   5.651  19.961  0.00  0.00    -0.356 OA
ATOM      6  N   UNL     1      17.504   6.207  19.507  0.00  0.00    -0.083 NA
ATOM     14  C   UNL     1      17.316   7.291  20.267  0.00  0.00    +0.084 A 
ATOM     16  C   UNL     1      18.345   7.467  21.208  0.00  0.00    +0.074 A 
ATOM     17  C   UNL     1      19.185   6.410  20.974  0.00  0.00    +0.175 A 
BRANCH  17  19
ATOM     19  C   UNL     1      20.447   5.963  21.575  0.00  0.00    +0.306 C 
BRANCH  19   3
ATOM      3  O   UNL     1      21.481   5.925  20.588  0.00  0.00    -0.484 OA
BRANCH   3  25
ATOM     25  C   UNL     1      22.335   4.859  20.639  0.00  0.00    +0.121 A 
ATOM     26  C   UNL     1      21.873   3.617  21.076  0.00  0.00    +0.045 A 
ATOM     27  C   UNL     1      23.667   5.012  20.256  0.00  0.00    +0.045 A 
ATOM     28  C   UNL     1      22.743   2.528  21.129  0.00  0.00    +0.004 A 
ATOM     29  C   UNL     1      24.537   3.924  20.309  0.00  0.00    +0.004 A 
ATOM     30  C   UNL     1      24.076   2.681  20.746  0.00  0.00    +0.000 A 
ENDBRANCH   3  25
ENDBRANCH  19   3
ENDBRANCH  17  19
ENDBRANCH  12  14
ENDBRANCH   8  12
BRANCH   7  13
ATOM     13  C   UNL     1      13.545   8.919  18.620  0.00  0.00    +0.100 C 
BRANCH  13  15
ATOM      1  O   UNL     1      13.965   8.321  16.326  0.00  0.00    -0.275 OA
ATOM      5  N   UNL     1      14.265  10.544  17.025  0.00  0.00    -0.285 N 
ATOM     15  C   UNL     1      13.945   9.197  17.183  0.00  0.00    +0.217 C 
ATOM     32  H   UNL     1      14.195  11.142  17.845  0.00  0.00    +0.155 HD
BRANCH   5  18
ATOM     18  C   UNL     1      14.682  11.198  15.842  0.00  0.00    +0.033 A 
ATOM     20  C   UNL     1      16.014  11.583  15.691  0.00  0.00    +0.023 A 
ATOM     21  C   UNL     1      13.762  11.457  14.826  0.00  0.00    +0.023 A 
ATOM     22  C   UNL     1      16.426  12.228  14.525  0.00  0.00    +0.002 A 
ATOM     23  C   UNL     1      14.174  12.102  13.659  0.00  0.00    +0.002 A 
ATOM     24  C   UNL     1      15.506  12.487  13.509  0.00  0.00    +0.000 A 
ENDBRANCH   5  18
ENDBRANCH  13  15
ENDBRANCH   7  13
TORSDOF 8
ENDMDL
MODEL 9
REMARK VINA RESULT:      -6.1     27.273     29.502
REMARK  Name = 26743147
REMARK  8 active torsions:
REMARK  status: ('A' for Active; 'I' for Inactive)
REMARK    1  A    between atoms: O_3  and  C_19
REMARK    2  A    between atoms: O_3  and  C_25
REMARK    3  A    between atoms: N_5  and  C_18
REMARK    4  A    between atoms: C_7  and  C_13
REMARK    5  A    between atoms: C_8  and  C_12
REMARK    6  A    between atoms: C_12  and  C_14
REMARK    7  A    between atoms: C_13  and  C_15
REMARK    8  A    between atoms: C_17  and  C_19
REMARK                            x       y       z     vdW  Elec       q    Type
REMARK                         _______ _______ _______ _____ _____    ______ ____
ROOT
ATOM      4  N   UNL     1      -5.860 -11.369  18.655  0.00  0.00    -0.316 NA
ATOM      7  C   UNL     1      -5.456 -10.108  16.018  0.00  0.00    +0.004 C 
ATOM      8  C   UNL     1      -6.830 -10.137  16.729  0.00  0.00    +0.012 C 
ATOM      9  C   UNL     1      -4.342 -10.231  17.072  0.00  0.00    +0.019 C 
ATOM     10  C   UNL     1      -6.951 -11.339  17.681  0.00  0.00    +0.085 C 
ATOM     11  C   UNL     1      -4.551 -11.423  18.005  0.00  0.00    +0.081 C 
ATOM     31  H   UNL     1      -5.969 -12.181  19.260  0.00  0.00    +0.122 HD
ENDROOT
BRANCH   8  12
ATOM     12  C   UNL     1      -8.009 -10.102  15.756  0.00  0.00    +0.064 C 
BRANCH  12  14
ATOM      2  O   UNL     1      -9.966  -7.511  17.311  0.00  0.00    -0.356 OA
ATOM      6  N   UNL     1      -8.978  -8.487  17.335  0.00  0.00    -0.083 NA
ATOM     14  C   UNL     1      -8.971  -9.003  16.102  0.00  0.00    +0.084 A 
ATOM     16  C   UNL     1      -9.925  -8.398  15.266  0.00  0.00    +0.074 A 
ATOM     17  C   UNL     1     -10.523  -7.467  16.074  0.00  0.00    +0.175 A 
BRANCH  17  19
ATOM     19  C   UNL     1     -11.594  -6.484  15.871  0.00  0.00    +0.306 C 
BRANCH  19   3
ATOM      3  O   UNL     1     -11.383  -5.765  14.654  0.00  0.00    -0.484 OA
BRANCH   3  25
ATOM     25  C   UNL     1     -12.500  -5.286  14.027  0.00  0.00    +0.121 A 
ATOM     26  C   UNL     1     -12.382  -4.284  13.063  0.00  0.00    +0.045 A 
ATOM     27  C   UNL     1     -13.756  -5.800  14.349  0.00  0.00    +0.045 A 
ATOM     28  C   UNL     1     -13.521  -3.795  12.423  0.00  0.00    +0.004 A 
ATOM     29  C   UNL     1     -14.894  -5.311  13.710  0.00  0.00    +0.004 A 
ATOM     30  C   UNL     1     -14.777  -4.309  12.746  0.00  0.00    +0.000 A 
ENDBRANCH   3  25
ENDBRANCH  19   3
ENDBRANCH  17  19
ENDBRANCH  12  14
ENDBRANCH   8  12
BRANCH   7  13
ATOM     13  C   UNL     1      -5.295 -11.173  14.927  0.00  0.00    +0.100 C 
BRANCH  13  15
ATOM      1  O   UNL     1      -3.333 -10.425  13.748  0.00  0.00    -0.275 OA
ATOM      5  N   UNL     1      -5.404 -10.493  12.641  0.00  0.00    -0.285 N 
ATOM     15  C   UNL     1      -4.537 -10.653  13.719  0.00  0.00    +0.217 C 
ATOM     32  H   UNL     1      -6.383 -10.731  12.786  0.00  0.00    +0.155 HD
BRANCH   5  18
ATOM     18  C   UNL     1      -5.088 -10.033  11.341  0.00  0.00    +0.033 A 
ATOM     20  C   UNL     1      -5.367  -8.715  10.981  0.00  0.00    +0.023 A 
ATOM     21  C   UNL     1      -4.498 -10.898  10.419  0.00  0.00    +0.023 A 
ATOM     22  C   UNL     1      -5.056  -8.261   9.699  0.00  0.00    +0.002 A 
ATOM     23  C   UNL     1      -4.186 -10.444   9.137  0.00  0.00    +0.002 A 
ATOM     24  C   UNL     1      -4.465  -9.126   8.777  0.00  0.00    +0.000 A 
ENDBRANCH   5  18
ENDBRANCH  13  15
ENDBRANCH   7  13
TORSDOF 8
ENDMDL
MODEL 10
REMARK VINA RESULT:      -6.0     29.217     31.654
REMARK  Name = 26743147
REMARK  8 active torsions:
REMARK  status: ('A' for Active; 'I' for Inactive)
REMARK    1  A    between atoms: O_3  and  C_19
REMARK    2  A    between atoms: O_3  and  C_25
REMARK    3  A    between atoms: N_5  and  C_18
REMARK    4  A    between atoms: C_7  and  C_13
REMARK    5  A    between atoms: C_8  and  C_12
REMARK    6  A    between atoms: C_12  and  C_14
REMARK    7  A    between atoms: C_13  and  C_15
REMARK    8  A    between atoms: C_17  and  C_19
REMARK                            x       y       z     vdW  Elec       q    Type
REMARK                         _______ _______ _______ _____ _____    ______ ____
ROOT
ATOM      4  N   UNL     1     -14.069   9.339  30.701  0.00  0.00    -0.316 NA
ATOM      7  C   UNL     1     -11.944   8.794  32.674  0.00  0.00    +0.004 C 
ATOM      8  C   UNL     1     -13.326   8.102  32.722  0.00  0.00    +0.012 C 
ATOM      9  C   UNL     1     -11.658   9.246  31.232  0.00  0.00    +0.019 C 
ATOM     10  C   UNL     1     -14.419   8.969  32.073  0.00  0.00    +0.085 C 
ATOM     11  C   UNL     1     -12.802  10.067  30.640  0.00  0.00    +0.081 C 
ATOM     31  H   UNL     1     -14.809   9.918  30.308  0.00  0.00    +0.122 HD
ENDROOT
BRANCH   8  12
ATOM     12  C   UNL     1     -13.740   7.687  34.135  0.00  0.00    +0.064 C 
BRANCH  12  14
ATOM      2  O   UNL     1     -14.198   4.263  35.147  0.00  0.00    -0.356 OA
ATOM      6  N   UNL     1     -13.967   5.605  35.421  0.00  0.00    -0.083 NA
ATOM     14  C   UNL     1     -13.964   6.206  34.227  0.00  0.00    +0.084 A 
ATOM     16  C   UNL     1     -14.187   5.302  33.174  0.00  0.00    +0.074 A 
ATOM     17  C   UNL     1     -14.329   4.095  33.806  0.00  0.00    +0.175 A 
BRANCH  17  19
ATOM     19  C   UNL     1     -14.580   2.726  33.338  0.00  0.00    +0.306 C 
BRANCH  19   3
ATOM      3  O   UNL     1     -13.818   2.457  32.160  0.00  0.00    -0.484 OA
BRANCH   3  25
ATOM     25  C   UNL     1     -14.526   2.242  31.010  0.00  0.00    +0.121 A 
ATOM     26  C   UNL     1     -15.134   1.006  30.787  0.00  0.00    +0.045 A 
ATOM     27  C   UNL     1     -14.642   3.258  30.061  0.00  0.00    +0.045 A 
ATOM     28  C   UNL     1     -15.857   0.786  29.615  0.00  0.00    +0.004 A 
ATOM     29  C   UNL     1     -15.364   3.037  28.890  0.00  0.00    +0.004 A 
ATOM     30  C   UNL     1     -15.973   1.802  28.666  0.00  0.00    +0.000 A 
ENDBRANCH   3  25
ENDBRANCH  19   3
ENDBRANCH  17  19
ENDBRANCH  12  14
ENDBRANCH   8  12
BRANCH   7  13
ATOM     13  C   UNL     1     -11.798   9.967  33.652  0.00  0.00    +0.100 C 
BRANCH  13  15
ATOM      1  O   UNL     1      -9.531   9.782  34.444  0.00  0.00    -0.275 OA
ATOM      5  N   UNL     1     -11.318   9.420  35.926  0.00  0.00    -0.285 N 
ATOM     15  C   UNL     1     -10.729   9.718  34.699  0.00  0.00    +0.217 C 
ATOM     32  H   UNL     1     -12.334   9.407  35.967  0.00  0.00    +0.155 HD
BRANCH   5  18
ATOM     18  C   UNL     1     -10.667   9.128  37.147  0.00  0.00    +0.033 A 
ATOM     20  C   UNL     1     -10.093  10.156  37.895  0.00  0.00    +0.023 A 
ATOM     21  C   UNL     1     -10.598   7.811  37.604  0.00  0.00    +0.023 A 
ATOM     22  C   UNL     1      -9.450   9.867  39.099  0.00  0.00    +0.002 A 
ATOM     23  C   UNL     1      -9.957   7.523  38.808  0.00  0.00    +0.002 A 
ATOM     24  C   UNL     1      -9.383   8.551  39.556  0.00  0.00    +0.000 A 
ENDBRANCH   5  18
ENDBRANCH  13  15
ENDBRANCH   7  13
TORSDOF 8
ENDMDL
