MODEL 1
REMARK VINA RESULT:      -7.1      0.000      0.000
REMARK  Name = 7144117
REMARK  7 active torsions:
REMARK  status: ('A' for Active; 'I' for Inactive)
REMARK    1  A    between atoms: S_1  and  N_7
REMARK    2  A    between atoms: S_1  and  C_21
REMARK    3  A    between atoms: O_5  and  C_32
REMARK    4  A    between atoms: O_5  and  C_34
REMARK    5  A    between atoms: N_9  and  C_31
REMARK    6  A    between atoms: C_17  and  C_22
REMARK    7  A    between atoms: C_33  and  C_35
REMARK                            x       y       z     vdW  Elec       q    Type
REMARK                         _______ _______ _______ _____ _____    ______ ____
ROOT
ATOM      4  O   UNL     1      16.144   6.148  18.742  0.00  0.00    -0.268 OA
ATOM      7  N   UNL     1      14.491  10.714  17.768  0.00  0.00    -0.176 NA
ATOM      8  N   UNL     1      14.443   7.756  18.845  0.00  0.00    -0.311 N 
ATOM     10  C   UNL     1      13.393   8.738  16.723  0.00  0.00    +0.025 C 
ATOM     11  C   UNL     1      12.648   9.513  18.930  0.00  0.00    +0.053 C 
ATOM     12  C   UNL     1      12.167   8.940  17.599  0.00  0.00    +0.017 C 
ATOM     13  C   UNL     1      14.115  10.072  16.477  0.00  0.00    +0.114 C 
ATOM     14  C   UNL     1      13.327  10.875  18.687  0.00  0.00    +0.119 C 
ATOM     15  C   UNL     1      14.300   7.699  17.384  0.00  0.00    +0.130 C 
ATOM     16  C   UNL     1      13.601   8.551  19.646  0.00  0.00    +0.034 A 
ATOM     17  C   UNL     1      13.671   8.461  21.000  0.00  0.00    +0.002 A 
ATOM     18  C   UNL     1      15.394   6.875  19.393  0.00  0.00    +0.252 A 
ATOM     19  C   UNL     1      14.643   7.568  21.601  0.00  0.00    +0.015 A 
ATOM     20  C   UNL     1      15.472   6.823  20.870  0.00  0.00    +0.071 A 
ENDROOT
BRANCH  17  22
ATOM     22  C   UNL     1      12.793   9.262  21.882  0.00  0.00    -0.016 A 
ATOM     25  C   UNL     1      11.498   8.828  22.144  0.00  0.00    +0.012 A 
ATOM     26  C   UNL     1      13.269  10.443  22.440  0.00  0.00    +0.012 A 
ATOM     29  C   UNL     1      10.670   9.584  22.974  0.00  0.00    +0.046 A 
ATOM     30  C   UNL     1      12.441  11.200  23.271  0.00  0.00    +0.046 A 
ATOM     32  C   UNL     1      11.141  10.769  23.538  0.00  0.00    +0.120 A 
BRANCH  32   5
ATOM      5  O   UNL     1      10.334  11.505  24.348  0.00  0.00    -0.495 OA
ATOM     34  C   UNL     1      10.968  12.297  25.352  0.00  0.00    +0.277 C 
ENDBRANCH  32   5
ENDBRANCH  17  22
BRANCH   7   1
ATOM      1  S   UNL     1      15.532  12.066  17.649  0.00  0.00    +0.061 S 
ATOM      2  O   UNL     1      14.782  13.270  17.939  0.00  0.00    -0.153 OA
ATOM      3  O   UNL     1      16.317  11.952  16.438  0.00  0.00    -0.153 OA
BRANCH   1  21
ATOM     21  C   UNL     1      16.601  11.756  19.019  0.00  0.00    +0.106 A 
ATOM     23  C   UNL     1      17.760  12.503  19.158  0.00  0.00    +0.030 A 
ATOM     24  C   UNL     1      16.264  10.771  19.933  0.00  0.00    +0.030 A 
ATOM     27  C   UNL     1      18.604  12.257  20.240  0.00  0.00    +0.025 A 
ATOM     28  C   UNL     1      17.109  10.527  21.015  0.00  0.00    +0.025 A 
ATOM     31  C   UNL     1      18.279  11.269  21.169  0.00  0.00    +0.033 A 
BRANCH  31   9
ATOM      6  O   UNL     1      20.341   9.116  21.592  0.00  0.00    -0.276 OA
ATOM      9  N   UNL     1      19.124  11.025  22.252  0.00  0.00    -0.286 N 
ATOM     33  C   UNL     1      20.070  10.001  22.398  0.00  0.00    +0.214 C 
ATOM     35  C   UNL     1      20.783  10.084  23.724  0.00  0.00    +0.109 C 
ATOM     36  H   UNL     1      19.035  11.677  23.029  0.00  0.00    +0.155 HD
ENDBRANCH  31   9
ENDBRANCH   1  21
ENDBRANCH   7   1
TORSDOF 5
ENDMDL
MODEL 2
REMARK VINA RESULT:      -6.9     14.283     17.958
REMARK  Name = 7144117
REMARK  7 active torsions:
REMARK  status: ('A' for Active; 'I' for Inactive)
REMARK    1  A    between atoms: S_1  and  N_7
REMARK    2  A    between atoms: S_1  and  C_21
REMARK    3  A    between atoms: O_5  and  C_32
REMARK    4  A    between atoms: O_5  and  C_34
REMARK    5  A    between atoms: N_9  and  C_31
REMARK    6  A    between atoms: C_17  and  C_22
REMARK    7  A    between atoms: C_33  and  C_35
REMARK                            x       y       z     vdW  Elec       q    Type
REMARK                         _______ _______ _______ _____ _____    ______ ____
ROOT
ATOM      4  O   UNL     1      13.594   3.027   1.770  0.00  0.00    -0.268 OA
ATOM      7  N   UNL     1      14.381   7.829   2.699  0.00  0.00    -0.176 NA
ATOM      8  N   UNL     1      13.073   5.280   1.392  0.00  0.00    -0.311 N 
ATOM     10  C   UNL     1      14.794   6.913   0.420  0.00  0.00    +0.025 C 
ATOM     11  C   UNL     1      12.551   7.710   1.018  0.00  0.00    +0.053 C 
ATOM     12  C   UNL     1      13.576   7.652  -0.111  0.00  0.00    +0.017 C 
ATOM     13  C   UNL     1      15.399   7.650   1.625  0.00  0.00    +0.114 C 
ATOM     14  C   UNL     1      13.141   8.495   2.206  0.00  0.00    +0.119 C 
ATOM     15  C   UNL     1      14.385   5.479   0.761  0.00  0.00    +0.130 C 
ATOM     16  C   UNL     1      12.113   6.309   1.456  0.00  0.00    +0.034 A 
ATOM     17  C   UNL     1      10.862   6.041   1.914  0.00  0.00    +0.002 A 
ATOM     18  C   UNL     1      12.800   3.967   1.817  0.00  0.00    +0.252 A 
ATOM     19  C   UNL     1      10.546   4.700   2.366  0.00  0.00    +0.015 A 
ATOM     20  C   UNL     1      11.440   3.712   2.343  0.00  0.00    +0.071 A 
ENDROOT
BRANCH  17  22
ATOM     22  C   UNL     1       9.816   7.085   1.980  0.00  0.00    -0.016 A 
ATOM     25  C   UNL     1       9.494   7.813   0.839  0.00  0.00    +0.012 A 
ATOM     26  C   UNL     1       9.163   7.332   3.183  0.00  0.00    +0.012 A 
ATOM     29  C   UNL     1       8.508   8.798   0.903  0.00  0.00    +0.046 A 
ATOM     30  C   UNL     1       8.177   8.317   3.247  0.00  0.00    +0.046 A 
ATOM     32  C   UNL     1       7.849   9.050   2.105  0.00  0.00    +0.120 A 
BRANCH  32   5
ATOM      5  O   UNL     1       6.887  10.010   2.167  0.00  0.00    -0.495 OA
ATOM     34  C   UNL     1       6.080  10.048   3.343  0.00  0.00    +0.277 C 
ENDBRANCH  32   5
ENDBRANCH  17  22
BRANCH   7   1
ATOM      1  S   UNL     1      14.979   8.392   4.200  0.00  0.00    +0.061 S 
ATOM      2  O   UNL     1      14.712   9.811   4.314  0.00  0.00    -0.153 OA
ATOM      3  O   UNL     1      16.312   7.866   4.404  0.00  0.00    -0.153 OA
BRANCH   1  21
ATOM     21  C   UNL     1      13.888   7.549   5.303  0.00  0.00    +0.106 A 
ATOM     23  C   UNL     1      14.335   7.208   6.569  0.00  0.00    +0.030 A 
ATOM     24  C   UNL     1      12.603   7.244   4.885  0.00  0.00    +0.030 A 
ATOM     27  C   UNL     1      13.473   6.542   7.440  0.00  0.00    +0.025 A 
ATOM     28  C   UNL     1      11.742   6.578   5.757  0.00  0.00    +0.025 A 
ATOM     31  C   UNL     1      12.177   6.227   7.035  0.00  0.00    +0.033 A 
BRANCH  31   9
ATOM      6  O   UNL     1       9.507   7.053   8.155  0.00  0.00    -0.276 OA
ATOM      9  N   UNL     1      11.316   5.561   7.907  0.00  0.00    -0.286 N 
ATOM     33  C   UNL     1      10.078   5.995   8.401  0.00  0.00    +0.214 C 
ATOM     35  C   UNL     1       9.456   4.977   9.324  0.00  0.00    +0.109 C 
ATOM     36  H   UNL     1      11.635   4.646   8.219  0.00  0.00    +0.155 HD
ENDBRANCH  31   9
ENDBRANCH   1  21
ENDBRANCH   7   1
TORSDOF 5
ENDMDL
MODEL 3
REMARK VINA RESULT:      -6.6     13.642     17.160
REMARK  Name = 7144117
REMARK  7 active torsions:
REMARK  status: ('A' for Active; 'I' for Inactive)
REMARK    1  A    between atoms: S_1  and  N_7
REMARK    2  A    between atoms: S_1  and  C_21
REMARK    3  A    between atoms: O_5  and  C_32
REMARK    4  A    between atoms: O_5  and  C_34
REMARK    5  A    between atoms: N_9  and  C_31
REMARK    6  A    between atoms: C_17  and  C_22
REMARK    7  A    between atoms: C_33  and  C_35
REMARK                            x       y       z     vdW  Elec       q    Type
REMARK                         _______ _______ _______ _____ _____    ______ ____
ROOT
ATOM      4  O   UNL     1       9.646   9.679   1.678  0.00  0.00    -0.268 OA
ATOM      7  N   UNL     1      13.246   9.275   5.056  0.00  0.00    -0.176 NA
ATOM      8  N   UNL     1      10.318   9.446   3.910  0.00  0.00    -0.311 N 
ATOM     10  C   UNL     1      11.719  11.242   5.086  0.00  0.00    +0.025 C 
ATOM     11  C   UNL     1      11.087   9.199   6.290  0.00  0.00    +0.053 C 
ATOM     12  C   UNL     1      11.055  10.724   6.352  0.00  0.00    +0.017 C 
ATOM     13  C   UNL     1      13.175  10.763   4.996  0.00  0.00    +0.114 C 
ATOM     14  C   UNL     1      12.551   8.718   6.252  0.00  0.00    +0.119 C 
ATOM     15  C   UNL     1      10.886  10.800   3.882  0.00  0.00    +0.130 C 
ATOM     16  C   UNL     1      10.309   8.666   5.083  0.00  0.00    +0.034 A 
ATOM     17  C   UNL     1       9.644   7.481   5.104  0.00  0.00    +0.002 A 
ATOM     18  C   UNL     1       9.682   9.032   2.725  0.00  0.00    +0.252 A 
ATOM     19  C   UNL     1       8.981   7.020   3.899  0.00  0.00    +0.015 A 
ATOM     20  C   UNL     1       8.995   7.722   2.766  0.00  0.00    +0.071 A 
ENDROOT
BRANCH  17  22
ATOM     22  C   UNL     1       9.590   6.639   6.319  0.00  0.00    -0.016 A 
ATOM     25  C   UNL     1      10.117   5.351   6.291  0.00  0.00    +0.012 A 
ATOM     26  C   UNL     1       9.012   7.139   7.481  0.00  0.00    +0.012 A 
ATOM     29  C   UNL     1      10.065   4.557   7.437  0.00  0.00    +0.046 A 
ATOM     30  C   UNL     1       8.960   6.346   8.627  0.00  0.00    +0.046 A 
ATOM     32  C   UNL     1       9.487   5.054   8.604  0.00  0.00    +0.120 A 
BRANCH  32   5
ATOM      5  O   UNL     1       9.437   4.280   9.722  0.00  0.00    -0.495 OA
ATOM     34  C   UNL     1       8.442   4.601  10.692  0.00  0.00    +0.277 C 
ENDBRANCH  32   5
ENDBRANCH  17  22
BRANCH   7   1
ATOM      1  S   UNL     1      14.773   8.590   4.700  0.00  0.00    +0.061 S 
ATOM      2  O   UNL     1      15.205   7.785   5.823  0.00  0.00    -0.153 OA
ATOM      3  O   UNL     1      15.631   9.614   4.144  0.00  0.00    -0.153 OA
BRANCH   1  21
ATOM     21  C   UNL     1      14.321   7.492   3.393  0.00  0.00    +0.106 A 
ATOM     23  C   UNL     1      15.314   6.937   2.601  0.00  0.00    +0.030 A 
ATOM     24  C   UNL     1      12.984   7.203   3.182  0.00  0.00    +0.030 A 
ATOM     27  C   UNL     1      14.957   6.070   1.568  0.00  0.00    +0.025 A 
ATOM     28  C   UNL     1      12.628   6.335   2.149  0.00  0.00    +0.025 A 
ATOM     31  C   UNL     1      13.615   5.768   1.342  0.00  0.00    +0.033 A 
BRANCH  31   9
ATOM      6  O   UNL     1      13.223   2.783   1.345  0.00  0.00    -0.276 OA
ATOM      9  N   UNL     1      13.259   4.901   0.310  0.00  0.00    -0.286 N 
ATOM     33  C   UNL     1      13.091   3.510   0.366  0.00  0.00    +0.214 C 
ATOM     35  C   UNL     1      12.702   2.939  -0.974  0.00  0.00    +0.109 C 
ATOM     36  H   UNL     1      13.105   5.342  -0.595  0.00  0.00    +0.155 HD
ENDBRANCH  31   9
ENDBRANCH   1  21
ENDBRANCH   7   1
TORSDOF 5
ENDMDL
MODEL 4
REMARK VINA RESULT:      -6.5     14.088     18.210
REMARK  Name = 7144117
REMARK  7 active torsions:
REMARK  status: ('A' for Active; 'I' for Inactive)
REMARK    1  A    between atoms: S_1  and  N_7
REMARK    2  A    between atoms: S_1  and  C_21
REMARK    3  A    between atoms: O_5  and  C_32
REMARK    4  A    between atoms: O_5  and  C_34
REMARK    5  A    between atoms: N_9  and  C_31
REMARK    6  A    between atoms: C_17  and  C_22
REMARK    7  A    between atoms: C_33  and  C_35
REMARK                            x       y       z     vdW  Elec       q    Type
REMARK                         _______ _______ _______ _____ _____    ______ ____
ROOT
ATOM      4  O   UNL     1      10.903   5.586   8.738  0.00  0.00    -0.268 OA
ATOM      7  N   UNL     1      12.151   9.377   5.805  0.00  0.00    -0.176 NA
ATOM      8  N   UNL     1      11.740   6.387   6.702  0.00  0.00    -0.311 N 
ATOM     10  C   UNL     1      13.891   7.776   6.586  0.00  0.00    +0.025 C 
ATOM     11  C   UNL     1      12.634   7.293   4.534  0.00  0.00    +0.053 C 
ATOM     12  C   UNL     1      14.013   7.204   5.184  0.00  0.00    +0.017 C 
ATOM     13  C   UNL     1      13.440   9.244   6.541  0.00  0.00    +0.114 C 
ATOM     14  C   UNL     1      12.205   8.771   4.443  0.00  0.00    +0.119 C 
ATOM     15  C   UNL     1      12.932   6.897   7.391  0.00  0.00    +0.130 C 
ATOM     16  C   UNL     1      11.594   6.473   5.303  0.00  0.00    +0.034 A 
ATOM     17  C   UNL     1      10.548   5.858   4.692  0.00  0.00    +0.002 A 
ATOM     18  C   UNL     1      10.817   5.705   7.515  0.00  0.00    +0.252 A 
ATOM     19  C   UNL     1       9.573   5.149   5.499  0.00  0.00    +0.015 A 
ATOM     20  C   UNL     1       9.669   5.073   6.827  0.00  0.00    +0.071 A 
ENDROOT
BRANCH  17  22
ATOM     22  C   UNL     1      10.365   5.904   3.224  0.00  0.00    -0.016 A 
ATOM     25  C   UNL     1      10.791   4.836   2.442  0.00  0.00    +0.012 A 
ATOM     26  C   UNL     1       9.770   7.016   2.638  0.00  0.00    +0.012 A 
ATOM     29  C   UNL     1      10.619   4.880   1.058  0.00  0.00    +0.046 A 
ATOM     30  C   UNL     1       9.598   7.061   1.254  0.00  0.00    +0.046 A 
ATOM     32  C   UNL     1      10.023   5.992   0.465  0.00  0.00    +0.120 A 
BRANCH  32   5
ATOM      5  O   UNL     1       9.854   6.035  -0.885  0.00  0.00    -0.495 OA
ATOM     34  C   UNL     1      10.426   4.972  -1.646  0.00  0.00    +0.277 C 
ENDBRANCH  32   5
ENDBRANCH  17  22
BRANCH   7   1
ATOM      1  S   UNL     1      11.395  10.908   5.905  0.00  0.00    +0.061 S 
ATOM      2  O   UNL     1      12.184  11.876   5.172  0.00  0.00    -0.153 OA
ATOM      3  O   UNL     1      11.003  11.152   7.277  0.00  0.00    -0.153 OA
BRANCH   1  21
ATOM     21  C   UNL     1       9.930  10.591   4.971  0.00  0.00    +0.106 A 
ATOM     23  C   UNL     1       9.024   9.649   5.430  0.00  0.00    +0.030 A 
ATOM     24  C   UNL     1       9.711  11.290   3.795  0.00  0.00    +0.030 A 
ATOM     27  C   UNL     1       7.867   9.398   4.692  0.00  0.00    +0.025 A 
ATOM     28  C   UNL     1       8.553  11.039   3.058  0.00  0.00    +0.025 A 
ATOM     31  C   UNL     1       7.632  10.093   3.507  0.00  0.00    +0.033 A 
BRANCH  31   9
ATOM      6  O   UNL     1       4.819  11.100   3.881  0.00  0.00    -0.276 OA
ATOM      9  N   UNL     1       6.474   9.842   2.769  0.00  0.00    -0.286 N 
ATOM     33  C   UNL     1       5.183  10.339   2.990  0.00  0.00    +0.214 C 
ATOM     35  C   UNL     1       4.203   9.827   1.964  0.00  0.00    +0.109 C 
ATOM     36  H   UNL     1       6.593   9.218   1.973  0.00  0.00    +0.155 HD
ENDBRANCH  31   9
ENDBRANCH   1  21
ENDBRANCH   7   1
TORSDOF 5
ENDMDL
MODEL 5
REMARK VINA RESULT:      -6.5     15.513     19.004
REMARK  Name = 7144117
REMARK  7 active torsions:
REMARK  status: ('A' for Active; 'I' for Inactive)
REMARK    1  A    between atoms: S_1  and  N_7
REMARK    2  A    between atoms: S_1  and  C_21
REMARK    3  A    between atoms: O_5  and  C_32
REMARK    4  A    between atoms: O_5  and  C_34
REMARK    5  A    between atoms: N_9  and  C_31
REMARK    6  A    between atoms: C_17  and  C_22
REMARK    7  A    between atoms: C_33  and  C_35
REMARK                            x       y       z     vdW  Elec       q    Type
REMARK                         _______ _______ _______ _____ _____    ______ ____
ROOT
ATOM      4  O   UNL     1       8.476   9.414   1.007  0.00  0.00    -0.268 OA
ATOM      7  N   UNL     1      11.826   5.859   1.826  0.00  0.00    -0.176 NA
ATOM      8  N   UNL     1      10.058   8.400   2.406  0.00  0.00    -0.311 N 
ATOM     10  C   UNL     1      12.531   8.246   1.746  0.00  0.00    +0.025 C 
ATOM     11  C   UNL     1      11.767   7.278   3.869  0.00  0.00    +0.053 C 
ATOM     12  C   UNL     1      12.780   8.236   3.246  0.00  0.00    +0.017 C 
ATOM     13  C   UNL     1      12.719   6.842   1.151  0.00  0.00    +0.114 C 
ATOM     14  C   UNL     1      11.991   5.860   3.308  0.00  0.00    +0.119 C 
ATOM     15  C   UNL     1      11.131   8.805   1.487  0.00  0.00    +0.130 C 
ATOM     16  C   UNL     1      10.328   7.739   3.620  0.00  0.00    +0.034 A 
ATOM     17  C   UNL     1       9.322   7.515   4.507  0.00  0.00    +0.002 A 
ATOM     18  C   UNL     1       8.765   8.821   2.047  0.00  0.00    +0.252 A 
ATOM     19  C   UNL     1       7.975   7.931   4.169  0.00  0.00    +0.015 A 
ATOM     20  C   UNL     1       7.684   8.534   3.016  0.00  0.00    +0.071 A 
ENDROOT
BRANCH  17  22
ATOM     22  C   UNL     1       9.561   6.843   5.803  0.00  0.00    -0.016 A 
ATOM     25  C   UNL     1       9.876   7.601   6.926  0.00  0.00    +0.012 A 
ATOM     26  C   UNL     1       9.471   5.458   5.889  0.00  0.00    +0.012 A 
ATOM     29  C   UNL     1      10.103   6.967   8.148  0.00  0.00    +0.046 A 
ATOM     30  C   UNL     1       9.696   4.823   7.111  0.00  0.00    +0.046 A 
ATOM     32  C   UNL     1      10.012   5.579   8.241  0.00  0.00    +0.120 A 
BRANCH  32   5
ATOM      5  O   UNL     1      10.232   4.961   9.432  0.00  0.00    -0.495 OA
ATOM     34  C   UNL     1       9.086   4.638  10.219  0.00  0.00    +0.277 C 
ENDBRANCH  32   5
ENDBRANCH  17  22
BRANCH   7   1
ATOM      1  S   UNL     1      11.732   4.316   1.092  0.00  0.00    +0.061 S 
ATOM      2  O   UNL     1      10.794   4.371  -0.010  0.00  0.00    -0.153 OA
ATOM      3  O   UNL     1      11.609   3.310   2.125  0.00  0.00    -0.153 OA
BRANCH   1  21
ATOM     21  C   UNL     1      13.356   4.199   0.411  0.00  0.00    +0.106 A 
ATOM     23  C   UNL     1      14.433   3.994   1.258  0.00  0.00    +0.030 A 
ATOM     24  C   UNL     1      13.526   4.312  -0.959  0.00  0.00    +0.030 A 
ATOM     27  C   UNL     1      15.717   3.901   0.719  0.00  0.00    +0.025 A 
ATOM     28  C   UNL     1      14.810   4.218  -1.497  0.00  0.00    +0.025 A 
ATOM     31  C   UNL     1      15.905   4.013  -0.658  0.00  0.00    +0.033 A 
BRANCH  31   9
ATOM      6  O   UNL     1      17.602   6.082  -2.039  0.00  0.00    -0.276 OA
ATOM      9  N   UNL     1      17.189   3.919  -1.196  0.00  0.00    -0.286 N 
ATOM     33  C   UNL     1      17.936   4.919  -1.833  0.00  0.00    +0.214 C 
ATOM     35  C   UNL     1      19.287   4.414  -2.274  0.00  0.00    +0.109 C 
ATOM     36  H   UNL     1      17.631   3.005  -1.111  0.00  0.00    +0.155 HD
ENDBRANCH  31   9
ENDBRANCH   1  21
ENDBRANCH   7   1
TORSDOF 5
ENDMDL
MODEL 6
REMARK VINA RESULT:      -6.5      2.739      6.484
REMARK  Name = 7144117
REMARK  7 active torsions:
REMARK  status: ('A' for Active; 'I' for Inactive)
REMARK    1  A    between atoms: S_1  and  N_7
REMARK    2  A    between atoms: S_1  and  C_21
REMARK    3  A    between atoms: O_5  and  C_32
REMARK    4  A    between atoms: O_5  and  C_34
REMARK    5  A    between atoms: N_9  and  C_31
REMARK    6  A    between atoms: C_17  and  C_22
REMARK    7  A    between atoms: C_33  and  C_35
REMARK                            x       y       z     vdW  Elec       q    Type
REMARK                         _______ _______ _______ _____ _____    ______ ____
ROOT
ATOM      4  O   UNL     1      11.668  13.708  19.983  0.00  0.00    -0.268 OA
ATOM      7  N   UNL     1      14.485  11.588  16.504  0.00  0.00    -0.176 NA
ATOM      8  N   UNL     1      13.778  13.065  19.194  0.00  0.00    -0.311 N 
ATOM     10  C   UNL     1      14.745  14.011  17.017  0.00  0.00    +0.025 C 
ATOM     11  C   UNL     1      16.021  12.356  18.306  0.00  0.00    +0.053 C 
ATOM     12  C   UNL     1      16.092  13.742  17.669  0.00  0.00    +0.017 C 
ATOM     13  C   UNL     1      14.442  12.964  15.935  0.00  0.00    +0.114 C 
ATOM     14  C   UNL     1      15.768  11.302  17.210  0.00  0.00    +0.119 C 
ATOM     15  C   UNL     1      13.673  14.047  18.107  0.00  0.00    +0.130 C 
ATOM     16  C   UNL     1      14.937  12.287  19.386  0.00  0.00    +0.034 A 
ATOM     17  C   UNL     1      15.050  11.499  20.488  0.00  0.00    +0.002 A 
ATOM     18  C   UNL     1      12.697  13.041  20.094  0.00  0.00    +0.252 A 
ATOM     19  C   UNL     1      13.953  11.446  21.435  0.00  0.00    +0.015 A 
ATOM     20  C   UNL     1      12.833  12.148  21.267  0.00  0.00    +0.071 A 
ENDROOT
BRANCH  17  22
ATOM     22  C   UNL     1      16.256  10.681  20.742  0.00  0.00    -0.016 A 
ATOM     25  C   UNL     1      17.433  11.297  21.158  0.00  0.00    +0.012 A 
ATOM     26  C   UNL     1      16.206   9.303  20.561  0.00  0.00    +0.012 A 
ATOM     29  C   UNL     1      18.570  10.525  21.396  0.00  0.00    +0.046 A 
ATOM     30  C   UNL     1      17.343   8.531  20.799  0.00  0.00    +0.046 A 
ATOM     32  C   UNL     1      18.526   9.143  21.217  0.00  0.00    +0.120 A 
BRANCH  32   5
ATOM      5  O   UNL     1      19.635   8.390  21.450  0.00  0.00    -0.495 OA
ATOM     34  C   UNL     1      19.464   7.201  22.220  0.00  0.00    +0.277 C 
ENDBRANCH  32   5
ENDBRANCH  17  22
BRANCH   7   1
ATOM      1  S   UNL     1      13.908  10.343  15.483  0.00  0.00    +0.061 S 
ATOM      2  O   UNL     1      15.028   9.739  14.792  0.00  0.00    -0.153 OA
ATOM      3  O   UNL     1      12.757  10.829  14.752  0.00  0.00    -0.153 OA
BRANCH   1  21
ATOM     21  C   UNL     1      13.337   9.191  16.692  0.00  0.00    +0.106 A 
ATOM     23  C   UNL     1      14.223   8.265  17.218  0.00  0.00    +0.030 A 
ATOM     24  C   UNL     1      12.012   9.232  17.095  0.00  0.00    +0.030 A 
ATOM     27  C   UNL     1      13.771   7.354  18.173  0.00  0.00    +0.025 A 
ATOM     28  C   UNL     1      11.562   8.321  18.050  0.00  0.00    +0.025 A 
ATOM     31  C   UNL     1      12.441   7.382  18.589  0.00  0.00    +0.033 A 
BRANCH  31   9
ATOM      6  O   UNL     1      11.755   7.775  21.494  0.00  0.00    -0.276 OA
ATOM      9  N   UNL     1      11.990   6.471  19.545  0.00  0.00    -0.286 N 
ATOM     33  C   UNL     1      11.686   6.709  20.892  0.00  0.00    +0.214 C 
ATOM     35  C   UNL     1      11.228   5.454  21.592  0.00  0.00    +0.109 C 
ATOM     36  H   UNL     1      11.871   5.516  19.213  0.00  0.00    +0.155 HD
ENDBRANCH  31   9
ENDBRANCH   1  21
ENDBRANCH   7   1
TORSDOF 5
ENDMDL
MODEL 7
REMARK VINA RESULT:      -6.4      1.855      2.298
REMARK  Name = 7144117
REMARK  7 active torsions:
REMARK  status: ('A' for Active; 'I' for Inactive)
REMARK    1  A    between atoms: S_1  and  N_7
REMARK    2  A    between atoms: S_1  and  C_21
REMARK    3  A    between atoms: O_5  and  C_32
REMARK    4  A    between atoms: O_5  and  C_34
REMARK    5  A    between atoms: N_9  and  C_31
REMARK    6  A    between atoms: C_17  and  C_22
REMARK    7  A    between atoms: C_33  and  C_35
REMARK                            x       y       z     vdW  Elec       q    Type
REMARK                         _______ _______ _______ _____ _____    ______ ____
ROOT
ATOM      4  O   UNL     1      15.395   6.703  18.753  0.00  0.00    -0.268 OA
ATOM      7  N   UNL     1      15.764  11.610  19.315  0.00  0.00    -0.176 NA
ATOM      8  N   UNL     1      14.400   8.774  19.209  0.00  0.00    -0.311 N 
ATOM     10  C   UNL     1      14.376  10.663  17.477  0.00  0.00    +0.025 C 
ATOM     11  C   UNL     1      13.377  11.019  19.691  0.00  0.00    +0.053 C 
ATOM     12  C   UNL     1      13.108  11.105  18.191  0.00  0.00    +0.017 C 
ATOM     13  C   UNL     1      15.554  11.579  17.840  0.00  0.00    +0.114 C 
ATOM     14  C   UNL     1      14.526  11.977  20.061  0.00  0.00    +0.119 C 
ATOM     15  C   UNL     1      14.648   9.199  17.826  0.00  0.00    +0.130 C 
ATOM     16  C   UNL     1      13.703   9.587  20.125  0.00  0.00    +0.034 A 
ATOM     17  C   UNL     1      13.367   9.096  21.347  0.00  0.00    +0.002 A 
ATOM     18  C   UNL     1      14.798   7.461  19.518  0.00  0.00    +0.252 A 
ATOM     19  C   UNL     1      13.765   7.748  21.703  0.00  0.00    +0.015 A 
ATOM     20  C   UNL     1      14.448   6.964  20.869  0.00  0.00    +0.071 A 
ENDROOT
BRANCH  17  22
ATOM     22  C   UNL     1      12.618   9.906  22.333  0.00  0.00    -0.016 A 
ATOM     25  C   UNL     1      13.303  10.775  23.177  0.00  0.00    +0.012 A 
ATOM     26  C   UNL     1      11.234   9.793  22.410  0.00  0.00    +0.012 A 
ATOM     29  C   UNL     1      12.596  11.537  24.107  0.00  0.00    +0.046 A 
ATOM     30  C   UNL     1      10.526  10.555  23.340  0.00  0.00    +0.046 A 
ATOM     32  C   UNL     1      11.209  11.428  24.188  0.00  0.00    +0.120 A 
BRANCH  32   5
ATOM      5  O   UNL     1      10.519  12.172  25.095  0.00  0.00    -0.495 OA
ATOM     34  C   UNL     1      10.920  13.532  25.260  0.00  0.00    +0.277 C 
ENDBRANCH  32   5
ENDBRANCH  17  22
BRANCH   7   1
ATOM      1  S   UNL     1      17.201  12.372  19.844  0.00  0.00    +0.061 S 
ATOM      2  O   UNL     1      16.882  13.300  20.908  0.00  0.00    -0.153 OA
ATOM      3  O   UNL     1      17.963  12.798  18.689  0.00  0.00    -0.153 OA
BRANCH   1  21
ATOM     21  C   UNL     1      18.036  10.993  20.565  0.00  0.00    +0.106 A 
ATOM     23  C   UNL     1      19.406  11.057  20.761  0.00  0.00    +0.030 A 
ATOM     24  C   UNL     1      17.306   9.872  20.924  0.00  0.00    +0.030 A 
ATOM     27  C   UNL     1      20.065   9.967  21.330  0.00  0.00    +0.025 A 
ATOM     28  C   UNL     1      17.966   8.783  21.495  0.00  0.00    +0.025 A 
ATOM     31  C   UNL     1      19.345   8.830  21.697  0.00  0.00    +0.033 A 
BRANCH  31   9
ATOM      6  O   UNL     1      21.014   6.671  20.425  0.00  0.00    -0.276 OA
ATOM      9  N   UNL     1      20.005   7.742  22.267  0.00  0.00    -0.286 N 
ATOM     33  C   UNL     1      20.771   6.760  21.625  0.00  0.00    +0.214 C 
ATOM     35  C   UNL     1      21.318   5.748  22.600  0.00  0.00    +0.109 C 
ATOM     36  H   UNL     1      19.912   7.657  23.278  0.00  0.00    +0.155 HD
ENDBRANCH  31   9
ENDBRANCH   1  21
ENDBRANCH   7   1
TORSDOF 5
ENDMDL
MODEL 8
REMARK VINA RESULT:      -6.4     28.126     30.620
REMARK  Name = 7144117
REMARK  7 active torsions:
REMARK  status: ('A' for Active; 'I' for Inactive)
REMARK    1  A    between atoms: S_1  and  N_7
REMARK    2  A    between atoms: S_1  and  C_21
REMARK    3  A    between atoms: O_5  and  C_32
REMARK    4  A    between atoms: O_5  and  C_34
REMARK    5  A    between atoms: N_9  and  C_31
REMARK    6  A    between atoms: C_17  and  C_22
REMARK    7  A    between atoms: C_33  and  C_35
REMARK                            x       y       z     vdW  Elec       q    Type
REMARK                         _______ _______ _______ _____ _____    ______ ____
ROOT
ATOM      4  O   UNL     1      -4.874 -14.774  10.572  0.00  0.00    -0.268 OA
ATOM      7  N   UNL     1      -3.080 -11.028  13.271  0.00  0.00    -0.176 NA
ATOM      8  N   UNL     1      -5.053 -12.577  11.367  0.00  0.00    -0.311 N 
ATOM     10  C   UNL     1      -3.297 -10.797  10.801  0.00  0.00    +0.025 C 
ATOM     11  C   UNL     1      -5.199 -10.226  12.244  0.00  0.00    +0.053 C 
ATOM     12  C   UNL     1      -4.445  -9.817  10.981  0.00  0.00    +0.017 C 
ATOM     13  C   UNL     1      -2.344 -10.751  12.005  0.00  0.00    +0.114 C 
ATOM     14  C   UNL     1      -4.256 -10.129  13.458  0.00  0.00    +0.119 C 
ATOM     15  C   UNL     1      -3.878 -12.193  10.573  0.00  0.00    +0.130 C 
ATOM     16  C   UNL     1      -5.782 -11.637  12.120  0.00  0.00    +0.034 A 
ATOM     17  C   UNL     1      -6.945 -12.005  12.720  0.00  0.00    +0.002 A 
ATOM     18  C   UNL     1      -5.464 -13.915  11.228  0.00  0.00    +0.252 A 
ATOM     19  C   UNL     1      -7.398 -13.378  12.603  0.00  0.00    +0.015 A 
ATOM     20  C   UNL     1      -6.716 -14.297  11.920  0.00  0.00    +0.071 A 
ENDROOT
BRANCH  17  22
ATOM     22  C   UNL     1      -7.755 -11.047  13.504  0.00  0.00    -0.016 A 
ATOM     25  C   UNL     1      -8.788 -10.349  12.886  0.00  0.00    +0.012 A 
ATOM     26  C   UNL     1      -7.478 -10.850  14.852  0.00  0.00    +0.012 A 
ATOM     29  C   UNL     1      -9.551  -9.445  13.626  0.00  0.00    +0.046 A 
ATOM     30  C   UNL     1      -8.241  -9.947  15.593  0.00  0.00    +0.046 A 
ATOM     32  C   UNL     1      -9.278  -9.244  14.978  0.00  0.00    +0.120 A 
BRANCH  32   5
ATOM      5  O   UNL     1     -10.023  -8.363  15.699  0.00  0.00    -0.495 OA
ATOM     34  C   UNL     1      -9.636  -8.141  17.055  0.00  0.00    +0.277 C 
ENDBRANCH  32   5
ENDBRANCH  17  22
BRANCH   7   1
ATOM      1  S   UNL     1      -2.107 -11.273  14.656  0.00  0.00    +0.061 S 
ATOM      2  O   UNL     1      -1.573 -10.000  15.092  0.00  0.00    -0.153 OA
ATOM      3  O   UNL     1      -1.236 -12.407  14.427  0.00  0.00    -0.153 OA
BRANCH   1  21
ATOM     21  C   UNL     1      -3.342 -11.765  15.819  0.00  0.00    +0.106 A 
ATOM     23  C   UNL     1      -3.464 -11.071  17.012  0.00  0.00    +0.030 A 
ATOM     24  C   UNL     1      -4.168 -12.835  15.519  0.00  0.00    +0.030 A 
ATOM     27  C   UNL     1      -4.439 -11.460  17.930  0.00  0.00    +0.025 A 
ATOM     28  C   UNL     1      -5.143 -13.223  16.437  0.00  0.00    +0.025 A 
ATOM     31  C   UNL     1      -5.279 -12.535  17.643  0.00  0.00    +0.033 A 
BRANCH  31   9
ATOM      6  O   UNL     1      -7.601 -11.001  18.793  0.00  0.00    -0.276 OA
ATOM      9  N   UNL     1      -6.254 -12.923  18.562  0.00  0.00    -0.286 N 
ATOM     33  C   UNL     1      -7.318 -12.163  19.067  0.00  0.00    +0.214 C 
ATOM     35  C   UNL     1      -8.153 -12.951  20.045  0.00  0.00    +0.109 C 
ATOM     36  H   UNL     1      -6.175 -13.879  18.903  0.00  0.00    +0.155 HD
ENDBRANCH  31   9
ENDBRANCH   1  21
ENDBRANCH   7   1
TORSDOF 5
ENDMDL
MODEL 9
REMARK VINA RESULT:      -6.3     16.440     20.304
REMARK  Name = 7144117
REMARK  7 active torsions:
REMARK  status: ('A' for Active; 'I' for Inactive)
REMARK    1  A    between atoms: S_1  and  N_7
REMARK    2  A    between atoms: S_1  and  C_21
REMARK    3  A    between atoms: O_5  and  C_32
REMARK    4  A    between atoms: O_5  and  C_34
REMARK    5  A    between atoms: N_9  and  C_31
REMARK    6  A    between atoms: C_17  and  C_22
REMARK    7  A    between atoms: C_33  and  C_35
REMARK                            x       y       z     vdW  Elec       q    Type
REMARK                         _______ _______ _______ _____ _____    ______ ____
ROOT
ATOM      4  O   UNL     1       9.791   8.846  -0.334  0.00  0.00    -0.268 OA
ATOM      7  N   UNL     1      12.563   5.520   2.072  0.00  0.00    -0.176 NA
ATOM      8  N   UNL     1      10.888   8.147   1.615  0.00  0.00    -0.311 N 
ATOM     10  C   UNL     1      13.430   7.822   1.683  0.00  0.00    +0.025 C 
ATOM     11  C   UNL     1      12.081   7.356   3.681  0.00  0.00    +0.053 C 
ATOM     12  C   UNL     1      13.284   8.140   3.163  0.00  0.00    +0.017 C 
ATOM     13  C   UNL     1      13.666   6.320   1.467  0.00  0.00    +0.114 C 
ATOM     14  C   UNL     1      12.342   5.846   3.510  0.00  0.00    +0.119 C 
ATOM     15  C   UNL     1      12.186   8.326   0.950  0.00  0.00    +0.130 C 
ATOM     16  C   UNL     1      10.790   7.767   2.968  0.00  0.00    +0.034 A 
ATOM     17  C   UNL     1       9.578   7.756   3.582  0.00  0.00    +0.002 A 
ATOM     18  C   UNL     1       9.762   8.494   0.845  0.00  0.00    +0.252 A 
ATOM     19  C   UNL     1       8.394   8.103   2.819  0.00  0.00    +0.015 A 
ATOM     20  C   UNL     1       8.451   8.440   1.531  0.00  0.00    +0.071 A 
ENDROOT
BRANCH  17  22
ATOM     22  C   UNL     1       9.429   7.384   5.006  0.00  0.00    -0.016 A 
ATOM     25  C   UNL     1       9.514   8.365   5.989  0.00  0.00    +0.012 A 
ATOM     26  C   UNL     1       9.205   6.056   5.353  0.00  0.00    +0.012 A 
ATOM     29  C   UNL     1       9.375   8.014   7.332  0.00  0.00    +0.046 A 
ATOM     30  C   UNL     1       9.065   5.704   6.695  0.00  0.00    +0.046 A 
ATOM     32  C   UNL     1       9.150   6.684   7.685  0.00  0.00    +0.120 A 
BRANCH  32   5
ATOM      5  O   UNL     1       9.013   6.341   8.995  0.00  0.00    -0.495 OA
ATOM     34  C   UNL     1       9.418   5.025   9.368  0.00  0.00    +0.277 C 
ENDBRANCH  32   5
ENDBRANCH  17  22
BRANCH   7   1
ATOM      1  S   UNL     1      12.553   3.855   1.680  0.00  0.00    +0.061 S 
ATOM      2  O   UNL     1      11.544   3.186   2.474  0.00  0.00    -0.153 OA
ATOM      3  O   UNL     1      13.917   3.370   1.647  0.00  0.00    -0.153 OA
BRANCH   1  21
ATOM     21  C   UNL     1      11.965   3.932   0.017  0.00  0.00    +0.106 A 
ATOM     23  C   UNL     1      12.616   3.204  -0.967  0.00  0.00    +0.030 A 
ATOM     24  C   UNL     1      10.863   4.717  -0.277  0.00  0.00    +0.030 A 
ATOM     27  C   UNL     1      12.151   3.265  -2.280  0.00  0.00    +0.025 A 
ATOM     28  C   UNL     1      10.399   4.777  -1.591  0.00  0.00    +0.025 A 
ATOM     31  C   UNL     1      11.043   4.051  -2.593  0.00  0.00    +0.033 A 
BRANCH  31   9
ATOM      6  O   UNL     1       9.418   2.078  -4.184  0.00  0.00    -0.276 OA
ATOM      9  N   UNL     1      10.578   4.112  -3.907  0.00  0.00    -0.286 N 
ATOM     33  C   UNL     1       9.823   3.158  -4.603  0.00  0.00    +0.214 C 
ATOM     35  C   UNL     1       9.522   3.603  -6.012  0.00  0.00    +0.109 C 
ATOM     36  H   UNL     1      10.825   4.958  -4.417  0.00  0.00    +0.155 HD
ENDBRANCH  31   9
ENDBRANCH   1  21
ENDBRANCH   7   1
TORSDOF 5
ENDMDL
MODEL 10
REMARK VINA RESULT:      -6.1     28.561     31.760
REMARK  Name = 7144117
REMARK  7 active torsions:
REMARK  status: ('A' for Active; 'I' for Inactive)
REMARK    1  A    between atoms: S_1  and  N_7
REMARK    2  A    between atoms: S_1  and  C_21
REMARK    3  A    between atoms: O_5  and  C_32
REMARK    4  A    between atoms: O_5  and  C_34
REMARK    5  A    between atoms: N_9  and  C_31
REMARK    6  A    between atoms: C_17  and  C_22
REMARK    7  A    between atoms: C_33  and  C_35
REMARK                            x       y       z     vdW  Elec       q    Type
REMARK                         _______ _______ _______ _____ _____    ______ ____
ROOT
ATOM      4  O   UNL     1      -5.337 -15.358  17.074  0.00  0.00    -0.268 OA
ATOM      7  N   UNL     1      -6.775 -10.632  16.712  0.00  0.00    -0.176 NA
ATOM      8  N   UNL     1      -4.885 -13.139  16.474  0.00  0.00    -0.311 N 
ATOM     10  C   UNL     1      -4.883 -11.252  18.208  0.00  0.00    +0.025 C 
ATOM     11  C   UNL     1      -4.445 -10.745  15.847  0.00  0.00    +0.053 C 
ATOM     12  C   UNL     1      -3.900 -10.581  17.263  0.00  0.00    +0.017 C 
ATOM     13  C   UNL     1      -6.269 -10.594  18.113  0.00  0.00    +0.114 C 
ATOM     14  C   UNL     1      -5.811 -10.040  15.739  0.00  0.00    +0.119 C 
ATOM     15  C   UNL     1      -4.926 -12.747  17.889  0.00  0.00    +0.130 C 
ATOM     16  C   UNL     1      -4.563 -12.221  15.455  0.00  0.00    +0.034 A 
ATOM     17  C   UNL     1      -4.391 -12.657  14.179  0.00  0.00    +0.002 A 
ATOM     18  C   UNL     1      -5.070 -14.511  16.221  0.00  0.00    +0.252 A 
ATOM     19  C   UNL     1      -4.579 -14.064  13.881  0.00  0.00    +0.015 A 
ATOM     20  C   UNL     1      -4.910 -14.952  14.817  0.00  0.00    +0.071 A 
ENDROOT
BRANCH  17  22
ATOM     22  C   UNL     1      -4.033 -11.732  13.081  0.00  0.00    -0.016 A 
ATOM     25  C   UNL     1      -2.694 -11.463  12.814  0.00  0.00    +0.012 A 
ATOM     26  C   UNL     1      -5.037 -11.139  12.324  0.00  0.00    +0.012 A 
ATOM     29  C   UNL     1      -2.357 -10.591  11.779  0.00  0.00    +0.046 A 
ATOM     30  C   UNL     1      -4.701 -10.266  11.288  0.00  0.00    +0.046 A 
ATOM     32  C   UNL     1      -3.359  -9.993  11.016  0.00  0.00    +0.120 A 
BRANCH  32   5
ATOM      5  O   UNL     1      -3.030  -9.143  10.006  0.00  0.00    -0.495 OA
ATOM     34  C   UNL     1      -4.050  -8.836   9.056  0.00  0.00    +0.277 C 
ENDBRANCH  32   5
ENDBRANCH  17  22
BRANCH   7   1
ATOM      1  S   UNL     1      -8.411 -10.179  16.502  0.00  0.00    +0.061 S 
ATOM      2  O   UNL     1      -8.927 -10.806  15.303  0.00  0.00    -0.153 OA
ATOM      3  O   UNL     1      -8.536  -8.752  16.709  0.00  0.00    -0.153 OA
BRANCH   1  21
ATOM     21  C   UNL     1      -9.138 -10.994  17.889  0.00  0.00    +0.106 A 
ATOM     23  C   UNL     1      -9.087 -12.377  17.967  0.00  0.00    +0.030 A 
ATOM     24  C   UNL     1      -9.746 -10.238  18.878  0.00  0.00    +0.030 A 
ATOM     27  C   UNL     1      -9.662 -13.020  19.063  0.00  0.00    +0.025 A 
ATOM     28  C   UNL     1     -10.320 -10.882  19.974  0.00  0.00    +0.025 A 
ATOM     31  C   UNL     1     -10.278 -12.273  20.066  0.00  0.00    +0.033 A 
BRANCH  31   9
ATOM      6  O   UNL     1     -13.165 -12.820  20.722  0.00  0.00    -0.276 OA
ATOM      9  N   UNL     1     -10.852 -12.918  21.163  0.00  0.00    -0.286 N 
ATOM     33  C   UNL     1     -12.210 -13.145  21.420  0.00  0.00    +0.214 C 
ATOM     35  C   UNL     1     -12.419 -13.880  22.720  0.00  0.00    +0.109 C 
ATOM     36  H   UNL     1     -10.192 -13.263  21.858  0.00  0.00    +0.155 HD
ENDBRANCH  31   9
ENDBRANCH   1  21
ENDBRANCH   7   1
TORSDOF 5
ENDMDL
