MODEL 1
REMARK VINA RESULT:      -7.5      0.000      0.000
REMARK  Name = 75536996
REMARK  4 active torsions:
REMARK  status: ('A' for Active; 'I' for Inactive)
REMARK    1  A    between atoms: N_5  and  C_14
REMARK    2  A    between atoms: N_7  and  C_19
REMARK    3  A    between atoms: C_14  and  C_16
REMARK    4  A    between atoms: C_19  and  C_22
REMARK                            x       y       z     vdW  Elec       q    Type
REMARK                         _______ _______ _______ _____ _____    ______ ____
ROOT
ATOM      2  O   UNL     1      15.541   9.650  20.464  0.00  0.00    -0.252 OA
ATOM      3  O   UNL     1      21.559   7.048  22.659  0.00  0.00    -0.253 OA
ATOM      4  N   UNL     1      17.228   8.071  20.890  0.00  0.00    -0.278 N 
ATOM      5  N   UNL     1      15.484   7.452  19.613  0.00  0.00    -0.279 N 
ATOM      6  N   UNL     1      19.805   7.056  21.145  0.00  0.00    -0.282 N 
ATOM      7  N   UNL     1      20.940   5.059  21.701  0.00  0.00    -0.295 N 
ATOM      8  C   UNL     1      17.440   6.654  20.639  0.00  0.00    +0.112 C 
ATOM      9  C   UNL     1      16.379   6.307  19.599  0.00  0.00    +0.133 C 
ATOM     10  C   UNL     1      18.879   6.409  20.194  0.00  0.00    +0.133 C 
ATOM     11  C   UNL     1      18.166   8.809  21.718  0.00  0.00    +0.128 C 
ATOM     12  C   UNL     1      19.600   8.507  21.281  0.00  0.00    +0.128 C 
ATOM     13  C   UNL     1      16.023   8.532  20.342  0.00  0.00    +0.306 C 
ATOM     15  C   UNL     1      20.820   6.431  21.886  0.00  0.00    +0.303 C 
ATOM     29  H   UNL     1      20.313   4.557  21.089  0.00  0.00    +0.151 HD
ENDROOT
BRANCH   5  14
ATOM     14  C   UNL     1      14.267   7.481  18.835  0.00  0.00    +0.144 C 
BRANCH  14  16
ATOM      1  F   UNL     1       9.678   7.445  22.097  0.00  0.00    -0.205 F 
ATOM     16  C   UNL     1      13.043   7.472  19.705  0.00  0.00    -0.030 A 
ATOM     17  C   UNL     1      12.055   8.441  19.531  0.00  0.00    +0.008 A 
ATOM     18  C   UNL     1      12.893   6.492  20.687  0.00  0.00    +0.008 A 
ATOM     20  C   UNL     1      10.919   8.432  20.339  0.00  0.00    +0.038 A 
ATOM     21  C   UNL     1      11.757   6.483  21.495  0.00  0.00    +0.038 A 
ATOM     23  C   UNL     1      10.769   7.453  21.321  0.00  0.00    +0.123 A 
ENDBRANCH  14  16
ENDBRANCH   5  14
BRANCH   7  19
ATOM     19  C   UNL     1      21.933   4.273  22.399  0.00  0.00    +0.141 C 
BRANCH  19  22
ATOM     22  C   UNL     1      23.023   3.800  21.480  0.00  0.00    -0.030 A 
ATOM     24  C   UNL     1      23.683   4.710  20.655  0.00  0.00    +0.005 A 
ATOM     25  C   UNL     1      23.375   2.451  21.453  0.00  0.00    +0.005 A 
ATOM     26  C   UNL     1      24.696   4.271  19.802  0.00  0.00    +0.000 A 
ATOM     27  C   UNL     1      24.388   2.012  20.601  0.00  0.00    +0.000 A 
ATOM     28  C   UNL     1      25.048   2.922  19.775  0.00  0.00    +0.000 A 
ENDBRANCH  19  22
ENDBRANCH   7  19
TORSDOF 4
ENDMDL
MODEL 2
REMARK VINA RESULT:      -7.3     31.889     34.539
REMARK  Name = 75536996
REMARK  4 active torsions:
REMARK  status: ('A' for Active; 'I' for Inactive)
REMARK    1  A    between atoms: N_5  and  C_14
REMARK    2  A    between atoms: N_7  and  C_19
REMARK    3  A    between atoms: C_14  and  C_16
REMARK    4  A    between atoms: C_19  and  C_22
REMARK                            x       y       z     vdW  Elec       q    Type
REMARK                         _______ _______ _______ _____ _____    ______ ____
ROOT
ATOM      2  O   UNL     1     -17.114   2.210  22.548  0.00  0.00    -0.252 OA
ATOM      3  O   UNL     1     -16.290   0.204  29.112  0.00  0.00    -0.253 OA
ATOM      4  N   UNL     1     -16.519   2.311  24.819  0.00  0.00    -0.278 N 
ATOM      5  N   UNL     1     -16.407   4.197  23.601  0.00  0.00    -0.279 N 
ATOM      6  N   UNL     1     -16.713   1.868  27.557  0.00  0.00    -0.282 N 
ATOM      7  N   UNL     1     -15.570   2.331  29.573  0.00  0.00    -0.295 N 
ATOM      8  C   UNL     1     -15.944   3.297  25.720  0.00  0.00    +0.112 C 
ATOM      9  C   UNL     1     -16.082   4.611  24.955  0.00  0.00    +0.133 C 
ATOM     10  C   UNL     1     -16.662   3.260  27.065  0.00  0.00    +0.133 C 
ATOM     11  C   UNL     1     -16.716   0.944  25.269  0.00  0.00    +0.128 C 
ATOM     12  C   UNL     1     -17.393   0.938  26.640  0.00  0.00    +0.128 C 
ATOM     13  C   UNL     1     -16.725   2.826  23.531  0.00  0.00    +0.306 C 
ATOM     15  C   UNL     1     -16.200   1.387  28.771  0.00  0.00    +0.303 C 
ATOM     29  H   UNL     1     -15.476   3.291  29.274  0.00  0.00    +0.151 HD
ENDROOT
BRANCH   5  14
ATOM     14  C   UNL     1     -16.520   5.148  22.518  0.00  0.00    +0.144 C 
BRANCH  14  16
ATOM      1  F   UNL     1     -11.488   7.023  20.823  0.00  0.00    -0.205 F 
ATOM     16  C   UNL     1     -15.178   5.647  22.066  0.00  0.00    -0.030 A 
ATOM     17  C   UNL     1     -14.023   4.931  22.382  0.00  0.00    +0.008 A 
ATOM     18  C   UNL     1     -15.086   6.828  21.328  0.00  0.00    +0.008 A 
ATOM     20  C   UNL     1     -12.778   5.396  21.963  0.00  0.00    +0.038 A 
ATOM     21  C   UNL     1     -13.840   7.293  20.909  0.00  0.00    +0.038 A 
ATOM     23  C   UNL     1     -12.685   6.577  21.226  0.00  0.00    +0.123 A 
ENDBRANCH  14  16
ENDBRANCH   5  14
BRANCH   7  19
ATOM     19  C   UNL     1     -14.985   1.988  30.850  0.00  0.00    +0.141 C 
BRANCH  19  22
ATOM     22  C   UNL     1     -14.885   3.178  31.761  0.00  0.00    -0.030 A 
ATOM     24  C   UNL     1     -15.019   4.466  31.243  0.00  0.00    +0.005 A 
ATOM     25  C   UNL     1     -14.658   2.994  33.125  0.00  0.00    +0.005 A 
ATOM     26  C   UNL     1     -14.927   5.571  32.089  0.00  0.00    +0.000 A 
ATOM     27  C   UNL     1     -14.566   4.099  33.971  0.00  0.00    +0.000 A 
ATOM     28  C   UNL     1     -14.701   5.388  33.452  0.00  0.00    +0.000 A 
ENDBRANCH  19  22
ENDBRANCH   7  19
TORSDOF 4
ENDMDL
MODEL 3
REMARK VINA RESULT:      -7.2     28.177     30.308
REMARK  Name = 75536996
REMARK  4 active torsions:
REMARK  status: ('A' for Active; 'I' for Inactive)
REMARK    1  A    between atoms: N_5  and  C_14
REMARK    2  A    between atoms: N_7  and  C_19
REMARK    3  A    between atoms: C_14  and  C_16
REMARK    4  A    between atoms: C_19  and  C_22
REMARK                            x       y       z     vdW  Elec       q    Type
REMARK                         _______ _______ _______ _____ _____    ______ ____
ROOT
ATOM      2  O   UNL     1      -4.925  -9.291   8.054  0.00  0.00    -0.252 OA
ATOM      3  O   UNL     1      -1.794 -10.549  14.089  0.00  0.00    -0.253 OA
ATOM      4  N   UNL     1      -4.664  -9.659  10.361  0.00  0.00    -0.278 N 
ATOM      5  N   UNL     1      -6.748  -9.586   9.521  0.00  0.00    -0.279 N 
ATOM      6  N   UNL     1      -3.632 -10.764  12.695  0.00  0.00    -0.282 N 
ATOM      7  N   UNL     1      -3.877 -10.643  15.042  0.00  0.00    -0.295 N 
ATOM      8  C   UNL     1      -5.533  -9.752  11.523  0.00  0.00    +0.112 C 
ATOM      9  C   UNL     1      -6.926  -9.925  10.922  0.00  0.00    +0.133 C 
ATOM     10  C   UNL     1      -5.079 -10.894  12.427  0.00  0.00    +0.133 C 
ATOM     11  C   UNL     1      -3.222  -9.649  10.532  0.00  0.00    +0.128 C 
ATOM     12  C   UNL     1      -2.800 -10.772  11.480  0.00  0.00    +0.128 C 
ATOM     13  C   UNL     1      -5.386  -9.484   9.171  0.00  0.00    +0.306 C 
ATOM     15  C   UNL     1      -3.017 -10.648  13.951  0.00  0.00    +0.303 C 
ATOM     29  H   UNL     1      -4.878 -10.696  14.919  0.00  0.00    +0.151 HD
ENDROOT
BRANCH   5  14
ATOM     14  C   UNL     1      -7.863  -9.520   8.603  0.00  0.00    +0.144 C 
BRANCH  14  16
ATOM      1  F   UNL     1     -10.387  -4.488   8.712  0.00  0.00    -0.205 F 
ATOM     16  C   UNL     1      -8.536  -8.178   8.632  0.00  0.00    -0.030 A 
ATOM     17  C   UNL     1      -9.817  -8.051   9.170  0.00  0.00    +0.008 A 
ATOM     18  C   UNL     1      -7.881  -7.057   8.122  0.00  0.00    +0.008 A 
ATOM     20  C   UNL     1     -10.442  -6.805   9.197  0.00  0.00    +0.038 A 
ATOM     21  C   UNL     1      -8.505  -5.812   8.149  0.00  0.00    +0.038 A 
ATOM     23  C   UNL     1      -9.786  -5.685   8.687  0.00  0.00    +0.123 A 
ENDBRANCH  14  16
ENDBRANCH   5  14
BRANCH   7  19
ATOM     19  C   UNL     1      -3.395 -10.524  16.400  0.00  0.00    +0.141 C 
BRANCH  19  22
ATOM     22  C   UNL     1      -4.495 -10.710  17.406  0.00  0.00    -0.030 A 
ATOM     24  C   UNL     1      -4.268 -11.466  18.556  0.00  0.00    +0.005 A 
ATOM     25  C   UNL     1      -5.743 -10.126  17.189  0.00  0.00    +0.005 A 
ATOM     26  C   UNL     1      -5.289 -11.638  19.490  0.00  0.00    +0.000 A 
ATOM     27  C   UNL     1      -6.764 -10.298  18.123  0.00  0.00    +0.000 A 
ATOM     28  C   UNL     1      -6.537 -11.054  19.274  0.00  0.00    +0.000 A 
ENDBRANCH  19  22
ENDBRANCH   7  19
TORSDOF 4
ENDMDL
MODEL 4
REMARK VINA RESULT:      -7.2     31.013     34.602
REMARK  Name = 75536996
REMARK  4 active torsions:
REMARK  status: ('A' for Active; 'I' for Inactive)
REMARK    1  A    between atoms: N_5  and  C_14
REMARK    2  A    between atoms: N_7  and  C_19
REMARK    3  A    between atoms: C_14  and  C_16
REMARK    4  A    between atoms: C_19  and  C_22
REMARK                            x       y       z     vdW  Elec       q    Type
REMARK                         _______ _______ _______ _____ _____    ______ ____
ROOT
ATOM      2  O   UNL     1     -18.858   1.611  26.626  0.00  0.00    -0.252 OA
ATOM      3  O   UNL     1     -16.762   4.686  20.799  0.00  0.00    -0.253 OA
ATOM      4  N   UNL     1     -17.879   3.218  25.218  0.00  0.00    -0.278 N 
ATOM      5  N   UNL     1     -17.585   3.423  27.437  0.00  0.00    -0.279 N 
ATOM      6  N   UNL     1     -16.458   4.221  23.048  0.00  0.00    -0.282 N 
ATOM      7  N   UNL     1     -15.755   6.273  22.110  0.00  0.00    -0.295 N 
ATOM      8  C   UNL     1     -17.169   4.476  25.380  0.00  0.00    +0.112 C 
ATOM      9  C   UNL     1     -16.786   4.489  26.858  0.00  0.00    +0.133 C 
ATOM     10  C   UNL     1     -15.992   4.544  24.412  0.00  0.00    +0.133 C 
ATOM     11  C   UNL     1     -18.266   2.769  23.891  0.00  0.00    +0.128 C 
ATOM     12  C   UNL     1     -17.082   2.893  22.931  0.00  0.00    +0.128 C 
ATOM     13  C   UNL     1     -18.195   2.624  26.448  0.00  0.00    +0.306 C 
ATOM     15  C   UNL     1     -16.351   5.035  21.910  0.00  0.00    +0.303 C 
ATOM     29  H   UNL     1     -15.446   6.562  23.028  0.00  0.00    +0.151 HD
ENDROOT
BRANCH   5  14
ATOM     14  C   UNL     1     -17.600   3.165  28.859  0.00  0.00    +0.144 C 
BRANCH  14  16
ATOM      1  F   UNL     1     -13.072   0.263  30.525  0.00  0.00    -0.205 F 
ATOM     16  C   UNL     1     -16.393   2.391  29.303  0.00  0.00    -0.030 A 
ATOM     17  C   UNL     1     -16.400   0.996  29.255  0.00  0.00    +0.008 A 
ATOM     18  C   UNL     1     -15.262   3.066  29.764  0.00  0.00    +0.008 A 
ATOM     20  C   UNL     1     -15.279   0.278  29.668  0.00  0.00    +0.038 A 
ATOM     21  C   UNL     1     -14.141   2.348  30.177  0.00  0.00    +0.038 A 
ATOM     23  C   UNL     1     -14.149   0.953  30.129  0.00  0.00    +0.123 A 
ENDBRANCH  14  16
ENDBRANCH   5  14
BRANCH   7  19
ATOM     19  C   UNL     1     -15.578   7.225  21.037  0.00  0.00    +0.141 C 
BRANCH  19  22
ATOM     22  C   UNL     1     -14.167   7.243  20.526  0.00  0.00    -0.030 A 
ATOM     24  C   UNL     1     -13.132   6.742  21.316  0.00  0.00    +0.005 A 
ATOM     25  C   UNL     1     -13.890   7.759  19.260  0.00  0.00    +0.005 A 
ATOM     26  C   UNL     1     -11.821   6.757  20.841  0.00  0.00    +0.000 A 
ATOM     27  C   UNL     1     -12.579   7.774  18.785  0.00  0.00    +0.000 A 
ATOM     28  C   UNL     1     -11.544   7.273  19.576  0.00  0.00    +0.000 A 
ENDBRANCH  19  22
ENDBRANCH   7  19
TORSDOF 4
ENDMDL
MODEL 5
REMARK VINA RESULT:      -7.1     31.318     34.509
REMARK  Name = 75536996
REMARK  4 active torsions:
REMARK  status: ('A' for Active; 'I' for Inactive)
REMARK    1  A    between atoms: N_5  and  C_14
REMARK    2  A    between atoms: N_7  and  C_19
REMARK    3  A    between atoms: C_14  and  C_16
REMARK    4  A    between atoms: C_19  and  C_22
REMARK                            x       y       z     vdW  Elec       q    Type
REMARK                         _______ _______ _______ _____ _____    ______ ____
ROOT
ATOM      2  O   UNL     1     -18.113   0.174  27.232  0.00  0.00    -0.252 OA
ATOM      3  O   UNL     1     -17.233   4.210  21.689  0.00  0.00    -0.253 OA
ATOM      4  N   UNL     1     -17.346   1.962  25.915  0.00  0.00    -0.278 N 
ATOM      5  N   UNL     1     -16.472   1.697  27.969  0.00  0.00    -0.279 N 
ATOM      6  N   UNL     1     -16.420   3.285  23.650  0.00  0.00    -0.282 N 
ATOM      7  N   UNL     1     -15.745   5.432  22.932  0.00  0.00    -0.295 N 
ATOM      8  C   UNL     1     -16.476   3.113  26.096  0.00  0.00    +0.112 C 
ATOM      9  C   UNL     1     -15.728   2.803  27.390  0.00  0.00    +0.133 C 
ATOM     10  C   UNL     1     -15.586   3.296  24.870  0.00  0.00    +0.133 C 
ATOM     11  C   UNL     1     -18.109   1.815  24.687  0.00  0.00    +0.128 C 
ATOM     12  C   UNL     1     -17.205   2.051  23.478  0.00  0.00    +0.128 C 
ATOM     13  C   UNL     1     -17.404   1.156  27.061  0.00  0.00    +0.306 C 
ATOM     15  C   UNL     1     -16.514   4.302  22.688  0.00  0.00    +0.303 C 
ATOM     29  H   UNL     1     -15.180   5.510  23.766  0.00  0.00    +0.151 HD
ENDROOT
BRANCH   5  14
ATOM     14  C   UNL     1     -16.153   1.161  29.273  0.00  0.00    +0.144 C 
BRANCH  14  16
ATOM      1  F   UNL     1     -13.457   4.910  32.494  0.00  0.00    -0.205 F 
ATOM     16  C   UNL     1     -15.434   2.161  30.132  0.00  0.00    -0.030 A 
ATOM     17  C   UNL     1     -14.051   2.075  30.294  0.00  0.00    +0.008 A 
ATOM     18  C   UNL     1     -16.149   3.176  30.767  0.00  0.00    +0.008 A 
ATOM     20  C   UNL     1     -13.383   3.003  31.092  0.00  0.00    +0.038 A 
ATOM     21  C   UNL     1     -15.482   4.104  31.565  0.00  0.00    +0.038 A 
ATOM     23  C   UNL     1     -14.098   4.019  31.728  0.00  0.00    +0.123 A 
ENDBRANCH  14  16
ENDBRANCH   5  14
BRANCH   7  19
ATOM     19  C   UNL     1     -15.739   6.567  22.036  0.00  0.00    +0.141 C 
BRANCH  19  22
ATOM     22  C   UNL     1     -14.400   6.764  21.386  0.00  0.00    -0.030 A 
ATOM     24  C   UNL     1     -14.254   7.690  20.354  0.00  0.00    +0.005 A 
ATOM     25  C   UNL     1     -13.301   6.020  21.816  0.00  0.00    +0.005 A 
ATOM     26  C   UNL     1     -13.010   7.874  19.751  0.00  0.00    +0.000 A 
ATOM     27  C   UNL     1     -12.056   6.203  21.213  0.00  0.00    +0.000 A 
ATOM     28  C   UNL     1     -11.911   7.131  20.181  0.00  0.00    +0.000 A 
ENDBRANCH  19  22
ENDBRANCH   7  19
TORSDOF 4
ENDMDL
MODEL 6
REMARK VINA RESULT:      -7.0     27.863     30.488
REMARK  Name = 75536996
REMARK  4 active torsions:
REMARK  status: ('A' for Active; 'I' for Inactive)
REMARK    1  A    between atoms: N_5  and  C_14
REMARK    2  A    between atoms: N_7  and  C_19
REMARK    3  A    between atoms: C_14  and  C_16
REMARK    4  A    between atoms: C_19  and  C_22
REMARK                            x       y       z     vdW  Elec       q    Type
REMARK                         _______ _______ _______ _____ _____    ______ ____
ROOT
ATOM      2  O   UNL     1     -10.135 -10.679  19.663  0.00  0.00    -0.252 OA
ATOM      3  O   UNL     1      -3.564 -11.421  17.647  0.00  0.00    -0.253 OA
ATOM      4  N   UNL     1      -8.251 -10.658  18.258  0.00  0.00    -0.278 N 
ATOM      5  N   UNL     1     -10.160  -9.747  17.497  0.00  0.00    -0.279 N 
ATOM      6  N   UNL     1      -5.594 -10.313  17.515  0.00  0.00    -0.282 N 
ATOM      7  N   UNL     1      -4.178 -10.514  15.633  0.00  0.00    -0.295 N 
ATOM      8  C   UNL     1      -7.962 -10.296  16.880  0.00  0.00    +0.112 C 
ATOM      9  C   UNL     1      -9.183  -9.485  16.454  0.00  0.00    +0.133 C 
ATOM     10  C   UNL     1      -6.636  -9.546  16.802  0.00  0.00    +0.133 C 
ATOM     11  C   UNL     1      -7.234 -11.308  19.067  0.00  0.00    +0.128 C 
ATOM     12  C   UNL     1      -5.905 -10.564  18.932  0.00  0.00    +0.128 C 
ATOM     13  C   UNL     1      -9.585 -10.401  18.606  0.00  0.00    +0.306 C 
ATOM     15  C   UNL     1      -4.388 -10.791  16.978  0.00  0.00    +0.303 C 
ATOM     29  H   UNL     1      -4.870 -10.022  15.087  0.00  0.00    +0.151 HD
ENDROOT
BRANCH   5  14
ATOM     14  C   UNL     1     -11.513  -9.245  17.421  0.00  0.00    +0.144 C 
BRANCH  14  16
ATOM      1  F   UNL     1     -11.979  -4.983  13.771  0.00  0.00    -0.205 F 
ATOM     16  C   UNL     1     -11.638  -8.109  16.448  0.00  0.00    -0.030 A 
ATOM     17  C   UNL     1     -11.092  -6.862  16.756  0.00  0.00    +0.008 A 
ATOM     18  C   UNL     1     -12.299  -8.299  15.234  0.00  0.00    +0.008 A 
ATOM     20  C   UNL     1     -11.207  -5.807  15.852  0.00  0.00    +0.038 A 
ATOM     21  C   UNL     1     -12.414  -7.244  14.330  0.00  0.00    +0.038 A 
ATOM     23  C   UNL     1     -11.868  -5.998  14.638  0.00  0.00    +0.123 A 
ENDBRANCH  14  16
ENDBRANCH   5  14
BRANCH   7  19
ATOM     19  C   UNL     1      -2.986 -10.945  14.936  0.00  0.00    +0.141 C 
BRANCH  19  22
ATOM     22  C   UNL     1      -3.013 -10.559  13.485  0.00  0.00    -0.030 A 
ATOM     24  C   UNL     1      -1.820 -10.302  12.810  0.00  0.00    +0.005 A 
ATOM     25  C   UNL     1      -4.231 -10.460  12.813  0.00  0.00    +0.005 A 
ATOM     26  C   UNL     1      -1.845  -9.945  11.462  0.00  0.00    +0.000 A 
ATOM     27  C   UNL     1      -4.256 -10.103  11.465  0.00  0.00    +0.000 A 
ATOM     28  C   UNL     1      -3.063  -9.845  10.789  0.00  0.00    +0.000 A 
ENDBRANCH  19  22
ENDBRANCH   7  19
TORSDOF 4
ENDMDL
MODEL 7
REMARK VINA RESULT:      -6.9     27.874     31.537
REMARK  Name = 75536996
REMARK  4 active torsions:
REMARK  status: ('A' for Active; 'I' for Inactive)
REMARK    1  A    between atoms: N_5  and  C_14
REMARK    2  A    between atoms: N_7  and  C_19
REMARK    3  A    between atoms: C_14  and  C_16
REMARK    4  A    between atoms: C_19  and  C_22
REMARK                            x       y       z     vdW  Elec       q    Type
REMARK                         _______ _______ _______ _____ _____    ______ ____
ROOT
ATOM      2  O   UNL     1      -3.357 -12.137  18.938  0.00  0.00    -0.252 OA
ATOM      3  O   UNL     1     -10.148 -11.018  19.593  0.00  0.00    -0.253 OA
ATOM      4  N   UNL     1      -5.489 -11.247  18.510  0.00  0.00    -0.278 N 
ATOM      5  N   UNL     1      -3.837 -10.808  17.051  0.00  0.00    -0.279 N 
ATOM      6  N   UNL     1      -8.259 -11.193  18.264  0.00  0.00    -0.282 N 
ATOM      7  N   UNL     1     -10.019  -9.717  17.709  0.00  0.00    -0.295 N 
ATOM      8  C   UNL     1      -6.078 -10.324  17.554  0.00  0.00    +0.112 C 
ATOM      9  C   UNL     1      -5.022 -10.215  16.457  0.00  0.00    +0.133 C 
ATOM     10  C   UNL     1      -7.434 -10.847  17.088  0.00  0.00    +0.133 C 
ATOM     11  C   UNL     1      -6.277 -11.731  19.631  0.00  0.00    +0.128 C 
ATOM     12  C   UNL     1      -7.646 -12.203  19.142  0.00  0.00    +0.128 C 
ATOM     13  C   UNL     1      -4.130 -11.478  18.256  0.00  0.00    +0.306 C 
ATOM     15  C   UNL     1      -9.519 -10.668  18.589  0.00  0.00    +0.303 C 
ATOM     29  H   UNL     1      -9.486  -9.417  16.906  0.00  0.00    +0.151 HD
ENDROOT
BRANCH   5  14
ATOM     14  C   UNL     1      -2.561 -10.811  16.371  0.00  0.00    +0.144 C 
BRANCH  14  16
ATOM      1  F   UNL     1      -3.000 -12.638  11.064  0.00  0.00    -0.205 F 
ATOM     16  C   UNL     1      -2.678 -11.298  14.956  0.00  0.00    -0.030 A 
ATOM     17  C   UNL     1      -2.283 -10.476  13.900  0.00  0.00    +0.008 A 
ATOM     18  C   UNL     1      -3.181 -12.573  14.697  0.00  0.00    +0.008 A 
ATOM     20  C   UNL     1      -2.392 -10.929  12.586  0.00  0.00    +0.038 A 
ATOM     21  C   UNL     1      -3.290 -13.025  13.383  0.00  0.00    +0.038 A 
ATOM     23  C   UNL     1      -2.895 -12.204  12.326  0.00  0.00    +0.123 A 
ENDBRANCH  14  16
ENDBRANCH   5  14
BRANCH   7  19
ATOM     19  C   UNL     1     -11.302  -9.081  17.912  0.00  0.00    +0.141 C 
BRANCH  19  22
ATOM     22  C   UNL     1     -11.555  -7.993  16.908  0.00  0.00    -0.030 A 
ATOM     24  C   UNL     1     -10.531  -7.113  16.560  0.00  0.00    +0.005 A 
ATOM     25  C   UNL     1     -12.815  -7.864  16.324  0.00  0.00    +0.005 A 
ATOM     26  C   UNL     1     -10.767  -6.104  15.626  0.00  0.00    +0.000 A 
ATOM     27  C   UNL     1     -13.051  -6.855  15.391  0.00  0.00    +0.000 A 
ATOM     28  C   UNL     1     -12.026  -5.974  15.042  0.00  0.00    +0.000 A 
ENDBRANCH  19  22
ENDBRANCH   7  19
TORSDOF 4
ENDMDL
MODEL 8
REMARK VINA RESULT:      -6.9     29.519     32.244
REMARK  Name = 75536996
REMARK  4 active torsions:
REMARK  status: ('A' for Active; 'I' for Inactive)
REMARK    1  A    between atoms: N_5  and  C_14
REMARK    2  A    between atoms: N_7  and  C_19
REMARK    3  A    between atoms: C_14  and  C_16
REMARK    4  A    between atoms: C_19  and  C_22
REMARK                            x       y       z     vdW  Elec       q    Type
REMARK                         _______ _______ _______ _____ _____    ______ ____
ROOT
ATOM      2  O   UNL     1     -14.374  -7.142  14.435  0.00  0.00    -0.252 OA
ATOM      3  O   UNL     1     -10.122 -10.870  18.413  0.00  0.00    -0.253 OA
ATOM      4  N   UNL     1     -12.397  -7.812  15.514  0.00  0.00    -0.278 N 
ATOM      5  N   UNL     1     -12.414  -5.832  14.450  0.00  0.00    -0.279 N 
ATOM      6  N   UNL     1     -10.780  -8.829  17.535  0.00  0.00    -0.282 N 
ATOM      7  N   UNL     1      -8.511  -9.290  18.008  0.00  0.00    -0.295 N 
ATOM      8  C   UNL     1     -11.028  -7.331  15.611  0.00  0.00    +0.112 C 
ATOM      9  C   UNL     1     -11.109  -5.900  15.085  0.00  0.00    +0.133 C 
ATOM     10  C   UNL     1     -10.528  -7.459  17.046  0.00  0.00    +0.133 C 
ATOM     11  C   UNL     1     -12.754  -9.101  16.080  0.00  0.00    +0.128 C 
ATOM     12  C   UNL     1     -12.199  -9.221  17.500  0.00  0.00    +0.128 C 
ATOM     13  C   UNL     1     -13.208  -6.955  14.756  0.00  0.00    +0.306 C 
ATOM     15  C   UNL     1      -9.826  -9.739  18.015  0.00  0.00    +0.303 C 
ATOM     29  H   UNL     1      -8.274  -8.374  17.654  0.00  0.00    +0.151 HD
ENDROOT
BRANCH   5  14
ATOM     14  C   UNL     1     -12.850  -4.662  13.722  0.00  0.00    +0.144 C 
BRANCH  14  16
ATOM      1  F   UNL     1     -11.255  -4.816   8.325  0.00  0.00    -0.205 F 
ATOM     16  C   UNL     1     -12.425  -4.703  12.283  0.00  0.00    -0.030 A 
ATOM     17  C   UNL     1     -12.381  -5.920  11.602  0.00  0.00    +0.008 A 
ATOM     18  C   UNL     1     -12.073  -3.524  11.626  0.00  0.00    +0.008 A 
ATOM     20  C   UNL     1     -11.986  -5.958  10.266  0.00  0.00    +0.038 A 
ATOM     21  C   UNL     1     -11.678  -3.562  10.289  0.00  0.00    +0.038 A 
ATOM     23  C   UNL     1     -11.635  -4.779   9.608  0.00  0.00    +0.123 A 
ENDBRANCH  14  16
ENDBRANCH   5  14
BRANCH   7  19
ATOM     19  C   UNL     1      -7.414 -10.114  18.466  0.00  0.00    +0.141 C 
BRANCH  19  22
ATOM     22  C   UNL     1      -6.333 -10.236  17.431  0.00  0.00    -0.030 A 
ATOM     24  C   UNL     1      -5.068 -10.696  17.795  0.00  0.00    +0.005 A 
ATOM     25  C   UNL     1      -6.594  -9.889  16.106  0.00  0.00    +0.005 A 
ATOM     26  C   UNL     1      -4.063 -10.810  16.834  0.00  0.00    +0.000 A 
ATOM     27  C   UNL     1      -5.590 -10.003  15.144  0.00  0.00    +0.000 A 
ATOM     28  C   UNL     1      -4.324 -10.464  15.509  0.00  0.00    +0.000 A 
ENDBRANCH  19  22
ENDBRANCH   7  19
TORSDOF 4
ENDMDL
MODEL 9
REMARK VINA RESULT:      -6.9     28.625     31.152
REMARK  Name = 75536996
REMARK  4 active torsions:
REMARK  status: ('A' for Active; 'I' for Inactive)
REMARK    1  A    between atoms: N_5  and  C_14
REMARK    2  A    between atoms: N_7  and  C_19
REMARK    3  A    between atoms: C_14  and  C_16
REMARK    4  A    between atoms: C_19  and  C_22
REMARK                            x       y       z     vdW  Elec       q    Type
REMARK                         _______ _______ _______ _____ _____    ______ ____
ROOT
ATOM      2  O   UNL     1      -2.025 -11.727  14.866  0.00  0.00    -0.252 OA
ATOM      3  O   UNL     1      -7.582  -9.565  18.366  0.00  0.00    -0.253 OA
ATOM      4  N   UNL     1      -4.108 -10.719  15.279  0.00  0.00    -0.278 N 
ATOM      5  N   UNL     1      -3.437 -10.947  13.146  0.00  0.00    -0.279 N 
ATOM      6  N   UNL     1      -6.621 -10.367  16.416  0.00  0.00    -0.282 N 
ATOM      7  N   UNL     1      -8.466  -8.892  16.360  0.00  0.00    -0.295 N 
ATOM      8  C   UNL     1      -5.129 -10.041  14.498  0.00  0.00    +0.112 C 
ATOM      9  C   UNL     1      -4.778 -10.396  13.055  0.00  0.00    +0.133 C 
ATOM     10  C   UNL     1      -6.517 -10.489  14.948  0.00  0.00    +0.133 C 
ATOM     11  C   UNL     1      -4.203 -10.750  16.729  0.00  0.00    +0.128 C 
ATOM     12  C   UNL     1      -5.616 -11.154  17.151  0.00  0.00    +0.128 C 
ATOM     13  C   UNL     1      -3.058 -11.195  14.480  0.00  0.00    +0.306 C 
ATOM     15  C   UNL     1      -7.559  -9.607  17.132  0.00  0.00    +0.303 C 
ATOM     29  H   UNL     1      -8.422  -8.910  15.351  0.00  0.00    +0.151 HD
ENDROOT
BRANCH   5  14
ATOM     14  C   UNL     1      -2.681 -11.316  11.970  0.00  0.00    +0.144 C 
BRANCH  14  16
ATOM      1  F   UNL     1      -5.165  -9.565   7.230  0.00  0.00    -0.205 F 
ATOM     16  C   UNL     1      -3.343 -10.849  10.706  0.00  0.00    -0.030 A 
ATOM     17  C   UNL     1      -3.992 -11.766   9.878  0.00  0.00    +0.008 A 
ATOM     18  C   UNL     1      -3.311  -9.498  10.360  0.00  0.00    +0.008 A 
ATOM     20  C   UNL     1      -4.607 -11.332   8.705  0.00  0.00    +0.038 A 
ATOM     21  C   UNL     1      -3.926  -9.064   9.186  0.00  0.00    +0.038 A 
ATOM     23  C   UNL     1      -4.575  -9.981   8.358  0.00  0.00    +0.123 A 
ENDBRANCH  14  16
ENDBRANCH   5  14
BRANCH   7  19
ATOM     19  C   UNL     1      -9.488  -8.057  16.951  0.00  0.00    +0.141 C 
BRANCH  19  22
ATOM     22  C   UNL     1     -10.462  -7.550  15.927  0.00  0.00    -0.030 A 
ATOM     24  C   UNL     1     -10.908  -8.394  14.910  0.00  0.00    +0.005 A 
ATOM     25  C   UNL     1     -10.921  -6.234  15.993  0.00  0.00    +0.005 A 
ATOM     26  C   UNL     1     -11.813  -7.923  13.959  0.00  0.00    +0.000 A 
ATOM     27  C   UNL     1     -11.826  -5.763  15.042  0.00  0.00    +0.000 A 
ATOM     28  C   UNL     1     -12.272  -6.608  14.025  0.00  0.00    +0.000 A 
ENDBRANCH  19  22
ENDBRANCH   7  19
TORSDOF 4
ENDMDL
MODEL 10
REMARK VINA RESULT:      -6.9     31.187     34.382
REMARK  Name = 75536996
REMARK  4 active torsions:
REMARK  status: ('A' for Active; 'I' for Inactive)
REMARK    1  A    between atoms: N_5  and  C_14
REMARK    2  A    between atoms: N_7  and  C_19
REMARK    3  A    between atoms: C_14  and  C_16
REMARK    4  A    between atoms: C_19  and  C_22
REMARK                            x       y       z     vdW  Elec       q    Type
REMARK                         _______ _______ _______ _____ _____    ______ ____
ROOT
ATOM      2  O   UNL     1     -16.831   4.639  20.745  0.00  0.00    -0.252 OA
ATOM      3  O   UNL     1     -17.983   0.231  25.945  0.00  0.00    -0.253 OA
ATOM      4  N   UNL     1     -16.852   3.775  22.930  0.00  0.00    -0.278 N 
ATOM      5  N   UNL     1     -16.232   5.916  22.634  0.00  0.00    -0.279 N 
ATOM      6  N   UNL     1     -17.809   2.400  25.150  0.00  0.00    -0.282 N 
ATOM      7  N   UNL     1     -17.200   1.851  27.366  0.00  0.00    -0.295 N 
ATOM      8  C   UNL     1     -16.440   4.225  24.250  0.00  0.00    +0.112 C 
ATOM      9  C   UNL     1     -16.238   5.727  24.075  0.00  0.00    +0.133 C 
ATOM     10  C   UNL     1     -17.490   3.836  25.287  0.00  0.00    +0.133 C 
ATOM     11  C   UNL     1     -17.298   2.406  22.736  0.00  0.00    +0.128 C 
ATOM     12  C   UNL     1     -18.311   2.028  23.817  0.00  0.00    +0.128 C 
ATOM     13  C   UNL     1     -16.657   4.759  21.950  0.00  0.00    +0.306 C 
ATOM     15  C   UNL     1     -17.687   1.414  26.140  0.00  0.00    +0.303 C 
ATOM     29  H   UNL     1     -16.934   2.815  27.509  0.00  0.00    +0.151 HD
ENDROOT
BRANCH   5  14
ATOM     14  C   UNL     1     -15.958   7.201  22.032  0.00  0.00    +0.144 C 
BRANCH  14  16
ATOM      1  F   UNL     1     -10.572   7.689  20.464  0.00  0.00    -0.205 F 
ATOM     16  C   UNL     1     -14.522   7.331  21.614  0.00  0.00    -0.030 A 
ATOM     17  C   UNL     1     -13.694   6.208  21.600  0.00  0.00    +0.008 A 
ATOM     18  C   UNL     1     -14.014   8.575  21.238  0.00  0.00    +0.008 A 
ATOM     20  C   UNL     1     -12.360   6.329  21.212  0.00  0.00    +0.038 A 
ATOM     21  C   UNL     1     -12.681   8.696  20.850  0.00  0.00    +0.038 A 
ATOM     23  C   UNL     1     -11.853   7.573  20.836  0.00  0.00    +0.123 A 
ENDBRANCH  14  16
ENDBRANCH   5  14
BRANCH   7  19
ATOM     19  C   UNL     1     -17.013   0.953  28.484  0.00  0.00    +0.141 C 
BRANCH  19  22
ATOM     22  C   UNL     1     -15.775   1.282  29.268  0.00  0.00    -0.030 A 
ATOM     24  C   UNL     1     -15.419   2.613  29.484  0.00  0.00    +0.005 A 
ATOM     25  C   UNL     1     -14.982   0.255  29.781  0.00  0.00    +0.005 A 
ATOM     26  C   UNL     1     -14.270   2.918  30.213  0.00  0.00    +0.000 A 
ATOM     27  C   UNL     1     -13.833   0.560  30.510  0.00  0.00    +0.000 A 
ATOM     28  C   UNL     1     -13.477   1.892  30.726  0.00  0.00    +0.000 A 
ENDBRANCH  19  22
ENDBRANCH   7  19
TORSDOF 4
ENDMDL
