MODEL 1
REMARK VINA RESULT:      -8.3      0.000      0.000
REMARK  Name = 28960439
REMARK  8 active torsions:
REMARK  status: ('A' for Active; 'I' for Inactive)
REMARK    1  A    between atoms: O_3  and  C_10
REMARK    2  A    between atoms: O_4  and  C_22
REMARK    3  A    between atoms: O_4  and  C_31
REMARK    4  A    between atoms: N_5  and  C_9
REMARK    5  A    between atoms: N_6  and  C_11
REMARK    6  A    between atoms: N_6  and  C_19
REMARK    7  A    between atoms: N_7  and  C_20
REMARK    8  A    between atoms: C_19  and  C_21
REMARK                            x       y       z     vdW  Elec       q    Type
REMARK                         _______ _______ _______ _____ _____    ______ ____
ROOT
ATOM      1  O   UNL     1      13.120   9.153  18.994  0.00  0.00    -0.343 OA
ATOM      2  O   UNL     1      11.457   7.804  18.105  0.00  0.00    -0.347 OA
ATOM      9  C   UNL     1      11.479   8.204  20.490  0.00  0.00    +0.143 C 
ATOM     10  C   UNL     1      12.377   6.965  20.710  0.00  0.00    +0.156 C 
ATOM     11  C   UNL     1      13.761   7.063  20.025  0.00  0.00    +0.116 C 
ATOM     12  C   UNL     1      13.717   7.883  18.715  0.00  0.00    +0.166 C 
ATOM     13  C   UNL     1      11.732   8.809  19.096  0.00  0.00    +0.270 C 
ATOM     14  C   UNL     1      12.748   7.347  17.677  0.00  0.00    +0.196 C 
ENDROOT
BRANCH   9   5
ATOM      5  N   UNL     1      11.723   9.211  21.523  0.00  0.00    -0.290 NA
ATOM      7  N   UNL     1      11.167  11.545  23.073  0.00  0.00    -0.325 N 
ATOM     15  C   UNL     1      10.642   9.203  22.515  0.00  0.00    +0.104 C 
ATOM     16  C   UNL     1      11.841  10.547  20.923  0.00  0.00    +0.104 C 
ATOM     17  C   UNL     1      10.914  10.214  23.633  0.00  0.00    +0.120 C 
ATOM     18  C   UNL     1      12.154  11.600  21.988  0.00  0.00    +0.120 C 
BRANCH   7  20
ATOM     20  C   UNL     1      11.011  12.678  23.880  0.00  0.00    +0.072 A 
ATOM     22  C   UNL     1      11.683  12.781  25.097  0.00  0.00    +0.141 A 
ATOM     23  C   UNL     1      10.172  13.709  23.457  0.00  0.00    +0.027 A 
ATOM     25  C   UNL     1      11.517  13.914  25.892  0.00  0.00    +0.047 A 
ATOM     26  C   UNL     1      10.007  14.844  24.251  0.00  0.00    +0.002 A 
ATOM     27  C   UNL     1      10.679  14.947  25.469  0.00  0.00    +0.004 A 
BRANCH  22   4
ATOM      4  O   UNL     1      12.506  11.784  25.529  0.00  0.00    -0.493 OA
ATOM     31  C   UNL     1      13.909  12.011  25.420  0.00  0.00    +0.277 C 
ENDBRANCH  22   4
ENDBRANCH   7  20
ENDBRANCH   9   5
BRANCH  10   3
ATOM      3  O   UNL     1      11.682   5.827  20.177  0.00  0.00    -0.388 OA
ATOM     33  H   UNL     1      12.299   5.355  19.592  0.00  0.00    +0.210 HD
ENDBRANCH  10   3
BRANCH  11   6
ATOM      6  N   UNL     1      14.738   7.687  20.923  0.00  0.00    -0.303 NA
ATOM     32  H   UNL     1      15.074   6.999  21.596  0.00  0.00    +0.123 HD
BRANCH   6  19
ATOM     19  C   UNL     1      15.850   8.235  20.165  0.00  0.00    +0.137 C 
BRANCH  19  21
ATOM      8  N   UNL     1      17.874   8.086  21.506  0.00  0.00    -0.259 NA
ATOM     21  C   UNL     1      17.148   7.550  20.500  0.00  0.00    +0.055 A 
ATOM     24  C   UNL     1      17.528   6.428  19.781  0.00  0.00    +0.024 A 
ATOM     28  C   UNL     1      18.730   5.817  20.116  0.00  0.00    +0.003 A 
ATOM     29  C   UNL     1      19.038   7.465  21.803  0.00  0.00    +0.111 A 
ATOM     30  C   UNL     1      19.506   6.340  21.146  0.00  0.00    +0.020 A 
ENDBRANCH  19  21
ENDBRANCH   6  19
ENDBRANCH  11   6
TORSDOF 7
ENDMDL
MODEL 2
REMARK VINA RESULT:      -8.0      3.956      7.019
REMARK  Name = 28960439
REMARK  8 active torsions:
REMARK  status: ('A' for Active; 'I' for Inactive)
REMARK    1  A    between atoms: O_3  and  C_10
REMARK    2  A    between atoms: O_4  and  C_22
REMARK    3  A    between atoms: O_4  and  C_31
REMARK    4  A    between atoms: N_5  and  C_9
REMARK    5  A    between atoms: N_6  and  C_11
REMARK    6  A    between atoms: N_6  and  C_19
REMARK    7  A    between atoms: N_7  and  C_20
REMARK    8  A    between atoms: C_19  and  C_21
REMARK                            x       y       z     vdW  Elec       q    Type
REMARK                         _______ _______ _______ _____ _____    ______ ____
ROOT
ATOM      1  O   UNL     1      12.661   7.276  19.684  0.00  0.00    -0.343 OA
ATOM      2  O   UNL     1      10.543   7.998  20.292  0.00  0.00    -0.347 OA
ATOM      9  C   UNL     1      12.112   9.611  19.406  0.00  0.00    +0.143 C 
ATOM     10  C   UNL     1      12.632   9.917  20.829  0.00  0.00    +0.156 C 
ATOM     11  C   UNL     1      13.283   8.702  21.535  0.00  0.00    +0.116 C 
ATOM     12  C   UNL     1      12.642   7.360  21.114  0.00  0.00    +0.166 C 
ATOM     13  C   UNL     1      11.594   8.163  19.324  0.00  0.00    +0.270 C 
ATOM     14  C   UNL     1      11.150   7.274  21.373  0.00  0.00    +0.196 C 
ENDROOT
BRANCH   9   5
ATOM      5  N   UNL     1      13.166   9.821  18.412  0.00  0.00    -0.290 NA
ATOM      7  N   UNL     1      14.380  10.991  16.107  0.00  0.00    -0.325 N 
ATOM     15  C   UNL     1      13.634  11.212  18.444  0.00  0.00    +0.104 C 
ATOM     16  C   UNL     1      12.679   9.488  17.067  0.00  0.00    +0.104 C 
ATOM     17  C   UNL     1      14.776  11.430  17.448  0.00  0.00    +0.120 C 
ATOM     18  C   UNL     1      13.790   9.649  16.027  0.00  0.00    +0.120 C 
BRANCH   7  20
ATOM     20  C   UNL     1      15.065  11.476  14.988  0.00  0.00    +0.072 A 
ATOM     22  C   UNL     1      14.376  11.803  13.820  0.00  0.00    +0.141 A 
ATOM     23  C   UNL     1      16.450  11.631  15.047  0.00  0.00    +0.027 A 
ATOM     25  C   UNL     1      15.072  12.284  12.711  0.00  0.00    +0.047 A 
ATOM     26  C   UNL     1      17.146  12.114  13.938  0.00  0.00    +0.002 A 
ATOM     27  C   UNL     1      16.457  12.440  12.770  0.00  0.00    +0.004 A 
BRANCH  22   4
ATOM      4  O   UNL     1      13.023  11.658  13.742  0.00  0.00    -0.493 OA
ATOM     31  C   UNL     1      12.307  12.654  13.016  0.00  0.00    +0.277 C 
ENDBRANCH  22   4
ENDBRANCH   7  20
ENDBRANCH   9   5
BRANCH  10   3
ATOM      3  O   UNL     1      11.514  10.357  21.614  0.00  0.00    -0.388 OA
ATOM     33  H   UNL     1      11.830  11.058  22.208  0.00  0.00    +0.210 HD
ENDBRANCH  10   3
BRANCH  11   6
ATOM      6  N   UNL     1      14.717   8.639  21.235  0.00  0.00    -0.303 NA
ATOM     32  H   UNL     1      15.180   9.471  21.599  0.00  0.00    +0.123 HD
BRANCH   6  19
ATOM     19  C   UNL     1      15.306   7.443  21.811  0.00  0.00    +0.137 C 
BRANCH  19  21
ATOM      8  N   UNL     1      15.870   6.399  19.687  0.00  0.00    -0.259 NA
ATOM     21  C   UNL     1      16.321   6.819  20.890  0.00  0.00    +0.055 A 
ATOM     24  C   UNL     1      17.637   6.707  21.308  0.00  0.00    +0.024 A 
ATOM     28  C   UNL     1      18.550   6.129  20.433  0.00  0.00    +0.003 A 
ATOM     29  C   UNL     1      16.786   5.842  18.864  0.00  0.00    +0.111 A 
ATOM     30  C   UNL     1      18.124   5.685  19.186  0.00  0.00    +0.020 A 
ENDBRANCH  19  21
ENDBRANCH   6  19
ENDBRANCH  11   6
TORSDOF 7
ENDMDL
MODEL 3
REMARK VINA RESULT:      -7.6      3.670      7.438
REMARK  Name = 28960439
REMARK  8 active torsions:
REMARK  status: ('A' for Active; 'I' for Inactive)
REMARK    1  A    between atoms: O_3  and  C_10
REMARK    2  A    between atoms: O_4  and  C_22
REMARK    3  A    between atoms: O_4  and  C_31
REMARK    4  A    between atoms: N_5  and  C_9
REMARK    5  A    between atoms: N_6  and  C_11
REMARK    6  A    between atoms: N_6  and  C_19
REMARK    7  A    between atoms: N_7  and  C_20
REMARK    8  A    between atoms: C_19  and  C_21
REMARK                            x       y       z     vdW  Elec       q    Type
REMARK                         _______ _______ _______ _____ _____    ______ ____
ROOT
ATOM      1  O   UNL     1      12.561   9.045  21.367  0.00  0.00    -0.343 OA
ATOM      2  O   UNL     1      11.476   7.098  22.005  0.00  0.00    -0.347 OA
ATOM      9  C   UNL     1      13.543   6.924  20.761  0.00  0.00    +0.143 C 
ATOM     10  C   UNL     1      12.763   6.928  19.426  0.00  0.00    +0.156 C 
ATOM     11  C   UNL     1      11.962   8.229  19.171  0.00  0.00    +0.116 C 
ATOM     12  C   UNL     1      11.451   8.875  20.479  0.00  0.00    +0.166 C 
ATOM     13  C   UNL     1      12.768   7.707  21.838  0.00  0.00    +0.270 C 
ATOM     14  C   UNL     1      10.567   7.970  21.317  0.00  0.00    +0.196 C 
ENDROOT
BRANCH   9   5
ATOM      5  N   UNL     1      14.875   7.501  20.586  0.00  0.00    -0.290 NA
ATOM      7  N   UNL     1      17.691   7.737  21.004  0.00  0.00    -0.325 N 
ATOM     15  C   UNL     1      15.796   6.508  20.020  0.00  0.00    +0.104 C 
ATOM     16  C   UNL     1      15.397   7.993  21.867  0.00  0.00    +0.104 C 
ATOM     17  C   UNL     1      17.180   7.117  19.778  0.00  0.00    +0.120 C 
ATOM     18  C   UNL     1      16.766   8.651  21.686  0.00  0.00    +0.120 C 
BRANCH   7  20
ATOM     20  C   UNL     1      19.064   7.963  21.147  0.00  0.00    +0.072 A 
ATOM     22  C   UNL     1      19.982   6.947  20.881  0.00  0.00    +0.141 A 
ATOM     23  C   UNL     1      19.513   9.217  21.561  0.00  0.00    +0.027 A 
ATOM     25  C   UNL     1      21.348   7.184  21.029  0.00  0.00    +0.047 A 
ATOM     26  C   UNL     1      20.880   9.455  21.709  0.00  0.00    +0.002 A 
ATOM     27  C   UNL     1      21.798   8.438  21.442  0.00  0.00    +0.004 A 
BRANCH  22   4
ATOM      4  O   UNL     1      19.564   5.714  20.476  0.00  0.00    -0.493 OA
ATOM     31  C   UNL     1      20.540   4.675  20.455  0.00  0.00    +0.277 C 
ENDBRANCH  22   4
ENDBRANCH   7  20
ENDBRANCH   9   5
BRANCH  10   3
ATOM      3  O   UNL     1      11.845   5.825  19.457  0.00  0.00    -0.388 OA
ATOM     33  H   UNL     1      10.952   6.190  19.583  0.00  0.00    +0.210 HD
ENDBRANCH  10   3
BRANCH  11   6
ATOM      6  N   UNL     1      12.790   9.214  18.467  0.00  0.00    -0.303 NA
ATOM     32  H   UNL     1      13.562   9.504  19.067  0.00  0.00    +0.123 HD
BRANCH   6  19
ATOM     19  C   UNL     1      13.299   8.657  17.225  0.00  0.00    +0.137 C 
BRANCH  19  21
ATOM      8  N   UNL     1      14.484   9.336  15.212  0.00  0.00    -0.259 NA
ATOM     21  C   UNL     1      14.185   9.632  16.496  0.00  0.00    +0.055 A 
ATOM     24  C   UNL     1      14.641  10.760  17.159  0.00  0.00    +0.024 A 
ATOM     28  C   UNL     1      15.456  11.641  16.458  0.00  0.00    +0.003 A 
ATOM     29  C   UNL     1      15.279  10.215  14.563  0.00  0.00    +0.111 A 
ATOM     30  C   UNL     1      15.786  11.371  15.134  0.00  0.00    +0.020 A 
ENDBRANCH  19  21
ENDBRANCH   6  19
ENDBRANCH  11   6
TORSDOF 7
ENDMDL
MODEL 4
REMARK VINA RESULT:      -7.3     27.075     28.843
REMARK  Name = 28960439
REMARK  8 active torsions:
REMARK  status: ('A' for Active; 'I' for Inactive)
REMARK    1  A    between atoms: O_3  and  C_10
REMARK    2  A    between atoms: O_4  and  C_22
REMARK    3  A    between atoms: O_4  and  C_31
REMARK    4  A    between atoms: N_5  and  C_9
REMARK    5  A    between atoms: N_6  and  C_11
REMARK    6  A    between atoms: N_6  and  C_19
REMARK    7  A    between atoms: N_7  and  C_20
REMARK    8  A    between atoms: C_19  and  C_21
REMARK                            x       y       z     vdW  Elec       q    Type
REMARK                         _______ _______ _______ _____ _____    ______ ____
ROOT
ATOM      1  O   UNL     1      -5.640  -8.392  11.154  0.00  0.00    -0.343 OA
ATOM      2  O   UNL     1      -7.560  -9.017  10.013  0.00  0.00    -0.347 OA
ATOM      9  C   UNL     1      -6.568 -10.583  11.567  0.00  0.00    +0.143 C 
ATOM     10  C   UNL     1      -5.696 -11.181  10.440  0.00  0.00    +0.156 C 
ATOM     11  C   UNL     1      -4.701 -10.173   9.814  0.00  0.00    +0.116 C 
ATOM     12  C   UNL     1      -5.244  -8.725   9.819  0.00  0.00    +0.166 C 
ATOM     13  C   UNL     1      -6.879  -9.102  11.277  0.00  0.00    +0.270 C 
ATOM     14  C   UNL     1      -6.563  -8.552   9.090  0.00  0.00    +0.196 C 
ENDROOT
BRANCH   9   5
ATOM      5  N   UNL     1      -5.900 -10.708  12.863  0.00  0.00    -0.290 NA
ATOM      7  N   UNL     1      -5.724 -11.211  15.669  0.00  0.00    -0.325 N 
ATOM     15  C   UNL     1      -6.036 -12.074  13.383  0.00  0.00    +0.104 C 
ATOM     16  C   UNL     1      -6.457  -9.749  13.825  0.00  0.00    +0.104 C 
ATOM     17  C   UNL     1      -5.292 -12.233  14.711  0.00  0.00    +0.120 C 
ATOM     18  C   UNL     1      -5.726  -9.832  15.167  0.00  0.00    +0.120 C 
BRANCH   7  20
ATOM     20  C   UNL     1      -5.520 -11.413  17.038  0.00  0.00    +0.072 A 
ATOM     22  C   UNL     1      -6.597 -11.419  17.924  0.00  0.00    +0.141 A 
ATOM     23  C   UNL     1      -4.224 -11.608  17.516  0.00  0.00    +0.027 A 
ATOM     25  C   UNL     1      -6.380 -11.620  19.286  0.00  0.00    +0.047 A 
ATOM     26  C   UNL     1      -4.006 -11.810  18.880  0.00  0.00    +0.002 A 
ATOM     27  C   UNL     1      -5.084 -11.816  19.765  0.00  0.00    +0.004 A 
BRANCH  22   4
ATOM      4  O   UNL     1      -7.871 -11.229  17.477  0.00  0.00    -0.493 OA
ATOM     31  C   UNL     1      -8.785 -10.605  18.375  0.00  0.00    +0.277 C 
ENDBRANCH  22   4
ENDBRANCH   7  20
ENDBRANCH   9   5
BRANCH  10   3
ATOM      3  O   UNL     1      -6.580 -11.650   9.410  0.00  0.00    -0.388 OA
ATOM     33  H   UNL     1      -7.478 -11.357   9.640  0.00  0.00    +0.210 HD
ENDBRANCH  10   3
BRANCH  11   6
ATOM      6  N   UNL     1      -3.427 -10.187  10.542  0.00  0.00    -0.303 NA
ATOM     32  H   UNL     1      -3.494  -9.582  11.360  0.00  0.00    +0.123 HD
BRANCH   6  19
ATOM     19  C   UNL     1      -3.085 -11.540  10.943  0.00  0.00    +0.137 C 
BRANCH  19  21
ATOM      8  N   UNL     1      -2.163 -12.800  12.809  0.00  0.00    -0.259 NA
ATOM     21  C   UNL     1      -2.535 -11.586  12.344  0.00  0.00    +0.055 A 
ATOM     24  C   UNL     1      -2.436 -10.413  13.073  0.00  0.00    +0.024 A 
ATOM     28  C   UNL     1      -1.923 -10.488  14.363  0.00  0.00    +0.003 A 
ATOM     29  C   UNL     1      -1.669 -12.835  14.067  0.00  0.00    +0.111 A 
ATOM     30  C   UNL     1      -1.529 -11.720  14.876  0.00  0.00    +0.020 A 
ENDBRANCH  19  21
ENDBRANCH   6  19
ENDBRANCH  11   6
TORSDOF 7
ENDMDL
MODEL 5
REMARK VINA RESULT:      -7.0     28.000     29.895
REMARK  Name = 28960439
REMARK  8 active torsions:
REMARK  status: ('A' for Active; 'I' for Inactive)
REMARK    1  A    between atoms: O_3  and  C_10
REMARK    2  A    between atoms: O_4  and  C_22
REMARK    3  A    between atoms: O_4  and  C_31
REMARK    4  A    between atoms: N_5  and  C_9
REMARK    5  A    between atoms: N_6  and  C_11
REMARK    6  A    between atoms: N_6  and  C_19
REMARK    7  A    between atoms: N_7  and  C_20
REMARK    8  A    between atoms: C_19  and  C_21
REMARK                            x       y       z     vdW  Elec       q    Type
REMARK                         _______ _______ _______ _____ _____    ______ ____
ROOT
ATOM      1  O   UNL     1     -10.649 -10.692  15.697  0.00  0.00    -0.343 OA
ATOM      2  O   UNL     1     -11.319  -8.478  15.532  0.00  0.00    -0.347 OA
ATOM      9  C   UNL     1      -8.974  -8.962  15.870  0.00  0.00    +0.143 C 
ATOM     10  C   UNL     1      -9.164  -8.912  17.404  0.00  0.00    +0.156 C 
ATOM     11  C   UNL     1     -10.132  -9.989  17.951  0.00  0.00    +0.116 C 
ATOM     12  C   UNL     1     -11.253 -10.343  16.947  0.00  0.00    +0.166 C 
ATOM     13  C   UNL     1     -10.278  -9.406  15.182  0.00  0.00    +0.270 C 
ATOM     14  C   UNL     1     -12.104  -9.162  16.521  0.00  0.00    +0.196 C 
ENDROOT
BRANCH   9   5
ATOM      5  N   UNL     1      -7.885  -9.871  15.512  0.00  0.00    -0.290 NA
ATOM      7  N   UNL     1      -5.383 -10.614  14.350  0.00  0.00    -0.325 N 
ATOM     15  C   UNL     1      -6.624  -9.428  16.118  0.00  0.00    +0.104 C 
ATOM     16  C   UNL     1      -7.738  -9.948  14.052  0.00  0.00    +0.104 C 
ATOM     17  C   UNL     1      -5.488 -10.403  15.798  0.00  0.00    +0.120 C 
ATOM     18  C   UNL     1      -6.639 -10.940  13.665  0.00  0.00    +0.120 C 
BRANCH   7  20
ATOM     20  C   UNL     1      -4.190 -11.097  13.805  0.00  0.00    +0.072 A 
ATOM     22  C   UNL     1      -3.706 -10.595  12.597  0.00  0.00    +0.141 A 
ATOM     23  C   UNL     1      -3.482 -12.092  14.479  0.00  0.00    +0.027 A 
ATOM     25  C   UNL     1      -2.516 -11.087  12.063  0.00  0.00    +0.047 A 
ATOM     26  C   UNL     1      -2.290 -12.584  13.945  0.00  0.00    +0.002 A 
ATOM     27  C   UNL     1      -1.807 -12.081  12.737  0.00  0.00    +0.004 A 
BRANCH  22   4
ATOM      4  O   UNL     1      -4.383  -9.623  11.922  0.00  0.00    -0.493 OA
ATOM     31  C   UNL     1      -4.066  -9.452  10.543  0.00  0.00    +0.277 C 
ENDBRANCH  22   4
ENDBRANCH   7  20
ENDBRANCH   9   5
BRANCH  10   3
ATOM      3  O   UNL     1      -9.688  -7.616  17.733  0.00  0.00    -0.388 OA
ATOM     33  H   UNL     1      -9.436  -7.008  17.018  0.00  0.00    +0.210 HD
ENDBRANCH  10   3
BRANCH  11   6
ATOM      6  N   UNL     1      -9.403 -11.219  18.277  0.00  0.00    -0.303 NA
ATOM     32  H   UNL     1      -8.929 -11.567  17.444  0.00  0.00    +0.123 HD
BRANCH   6  19
ATOM     19  C   UNL     1      -8.442 -10.976  19.339  0.00  0.00    +0.137 C 
BRANCH  19  21
ATOM      8  N   UNL     1      -7.107 -12.659  18.198  0.00  0.00    -0.259 NA
ATOM     21  C   UNL     1      -7.106 -11.601  19.039  0.00  0.00    +0.055 A 
ATOM     24  C   UNL     1      -5.965 -11.074  19.622  0.00  0.00    +0.024 A 
ATOM     28  C   UNL     1      -4.746 -11.672  19.323  0.00  0.00    +0.003 A 
ATOM     29  C   UNL     1      -5.904 -13.214  17.931  0.00  0.00    +0.111 A 
ATOM     30  C   UNL     1      -4.706 -12.764  18.461  0.00  0.00    +0.020 A 
ENDBRANCH  19  21
ENDBRANCH   6  19
ENDBRANCH  11   6
TORSDOF 7
ENDMDL
MODEL 6
REMARK VINA RESULT:      -7.0     15.717     20.624
REMARK  Name = 28960439
REMARK  8 active torsions:
REMARK  status: ('A' for Active; 'I' for Inactive)
REMARK    1  A    between atoms: O_3  and  C_10
REMARK    2  A    between atoms: O_4  and  C_22
REMARK    3  A    between atoms: O_4  and  C_31
REMARK    4  A    between atoms: N_5  and  C_9
REMARK    5  A    between atoms: N_6  and  C_11
REMARK    6  A    between atoms: N_6  and  C_19
REMARK    7  A    between atoms: N_7  and  C_20
REMARK    8  A    between atoms: C_19  and  C_21
REMARK                            x       y       z     vdW  Elec       q    Type
REMARK                         _______ _______ _______ _____ _____    ______ ____
ROOT
ATOM      1  O   UNL     1      10.523   9.070   5.518  0.00  0.00    -0.343 OA
ATOM      2  O   UNL     1      11.405   8.303   7.521  0.00  0.00    -0.347 OA
ATOM      9  C   UNL     1      10.736   6.687   5.850  0.00  0.00    +0.143 C 
ATOM     10  C   UNL     1       9.311   6.630   6.448  0.00  0.00    +0.156 C 
ATOM     11  C   UNL     1       8.550   7.976   6.387  0.00  0.00    +0.116 C 
ATOM     12  C   UNL     1       9.493   9.196   6.504  0.00  0.00    +0.166 C 
ATOM     13  C   UNL     1      11.368   8.069   6.102  0.00  0.00    +0.270 C 
ATOM     14  C   UNL     1      10.328   9.218   7.771  0.00  0.00    +0.196 C 
ENDROOT
BRANCH   9   5
ATOM      5  N   UNL     1      10.708   6.405   4.415  0.00  0.00    -0.290 NA
ATOM      7  N   UNL     1      11.403   5.020   2.015  0.00  0.00    -0.325 N 
ATOM     15  C   UNL     1      10.202   5.050   4.166  0.00  0.00    +0.104 C 
ATOM     16  C   UNL     1      12.050   6.552   3.835  0.00  0.00    +0.104 C 
ATOM     17  C   UNL     1      10.114   4.763   2.665  0.00  0.00    +0.120 C 
ATOM     18  C   UNL     1      12.022   6.315   2.323  0.00  0.00    +0.120 C 
BRANCH   7  20
ATOM     20  C   UNL     1      11.685   4.434   0.777  0.00  0.00    +0.072 A 
ATOM     22  C   UNL     1      12.756   3.552   0.636  0.00  0.00    +0.141 A 
ATOM     23  C   UNL     1      10.884   4.740  -0.324  0.00  0.00    +0.027 A 
ATOM     25  C   UNL     1      13.027   2.975  -0.605  0.00  0.00    +0.047 A 
ATOM     26  C   UNL     1      11.154   4.162  -1.565  0.00  0.00    +0.002 A 
ATOM     27  C   UNL     1      12.226   3.280  -1.705  0.00  0.00    +0.004 A 
BRANCH  22   4
ATOM      4  O   UNL     1      13.551   3.240   1.699  0.00  0.00    -0.493 OA
ATOM     31  C   UNL     1      14.919   3.630   1.620  0.00  0.00    +0.277 C 
ENDBRANCH  22   4
ENDBRANCH   7  20
ENDBRANCH   9   5
BRANCH  10   3
ATOM      3  O   UNL     1       9.434   6.235   7.823  0.00  0.00    -0.388 OA
ATOM     33  H   UNL     1       9.876   5.369   7.841  0.00  0.00    +0.210 HD
ENDBRANCH  10   3
BRANCH  11   6
ATOM      6  N   UNL     1       7.807   8.092   5.128  0.00  0.00    -0.303 NA
ATOM     32  H   UNL     1       6.990   7.482   5.155  0.00  0.00    +0.123 HD
BRANCH   6  19
ATOM     19  C   UNL     1       7.400   9.468   4.900  0.00  0.00    +0.137 C 
BRANCH  19  21
ATOM      8  N   UNL     1       5.419  10.064   3.619  0.00  0.00    -0.259 NA
ATOM     21  C   UNL     1       6.700   9.633   3.577  0.00  0.00    +0.055 A 
ATOM     24  C   UNL     1       7.384   9.346   2.408  0.00  0.00    +0.024 A 
ATOM     28  C   UNL     1       6.711   9.511   1.202  0.00  0.00    +0.003 A 
ATOM     29  C   UNL     1       4.797  10.212   2.428  0.00  0.00    +0.111 A 
ATOM     30  C   UNL     1       5.392   9.952   1.205  0.00  0.00    +0.020 A 
ENDBRANCH  19  21
ENDBRANCH   6  19
ENDBRANCH  11   6
TORSDOF 7
ENDMDL
MODEL 7
REMARK VINA RESULT:      -7.0     15.394     19.951
REMARK  Name = 28960439
REMARK  8 active torsions:
REMARK  status: ('A' for Active; 'I' for Inactive)
REMARK    1  A    between atoms: O_3  and  C_10
REMARK    2  A    between atoms: O_4  and  C_22
REMARK    3  A    between atoms: O_4  and  C_31
REMARK    4  A    between atoms: N_5  and  C_9
REMARK    5  A    between atoms: N_6  and  C_11
REMARK    6  A    between atoms: N_6  and  C_19
REMARK    7  A    between atoms: N_7  and  C_20
REMARK    8  A    between atoms: C_19  and  C_21
REMARK                            x       y       z     vdW  Elec       q    Type
REMARK                         _______ _______ _______ _____ _____    ______ ____
ROOT
ATOM      1  O   UNL     1      11.237   6.147   6.609  0.00  0.00    -0.343 OA
ATOM      2  O   UNL     1       9.074   5.632   7.270  0.00  0.00    -0.347 OA
ATOM      9  C   UNL     1       9.512   6.019   4.924  0.00  0.00    +0.143 C 
ATOM     10  C   UNL     1       9.213   7.526   5.095  0.00  0.00    +0.156 C 
ATOM     11  C   UNL     1      10.180   8.251   6.062  0.00  0.00    +0.116 C 
ATOM     12  C   UNL     1      10.686   7.330   7.196  0.00  0.00    +0.166 C 
ATOM     13  C   UNL     1      10.054   5.426   6.238  0.00  0.00    +0.270 C 
ATOM     14  C   UNL     1       9.583   6.727   8.047  0.00  0.00    +0.196 C 
ENDROOT
BRANCH   9   5
ATOM      5  N   UNL     1      10.475   5.800   3.844  0.00  0.00    -0.290 NA
ATOM      7  N   UNL     1      11.361   4.894   1.284  0.00  0.00    -0.325 N 
ATOM     15  C   UNL     1      10.041   6.487   2.621  0.00  0.00    +0.104 C 
ATOM     16  C   UNL     1      10.637   4.365   3.579  0.00  0.00    +0.104 C 
ATOM     17  C   UNL     1      11.069   6.314   1.499  0.00  0.00    +0.120 C 
ATOM     18  C   UNL     1      11.684   4.123   2.490  0.00  0.00    +0.120 C 
BRANCH   7  20
ATOM     20  C   UNL     1      11.913   4.476   0.068  0.00  0.00    +0.072 A 
ATOM     22  C   UNL     1      11.105   4.300  -1.055  0.00  0.00    +0.141 A 
ATOM     23  C   UNL     1      13.284   4.233  -0.014  0.00  0.00    +0.027 A 
ATOM     25  C   UNL     1      11.668   3.882  -2.261  0.00  0.00    +0.047 A 
ATOM     26  C   UNL     1      13.848   3.815  -1.221  0.00  0.00    +0.002 A 
ATOM     27  C   UNL     1      13.039   3.640  -2.344  0.00  0.00    +0.004 A 
BRANCH  22   4
ATOM      4  O   UNL     1       9.763   4.532  -0.996  0.00  0.00    -0.493 OA
ATOM     31  C   UNL     1       9.206   5.372  -2.003  0.00  0.00    +0.277 C 
ENDBRANCH  22   4
ENDBRANCH   7  20
ENDBRANCH   9   5
BRANCH  10   3
ATOM      3  O   UNL     1       7.878   7.646   5.608  0.00  0.00    -0.388 OA
ATOM     33  H   UNL     1       7.349   8.117   4.941  0.00  0.00    +0.210 HD
ENDBRANCH  10   3
BRANCH  11   6
ATOM      6  N   UNL     1      11.346   8.765   5.335  0.00  0.00    -0.303 NA
ATOM     32  H   UNL     1      11.039   9.404   4.603  0.00  0.00    +0.123 HD
BRANCH   6  19
ATOM     19  C   UNL     1      12.257   9.440   6.244  0.00  0.00    +0.137 C 
BRANCH  19  21
ATOM      8  N   UNL     1      13.905   7.905   5.323  0.00  0.00    -0.259 NA
ATOM     21  C   UNL     1      13.691   9.068   5.978  0.00  0.00    +0.055 A 
ATOM     24  C   UNL     1      14.701   9.915   6.405  0.00  0.00    +0.024 A 
ATOM     28  C   UNL     1      16.015   9.544   6.143  0.00  0.00    +0.003 A 
ATOM     29  C   UNL     1      15.194   7.578   5.087  0.00  0.00    +0.111 A 
ATOM     30  C   UNL     1      16.275   8.354   5.471  0.00  0.00    +0.020 A 
ENDBRANCH  19  21
ENDBRANCH   6  19
ENDBRANCH  11   6
TORSDOF 7
ENDMDL
MODEL 8
REMARK VINA RESULT:      -6.9     27.265     29.048
REMARK  Name = 28960439
REMARK  8 active torsions:
REMARK  status: ('A' for Active; 'I' for Inactive)
REMARK    1  A    between atoms: O_3  and  C_10
REMARK    2  A    between atoms: O_4  and  C_22
REMARK    3  A    between atoms: O_4  and  C_31
REMARK    4  A    between atoms: N_5  and  C_9
REMARK    5  A    between atoms: N_6  and  C_11
REMARK    6  A    between atoms: N_6  and  C_19
REMARK    7  A    between atoms: N_7  and  C_20
REMARK    8  A    between atoms: C_19  and  C_21
REMARK                            x       y       z     vdW  Elec       q    Type
REMARK                         _______ _______ _______ _____ _____    ______ ____
ROOT
ATOM      1  O   UNL     1      -3.875 -13.048  13.114  0.00  0.00    -0.343 OA
ATOM      2  O   UNL     1      -2.323 -14.120  14.464  0.00  0.00    -0.347 OA
ATOM      9  C   UNL     1      -3.448 -12.156  15.317  0.00  0.00    +0.143 C 
ATOM     10  C   UNL     1      -2.335 -11.246  14.749  0.00  0.00    +0.156 C 
ATOM     11  C   UNL     1      -2.208 -11.300  13.206  0.00  0.00    +0.116 C 
ATOM     12  C   UNL     1      -2.578 -12.685  12.629  0.00  0.00    +0.166 C 
ATOM     13  C   UNL     1      -3.586 -13.432  14.465  0.00  0.00    +0.270 C 
ATOM     14  C   UNL     1      -1.749 -13.831  13.180  0.00  0.00    +0.196 C 
ENDROOT
BRANCH   9   5
ATOM      5  N   UNL     1      -4.726 -11.446  15.363  0.00  0.00    -0.290 NA
ATOM      7  N   UNL     1      -7.111 -10.443  16.575  0.00  0.00    -0.325 N 
ATOM     15  C   UNL     1      -4.663 -10.334  16.319  0.00  0.00    +0.104 C 
ATOM     16  C   UNL     1      -5.813 -12.362  15.733  0.00  0.00    +0.104 C 
ATOM     17  C   UNL     1      -5.976  -9.547  16.335  0.00  0.00    +0.120 C 
ATOM     18  C   UNL     1      -7.163 -11.642  15.728  0.00  0.00    +0.120 C 
BRANCH   7  20
ATOM     20  C   UNL     1      -8.318  -9.922  17.052  0.00  0.00    +0.072 A 
ATOM     22  C   UNL     1      -8.909 -10.440  18.205  0.00  0.00    +0.141 A 
ATOM     23  C   UNL     1      -8.932  -8.876  16.363  0.00  0.00    +0.027 A 
ATOM     25  C   UNL     1     -10.113  -9.912  18.669  0.00  0.00    +0.047 A 
ATOM     26  C   UNL     1     -10.137  -8.347  16.828  0.00  0.00    +0.002 A 
ATOM     27  C   UNL     1     -10.727  -8.865  17.981  0.00  0.00    +0.004 A 
BRANCH  22   4
ATOM      4  O   UNL     1      -8.325 -11.462  18.892  0.00  0.00    -0.493 OA
ATOM     31  C   UNL     1      -9.176 -12.258  19.714  0.00  0.00    +0.277 C 
ENDBRANCH  22   4
ENDBRANCH   7  20
ENDBRANCH   9   5
BRANCH  10   3
ATOM      3  O   UNL     1      -1.091 -11.672  15.325  0.00  0.00    -0.388 OA
ATOM     33  H   UNL     1      -0.771 -10.952  15.895  0.00  0.00    +0.210 HD
ENDBRANCH  10   3
BRANCH  11   6
ATOM      6  N   UNL     1      -3.077 -10.297  12.583  0.00  0.00    -0.303 NA
ATOM     32  H   UNL     1      -3.070  -9.443  13.140  0.00  0.00    +0.123 HD
BRANCH   6  19
ATOM     19  C   UNL     1      -2.639 -10.015  11.226  0.00  0.00    +0.137 C 
BRANCH  19  21
ATOM      8  N   UNL     1      -4.082 -10.719   9.398  0.00  0.00    -0.259 NA
ATOM     21  C   UNL     1      -3.802  -9.757  10.305  0.00  0.00    +0.055 A 
ATOM     24  C   UNL     1      -4.513  -8.575  10.427  0.00  0.00    +0.024 A 
ATOM     28  C   UNL     1      -5.582  -8.366   9.563  0.00  0.00    +0.003 A 
ATOM     29  C   UNL     1      -5.127 -10.482   8.575  0.00  0.00    +0.111 A 
ATOM     30  C   UNL     1      -5.902  -9.334   8.616  0.00  0.00    +0.020 A 
ENDBRANCH  19  21
ENDBRANCH   6  19
ENDBRANCH  11   6
TORSDOF 7
ENDMDL
MODEL 9
REMARK VINA RESULT:      -6.9      2.080      8.118
REMARK  Name = 28960439
REMARK  8 active torsions:
REMARK  status: ('A' for Active; 'I' for Inactive)
REMARK    1  A    between atoms: O_3  and  C_10
REMARK    2  A    between atoms: O_4  and  C_22
REMARK    3  A    between atoms: O_4  and  C_31
REMARK    4  A    between atoms: N_5  and  C_9
REMARK    5  A    between atoms: N_6  and  C_11
REMARK    6  A    between atoms: N_6  and  C_19
REMARK    7  A    between atoms: N_7  and  C_20
REMARK    8  A    between atoms: C_19  and  C_21
REMARK                            x       y       z     vdW  Elec       q    Type
REMARK                         _______ _______ _______ _____ _____    ______ ____
ROOT
ATOM      1  O   UNL     1      12.647   7.276  21.614  0.00  0.00    -0.343 OA
ATOM      2  O   UNL     1      11.833   7.499  19.454  0.00  0.00    -0.347 OA
ATOM      9  C   UNL     1      14.078   8.257  19.935  0.00  0.00    +0.143 C 
ATOM     10  C   UNL     1      13.549   9.666  20.288  0.00  0.00    +0.156 C 
ATOM     11  C   UNL     1      12.585   9.690  21.499  0.00  0.00    +0.116 C 
ATOM     12  C   UNL     1      11.752   8.393  21.618  0.00  0.00    +0.166 C 
ATOM     13  C   UNL     1      13.005   7.192  20.228  0.00  0.00    +0.270 C 
ATOM     14  C   UNL     1      10.913   8.077  20.393  0.00  0.00    +0.196 C 
ENDROOT
BRANCH   9   5
ATOM      5  N   UNL     1      15.297   7.958  20.687  0.00  0.00    -0.290 NA
ATOM      7  N   UNL     1      18.111   7.668  21.085  0.00  0.00    -0.325 N 
ATOM     15  C   UNL     1      16.164   9.141  20.755  0.00  0.00    +0.104 C 
ATOM     16  C   UNL     1      16.023   6.841  20.068  0.00  0.00    +0.104 C 
ATOM     17  C   UNL     1      17.416   8.857  21.588  0.00  0.00    +0.120 C 
ATOM     18  C   UNL     1      17.270   6.482  20.879  0.00  0.00    +0.120 C 
BRANCH   7  20
ATOM     20  C   UNL     1      19.462   7.472  21.391  0.00  0.00    +0.072 A 
ATOM     22  C   UNL     1      20.368   8.530  21.314  0.00  0.00    +0.141 A 
ATOM     23  C   UNL     1      19.901   6.205  21.774  0.00  0.00    +0.027 A 
ATOM     25  C   UNL     1      21.712   8.321  21.620  0.00  0.00    +0.047 A 
ATOM     26  C   UNL     1      21.246   5.995  22.082  0.00  0.00    +0.002 A 
ATOM     27  C   UNL     1      22.151   7.054  22.005  0.00  0.00    +0.004 A 
BRANCH  22   4
ATOM      4  O   UNL     1      19.960   9.776  20.941  0.00  0.00    -0.493 OA
ATOM     31  C   UNL     1      20.974  10.704  20.566  0.00  0.00    +0.277 C 
ENDBRANCH  22   4
ENDBRANCH   7  20
ENDBRANCH   9   5
BRANCH  10   3
ATOM      3  O   UNL     1      12.851  10.167  19.138  0.00  0.00    -0.388 OA
ATOM     33  H   UNL     1      12.573   9.400  18.607  0.00  0.00    +0.210 HD
ENDBRANCH  10   3
BRANCH  11   6
ATOM      6  N   UNL     1      13.332   9.871  22.748  0.00  0.00    -0.303 NA
ATOM     32  H   UNL     1      14.196   9.330  22.712  0.00  0.00    +0.123 HD
BRANCH   6  19
ATOM     19  C   UNL     1      13.626  11.276  22.968  0.00  0.00    +0.137 C 
BRANCH  19  21
ATOM      8  N   UNL     1      11.878  12.958  22.774  0.00  0.00    -0.259 NA
ATOM     21  C   UNL     1      12.448  12.010  23.551  0.00  0.00    +0.055 A 
ATOM     24  C   UNL     1      12.012  11.688  24.826  0.00  0.00    +0.024 A 
ATOM     28  C   UNL     1      10.920  12.382  25.336  0.00  0.00    +0.003 A 
ATOM     29  C   UNL     1      10.821  13.613  23.303  0.00  0.00    +0.111 A 
ATOM     30  C   UNL     1      10.308  13.365  24.565  0.00  0.00    +0.020 A 
ENDBRANCH  19  21
ENDBRANCH   6  19
ENDBRANCH  11   6
TORSDOF 7
ENDMDL
MODEL 10
REMARK VINA RESULT:      -6.8     27.470     30.564
REMARK  Name = 28960439
REMARK  8 active torsions:
REMARK  status: ('A' for Active; 'I' for Inactive)
REMARK    1  A    between atoms: O_3  and  C_10
REMARK    2  A    between atoms: O_4  and  C_22
REMARK    3  A    between atoms: O_4  and  C_31
REMARK    4  A    between atoms: N_5  and  C_9
REMARK    5  A    between atoms: N_6  and  C_11
REMARK    6  A    between atoms: N_6  and  C_19
REMARK    7  A    between atoms: N_7  and  C_20
REMARK    8  A    between atoms: C_19  and  C_21
REMARK                            x       y       z     vdW  Elec       q    Type
REMARK                         _______ _______ _______ _____ _____    ______ ____
ROOT
ATOM      1  O   UNL     1      -9.049 -10.216   8.370  0.00  0.00    -0.343 OA
ATOM      2  O   UNL     1      -7.949 -11.392   6.701  0.00  0.00    -0.347 OA
ATOM      9  C   UNL     1      -6.661 -10.524   8.555  0.00  0.00    +0.143 C 
ATOM     10  C   UNL     1      -6.417  -9.201   7.793  0.00  0.00    +0.156 C 
ATOM     11  C   UNL     1      -7.711  -8.411   7.477  0.00  0.00    +0.116 C 
ATOM     12  C   UNL     1      -8.929  -9.335   7.247  0.00  0.00    +0.166 C 
ATOM     13  C   UNL     1      -7.997 -11.156   8.119  0.00  0.00    +0.270 C 
ATOM     14  C   UNL     1      -8.743 -10.342   6.128  0.00  0.00    +0.196 C 
ENDROOT
BRANCH   9   5
ATOM      5  N   UNL     1      -6.665 -10.296  10.000  0.00  0.00    -0.290 NA
ATOM      7  N   UNL     1      -5.602 -10.348  12.652  0.00  0.00    -0.325 N 
ATOM     15  C   UNL     1      -5.576  -9.389  10.382  0.00  0.00    +0.104 C 
ATOM     16  C   UNL     1      -6.532 -11.568  10.723  0.00  0.00    +0.104 C 
ATOM     17  C   UNL     1      -5.604  -9.098  11.885  0.00  0.00    +0.120 C 
ATOM     18  C   UNL     1      -6.593 -11.348  12.236  0.00  0.00    +0.120 C 
BRANCH   7  20
ATOM     20  C   UNL     1      -5.197 -10.340  13.990  0.00  0.00    +0.072 A 
ATOM     22  C   UNL     1      -3.947 -10.838  14.356  0.00  0.00    +0.141 A 
ATOM     23  C   UNL     1      -6.056  -9.828  14.963  0.00  0.00    +0.027 A 
ATOM     25  C   UNL     1      -3.555 -10.826  15.695  0.00  0.00    +0.047 A 
ATOM     26  C   UNL     1      -5.664  -9.815  16.303  0.00  0.00    +0.002 A 
ATOM     27  C   UNL     1      -4.413 -10.313  16.668  0.00  0.00    +0.004 A 
BRANCH  22   4
ATOM      4  O   UNL     1      -3.093 -11.343  13.421  0.00  0.00    -0.493 OA
ATOM     31  C   UNL     1      -2.119 -10.450  12.886  0.00  0.00    +0.277 C 
ENDBRANCH  22   4
ENDBRANCH   7  20
ENDBRANCH   9   5
BRANCH  10   3
ATOM      3  O   UNL     1      -5.768  -9.528   6.555  0.00  0.00    -0.388 OA
ATOM     33  H   UNL     1      -6.448  -9.869   5.949  0.00  0.00    +0.210 HD
ENDBRANCH  10   3
BRANCH  11   6
ATOM      6  N   UNL     1      -8.034  -7.492   8.575  0.00  0.00    -0.303 NA
ATOM     32  H   UNL     1      -7.223  -7.389   9.184  0.00  0.00    +0.123 HD
BRANCH   6  19
ATOM     19  C   UNL     1      -8.440  -6.199   8.053  0.00  0.00    +0.137 C 
BRANCH  19  21
ATOM      8  N   UNL     1     -10.521  -6.622   9.242  0.00  0.00    -0.259 NA
ATOM     21  C   UNL     1      -9.688  -5.691   8.725  0.00  0.00    +0.055 A 
ATOM     24  C   UNL     1      -9.920  -4.326   8.783  0.00  0.00    +0.024 A 
ATOM     28  C   UNL     1     -11.080  -3.889   9.412  0.00  0.00    +0.003 A 
ATOM     29  C   UNL     1     -11.638  -6.160   9.845  0.00  0.00    +0.111 A 
ATOM     30  C   UNL     1     -11.961  -4.818   9.956  0.00  0.00    +0.020 A 
ENDBRANCH  19  21
ENDBRANCH   6  19
ENDBRANCH  11   6
TORSDOF 7
ENDMDL
