MODEL 1
REMARK VINA RESULT:      -7.3      0.000      0.000
REMARK  Name = 45360628
REMARK  12 active torsions:
REMARK  status: ('A' for Active; 'I' for Inactive)
REMARK    1  A    between atoms: N_5  and  C_9
REMARK    2  A    between atoms: N_5  and  C_17
REMARK    3  A    between atoms: N_6  and  C_22
REMARK    4  A    between atoms: N_7  and  C_25
REMARK    5  A    between atoms: N_7  and  C_28
REMARK    6  A    between atoms: N_7  and  C_29
REMARK    7  A    between atoms: C_10  and  C_15
REMARK    8  A    between atoms: C_15  and  C_16
REMARK    9  A    between atoms: C_16  and  C_18
REMARK   10  A    between atoms: C_17  and  C_19
REMARK   11  A    between atoms: C_22  and  C_26
REMARK   12  A    between atoms: C_22  and  C_27
REMARK                            x       y       z     vdW  Elec       q    Type
REMARK                         _______ _______ _______ _____ _____    ______ ____
ROOT
ATOM      1  O   UNL     1      11.207   6.028  20.888  0.00  0.00    -0.274 OA
ATOM      3  N   UNL     1      11.818   9.579  20.302  0.00  0.00    -0.286 NA
ATOM      4  N   UNL     1      11.186   7.769  22.351  0.00  0.00    -0.313 N 
ATOM      8  C   UNL     1      11.458   8.208  19.916  0.00  0.00    +0.145 C 
ATOM      9  C   UNL     1      13.571   8.935  18.968  0.00  0.00    +0.070 C 
ATOM     10  C   UNL     1      11.133  10.067  21.494  0.00  0.00    +0.075 C 
ATOM     11  C   UNL     1      12.600   7.755  18.993  0.00  0.00    +0.048 C 
ATOM     12  C   UNL     1      13.276   9.666  20.271  0.00  0.00    +0.104 C 
ATOM     13  C   UNL     1      11.402   9.157  22.683  0.00  0.00    +0.123 C 
ATOM     14  C   UNL     1      11.298   7.243  21.087  0.00  0.00    +0.230 C 
ATOM     30  H   UNL     1      11.059   7.118  23.120  0.00  0.00    +0.149 HD
ENDROOT
BRANCH   9   5
ATOM      5  N   UNL     1      14.961   8.527  18.835  0.00  0.00    -0.308 NA
ATOM     31  H   UNL     1      15.271   8.712  17.881  0.00  0.00    +0.123 HD
BRANCH   5  17
ATOM     17  C   UNL     1      15.118   7.106  19.117  0.00  0.00    +0.116 C 
BRANCH  17  19
ATOM     19  C   UNL     1      16.474   6.796  19.694  0.00  0.00    -0.033 A 
ATOM     20  C   UNL     1      17.291   5.845  19.083  0.00  0.00    +0.007 A 
ATOM     21  C   UNL     1      16.912   7.460  20.840  0.00  0.00    +0.007 A 
ATOM     23  C   UNL     1      18.546   5.557  19.618  0.00  0.00    +0.023 A 
ATOM     24  C   UNL     1      18.168   7.171  21.374  0.00  0.00    +0.023 A 
ATOM     25  C   UNL     1      18.985   6.220  20.764  0.00  0.00    +0.029 A 
BRANCH  25   7
ATOM      7  N   UNL     1      20.255   5.930  21.304  0.00  0.00    -0.336 N 
ATOM     28  C   UNL     1      20.595   6.354  22.648  0.00  0.00    +0.129 C 
ATOM     29  C   UNL     1      21.235   5.199  20.525  0.00  0.00    +0.129 C 
ENDBRANCH  25   7
ENDBRANCH  17  19
ENDBRANCH   5  17
ENDBRANCH   9   5
BRANCH  10  15
ATOM     15  C   UNL     1      11.478  11.519  21.823  0.00  0.00    +0.029 C 
BRANCH  15  16
ATOM     16  C   UNL     1      11.095  11.865  23.255  0.00  0.00    +0.097 C 
BRANCH  16  18
ATOM      2  O   UNL     1      10.327  13.844  24.419  0.00  0.00    -0.276 OA
ATOM      6  N   UNL     1      10.013  13.690  22.125  0.00  0.00    -0.313 N 
ATOM     18  C   UNL     1      10.445  13.233  23.360  0.00  0.00    +0.213 C 
ATOM     32  H   UNL     1      10.209  13.138  21.294  0.00  0.00    +0.149 HD
BRANCH   6  22
ATOM     22  C   UNL     1       9.361  14.968  21.961  0.00  0.00    +0.067 C 
ATOM     26  C   UNL     1       7.898  14.871  22.373  0.00  0.00    +0.027 C 
ATOM     27  C   UNL     1       9.499  15.458  20.525  0.00  0.00    +0.027 C 
ENDBRANCH   6  22
ENDBRANCH  16  18
ENDBRANCH  15  16
ENDBRANCH  10  15
TORSDOF 8
ENDMDL
MODEL 2
REMARK VINA RESULT:      -7.0      1.509      2.023
REMARK  Name = 45360628
REMARK  12 active torsions:
REMARK  status: ('A' for Active; 'I' for Inactive)
REMARK    1  A    between atoms: N_5  and  C_9
REMARK    2  A    between atoms: N_5  and  C_17
REMARK    3  A    between atoms: N_6  and  C_22
REMARK    4  A    between atoms: N_7  and  C_25
REMARK    5  A    between atoms: N_7  and  C_28
REMARK    6  A    between atoms: N_7  and  C_29
REMARK    7  A    between atoms: C_10  and  C_15
REMARK    8  A    between atoms: C_15  and  C_16
REMARK    9  A    between atoms: C_16  and  C_18
REMARK   10  A    between atoms: C_17  and  C_19
REMARK   11  A    between atoms: C_22  and  C_26
REMARK   12  A    between atoms: C_22  and  C_27
REMARK                            x       y       z     vdW  Elec       q    Type
REMARK                         _______ _______ _______ _____ _____    ______ ____
ROOT
ATOM      1  O   UNL     1      10.682   6.757  21.845  0.00  0.00    -0.274 OA
ATOM      3  N   UNL     1      11.940   9.777  20.225  0.00  0.00    -0.286 NA
ATOM      4  N   UNL     1      11.361   8.725  22.761  0.00  0.00    -0.313 N 
ATOM      8  C   UNL     1      11.207   8.505  20.286  0.00  0.00    +0.145 C 
ATOM      9  C   UNL     1      13.183   8.394  18.879  0.00  0.00    +0.070 C 
ATOM     10  C   UNL     1      11.648  10.692  21.323  0.00  0.00    +0.075 C 
ATOM     11  C   UNL     1      11.998   7.561  19.368  0.00  0.00    +0.048 C 
ATOM     12  C   UNL     1      13.340   9.455  19.960  0.00  0.00    +0.104 C 
ATOM     13  C   UNL     1      11.949  10.040  22.664  0.00  0.00    +0.123 C 
ATOM     14  C   UNL     1      11.083   7.914  21.687  0.00  0.00    +0.230 C 
ATOM     30  H   UNL     1      11.254   8.327  23.689  0.00  0.00    +0.149 HD
ENDROOT
BRANCH   9   5
ATOM      5  N   UNL     1      14.385   7.605  18.664  0.00  0.00    -0.308 NA
ATOM     31  H   UNL     1      14.251   7.012  17.844  0.00  0.00    +0.123 HD
BRANCH   5  17
ATOM     17  C   UNL     1      14.671   6.761  19.817  0.00  0.00    +0.116 C 
BRANCH  17  19
ATOM     19  C   UNL     1      16.150   6.551  20.005  0.00  0.00    -0.033 A 
ATOM     20  C   UNL     1      16.788   7.059  21.136  0.00  0.00    +0.007 A 
ATOM     21  C   UNL     1      16.882   5.850  19.046  0.00  0.00    +0.007 A 
ATOM     23  C   UNL     1      18.158   6.865  21.310  0.00  0.00    +0.023 A 
ATOM     24  C   UNL     1      18.253   5.657  19.221  0.00  0.00    +0.023 A 
ATOM     25  C   UNL     1      18.891   6.165  20.352  0.00  0.00    +0.029 A 
BRANCH  25   7
ATOM      7  N   UNL     1      20.276   5.968  20.528  0.00  0.00    -0.336 N 
ATOM     28  C   UNL     1      20.824   4.627  20.602  0.00  0.00    +0.129 C 
ATOM     29  C   UNL     1      21.172   7.103  20.631  0.00  0.00    +0.129 C 
ENDBRANCH  25   7
ENDBRANCH  17  19
ENDBRANCH   5  17
ENDBRANCH   9   5
BRANCH  10  15
ATOM     15  C   UNL     1      12.372  12.032  21.187  0.00  0.00    +0.029 C 
BRANCH  15  16
ATOM     16  C   UNL     1      13.076  12.411  22.482  0.00  0.00    +0.097 C 
BRANCH  16  18
ATOM      2  O   UNL     1      13.044  14.827  22.624  0.00  0.00    -0.276 OA
ATOM      6  N   UNL     1      11.633  13.597  23.995  0.00  0.00    -0.313 N 
ATOM     18  C   UNL     1      12.605  13.751  23.019  0.00  0.00    +0.213 C 
ATOM     32  H   UNL     1      11.290  12.665  24.214  0.00  0.00    +0.149 HD
BRANCH   6  22
ATOM     22  C   UNL     1      11.025  14.725  24.662  0.00  0.00    +0.067 C 
ATOM     26  C   UNL     1      10.835  14.424  26.143  0.00  0.00    +0.027 C 
ATOM     27  C   UNL     1       9.703  15.089  23.999  0.00  0.00    +0.027 C 
ENDBRANCH   6  22
ENDBRANCH  16  18
ENDBRANCH  15  16
ENDBRANCH  10  15
TORSDOF 8
ENDMDL
MODEL 3
REMARK VINA RESULT:      -6.8     26.283     30.257
REMARK  Name = 45360628
REMARK  12 active torsions:
REMARK  status: ('A' for Active; 'I' for Inactive)
REMARK    1  A    between atoms: N_5  and  C_9
REMARK    2  A    between atoms: N_5  and  C_17
REMARK    3  A    between atoms: N_6  and  C_22
REMARK    4  A    between atoms: N_7  and  C_25
REMARK    5  A    between atoms: N_7  and  C_28
REMARK    6  A    between atoms: N_7  and  C_29
REMARK    7  A    between atoms: C_10  and  C_15
REMARK    8  A    between atoms: C_15  and  C_16
REMARK    9  A    between atoms: C_16  and  C_18
REMARK   10  A    between atoms: C_17  and  C_19
REMARK   11  A    between atoms: C_22  and  C_26
REMARK   12  A    between atoms: C_22  and  C_27
REMARK                            x       y       z     vdW  Elec       q    Type
REMARK                         _______ _______ _______ _____ _____    ______ ____
ROOT
ATOM      1  O   UNL     1     -18.420   0.968  22.483  0.00  0.00    -0.274 OA
ATOM      3  N   UNL     1     -16.924   3.114  25.030  0.00  0.00    -0.286 NA
ATOM      4  N   UNL     1     -17.548   0.428  24.512  0.00  0.00    -0.313 N 
ATOM      8  C   UNL     1     -17.768   2.820  23.863  0.00  0.00    +0.145 C 
ATOM      9  C   UNL     1     -15.838   4.188  23.316  0.00  0.00    +0.070 C 
ATOM     10  C   UNL     1     -17.110   2.201  26.151  0.00  0.00    +0.075 C 
ATOM     11  C   UNL     1     -17.085   3.554  22.699  0.00  0.00    +0.048 C 
ATOM     12  C   UNL     1     -15.565   3.319  24.536  0.00  0.00    +0.104 C 
ATOM     13  C   UNL     1     -16.844   0.764  25.728  0.00  0.00    +0.123 C 
ATOM     14  C   UNL     1     -17.918   1.335  23.550  0.00  0.00    +0.230 C 
ATOM     30  H   UNL     1     -17.672  -0.558  24.300  0.00  0.00    +0.149 HD
ENDROOT
BRANCH   9   5
ATOM      5  N   UNL     1     -14.717   4.260  22.392  0.00  0.00    -0.308 NA
ATOM     31  H   UNL     1     -14.200   3.381  22.429  0.00  0.00    +0.123 HD
BRANCH   5  17
ATOM     17  C   UNL     1     -13.820   5.353  22.744  0.00  0.00    +0.116 C 
BRANCH  17  19
ATOM     19  C   UNL     1     -13.451   6.182  21.542  0.00  0.00    -0.033 A 
ATOM     20  C   UNL     1     -14.449   6.786  20.779  0.00  0.00    +0.007 A 
ATOM     21  C   UNL     1     -12.110   6.346  21.193  0.00  0.00    +0.007 A 
ATOM     23  C   UNL     1     -14.108   7.554  19.665  0.00  0.00    +0.023 A 
ATOM     24  C   UNL     1     -11.769   7.114  20.079  0.00  0.00    +0.023 A 
ATOM     25  C   UNL     1     -12.768   7.718  19.315  0.00  0.00    +0.029 A 
BRANCH  25   7
ATOM      7  N   UNL     1     -12.422   8.495  18.190  0.00  0.00    -0.336 N 
ATOM     28  C   UNL     1     -13.297   9.558  17.736  0.00  0.00    +0.129 C 
ATOM     29  C   UNL     1     -11.185   8.245  17.477  0.00  0.00    +0.129 C 
ENDBRANCH  25   7
ENDBRANCH  17  19
ENDBRANCH   5  17
ENDBRANCH   9   5
BRANCH  10  15
ATOM     15  C   UNL     1     -16.270   2.579  27.371  0.00  0.00    +0.029 C 
BRANCH  15  16
ATOM     16  C   UNL     1     -16.814   1.933  28.637  0.00  0.00    +0.097 C 
BRANCH  16  18
ATOM      2  O   UNL     1     -15.329   0.157  29.343  0.00  0.00    -0.276 OA
ATOM      6  N   UNL     1     -15.218   2.214  30.412  0.00  0.00    -0.313 N 
ATOM     18  C   UNL     1     -15.715   1.314  29.482  0.00  0.00    +0.213 C 
ATOM     32  H   UNL     1     -15.561   3.170  30.412  0.00  0.00    +0.149 HD
BRANCH   6  22
ATOM     22  C   UNL     1     -14.165   1.863  31.336  0.00  0.00    +0.067 C 
ATOM     26  C   UNL     1     -14.754   1.273  32.611  0.00  0.00    +0.027 C 
ATOM     27  C   UNL     1     -13.295   3.076  31.641  0.00  0.00    +0.027 C 
ENDBRANCH   6  22
ENDBRANCH  16  18
ENDBRANCH  15  16
ENDBRANCH  10  15
TORSDOF 8
ENDMDL
MODEL 4
REMARK VINA RESULT:      -6.6      2.137      2.846
REMARK  Name = 45360628
REMARK  12 active torsions:
REMARK  status: ('A' for Active; 'I' for Inactive)
REMARK    1  A    between atoms: N_5  and  C_9
REMARK    2  A    between atoms: N_5  and  C_17
REMARK    3  A    between atoms: N_6  and  C_22
REMARK    4  A    between atoms: N_7  and  C_25
REMARK    5  A    between atoms: N_7  and  C_28
REMARK    6  A    between atoms: N_7  and  C_29
REMARK    7  A    between atoms: C_10  and  C_15
REMARK    8  A    between atoms: C_15  and  C_16
REMARK    9  A    between atoms: C_16  and  C_18
REMARK   10  A    between atoms: C_17  and  C_19
REMARK   11  A    between atoms: C_22  and  C_26
REMARK   12  A    between atoms: C_22  and  C_27
REMARK                            x       y       z     vdW  Elec       q    Type
REMARK                         _______ _______ _______ _____ _____    ______ ____
ROOT
ATOM      1  O   UNL     1      10.918   6.252  21.214  0.00  0.00    -0.274 OA
ATOM      3  N   UNL     1      11.718   9.714  20.377  0.00  0.00    -0.286 NA
ATOM      4  N   UNL     1      11.134   8.064  22.571  0.00  0.00    -0.313 N 
ATOM      8  C   UNL     1      11.235   8.354  20.101  0.00  0.00    +0.145 C 
ATOM      9  C   UNL     1      13.308   8.877  18.951  0.00  0.00    +0.070 C 
ATOM     10  C   UNL     1      11.167  10.312  21.588  0.00  0.00    +0.075 C 
ATOM     11  C   UNL     1      12.264   7.773  19.119  0.00  0.00    +0.048 C 
ATOM     12  C   UNL     1      13.171   9.694  20.228  0.00  0.00    +0.104 C 
ATOM     13  C   UNL     1      11.470   9.449  22.804  0.00  0.00    +0.123 C 
ATOM     14  C   UNL     1      11.106   7.466  21.334  0.00  0.00    +0.230 C 
ATOM     30  H   UNL     1      11.026   7.465  23.384  0.00  0.00    +0.149 HD
ENDROOT
BRANCH   9   5
ATOM      5  N   UNL     1      14.652   8.363  18.733  0.00  0.00    -0.308 NA
ATOM     31  H   UNL     1      14.848   8.360  17.732  0.00  0.00    +0.123 HD
BRANCH   5  17
ATOM     17  C   UNL     1      14.781   7.005  19.246  0.00  0.00    +0.116 C 
BRANCH  17  19
ATOM     19  C   UNL     1      16.188   6.708  19.695  0.00  0.00    -0.033 A 
ATOM     20  C   UNL     1      16.695   7.313  20.845  0.00  0.00    +0.007 A 
ATOM     21  C   UNL     1      16.983   5.828  18.961  0.00  0.00    +0.007 A 
ATOM     23  C   UNL     1      17.997   7.038  21.261  0.00  0.00    +0.023 A 
ATOM     24  C   UNL     1      18.286   5.554  19.378  0.00  0.00    +0.023 A 
ATOM     25  C   UNL     1      18.793   6.160  20.527  0.00  0.00    +0.029 A 
BRANCH  25   7
ATOM      7  N   UNL     1      20.110   5.881  20.948  0.00  0.00    -0.336 N 
ATOM     28  C   UNL     1      20.786   6.766  21.876  0.00  0.00    +0.129 C 
ATOM     29  C   UNL     1      20.802   4.703  20.464  0.00  0.00    +0.129 C 
ENDBRANCH  25   7
ENDBRANCH  17  19
ENDBRANCH   5  17
ENDBRANCH   9   5
BRANCH  10  15
ATOM     15  C   UNL     1      11.635  11.751  21.805  0.00  0.00    +0.029 C 
BRANCH  15  16
ATOM     16  C   UNL     1      12.296  11.917  23.166  0.00  0.00    +0.097 C 
BRANCH  16  18
ATOM      2  O   UNL     1      14.576  11.227  23.599  0.00  0.00    -0.276 OA
ATOM      6  N   UNL     1      14.193  13.106  22.290  0.00  0.00    -0.313 N 
ATOM     18  C   UNL     1      13.807  12.019  23.061  0.00  0.00    +0.213 C 
ATOM     32  H   UNL     1      13.481  13.671  21.837  0.00  0.00    +0.149 HD
BRANCH   6  22
ATOM     22  C   UNL     1      15.580  13.419  22.041  0.00  0.00    +0.067 C 
ATOM     26  C   UNL     1      16.116  14.348  23.123  0.00  0.00    +0.027 C 
ATOM     27  C   UNL     1      15.749  14.030  20.656  0.00  0.00    +0.027 C 
ENDBRANCH   6  22
ENDBRANCH  16  18
ENDBRANCH  15  16
ENDBRANCH  10  15
TORSDOF 8
ENDMDL
MODEL 5
REMARK VINA RESULT:      -6.5     26.410     30.071
REMARK  Name = 45360628
REMARK  12 active torsions:
REMARK  status: ('A' for Active; 'I' for Inactive)
REMARK    1  A    between atoms: N_5  and  C_9
REMARK    2  A    between atoms: N_5  and  C_17
REMARK    3  A    between atoms: N_6  and  C_22
REMARK    4  A    between atoms: N_7  and  C_25
REMARK    5  A    between atoms: N_7  and  C_28
REMARK    6  A    between atoms: N_7  and  C_29
REMARK    7  A    between atoms: C_10  and  C_15
REMARK    8  A    between atoms: C_15  and  C_16
REMARK    9  A    between atoms: C_16  and  C_18
REMARK   10  A    between atoms: C_17  and  C_19
REMARK   11  A    between atoms: C_22  and  C_26
REMARK   12  A    between atoms: C_22  and  C_27
REMARK                            x       y       z     vdW  Elec       q    Type
REMARK                         _______ _______ _______ _____ _____    ______ ____
ROOT
ATOM      1  O   UNL     1      -7.238 -14.484  17.022  0.00  0.00    -0.274 OA
ATOM      3  N   UNL     1      -4.974 -11.715  17.751  0.00  0.00    -0.286 NA
ATOM      4  N   UNL     1      -6.030 -13.181  15.604  0.00  0.00    -0.313 N 
ATOM      8  C   UNL     1      -5.725 -12.939  18.062  0.00  0.00    +0.145 C 
ATOM      9  C   UNL     1      -6.535 -10.997  19.274  0.00  0.00    +0.070 C 
ATOM     10  C   UNL     1      -4.234 -11.767  16.496  0.00  0.00    +0.075 C 
ATOM     11  C   UNL     1      -6.762 -12.499  19.107  0.00  0.00    +0.048 C 
ATOM     12  C   UNL     1      -5.882 -10.589  17.960  0.00  0.00    +0.104 C 
ATOM     13  C   UNL     1      -5.167 -12.056  15.329  0.00  0.00    +0.123 C 
ATOM     14  C   UNL     1      -6.411 -13.582  16.861  0.00  0.00    +0.230 C 
ATOM     30  H   UNL     1      -6.478 -13.631  14.812  0.00  0.00    +0.149 HD
ENDROOT
BRANCH   9   5
ATOM      5  N   UNL     1      -7.756 -10.263  19.566  0.00  0.00    -0.308 NA
ATOM     31  H   UNL     1      -7.914 -10.270  20.574  0.00  0.00    +0.123 HD
BRANCH   5  17
ATOM     17  C   UNL     1      -8.902 -10.872  18.903  0.00  0.00    +0.116 C 
BRANCH  17  19
ATOM     19  C   UNL     1      -9.722  -9.855  18.155  0.00  0.00    -0.033 A 
ATOM     20  C   UNL     1      -9.093  -8.790  17.510  0.00  0.00    +0.007 A 
ATOM     21  C   UNL     1     -11.111  -9.976  18.108  0.00  0.00    +0.007 A 
ATOM     23  C   UNL     1      -9.853  -7.847  16.817  0.00  0.00    +0.023 A 
ATOM     24  C   UNL     1     -11.870  -9.032  17.416  0.00  0.00    +0.023 A 
ATOM     25  C   UNL     1     -11.241  -7.968  16.771  0.00  0.00    +0.029 A 
BRANCH  25   7
ATOM      7  N   UNL     1     -12.009  -7.015  16.070  0.00  0.00    -0.336 N 
ATOM     28  C   UNL     1     -11.366  -5.896  15.410  0.00  0.00    +0.129 C 
ATOM     29  C   UNL     1     -13.451  -7.145  15.996  0.00  0.00    +0.129 C 
ENDBRANCH  25   7
ENDBRANCH  17  19
ENDBRANCH   5  17
ENDBRANCH   9   5
BRANCH  10  15
ATOM     15  C   UNL     1      -3.409 -10.506  16.240  0.00  0.00    +0.029 C 
BRANCH  15  16
ATOM     16  C   UNL     1      -1.960 -10.850  15.926  0.00  0.00    +0.097 C 
BRANCH  16  18
ATOM      2  O   UNL     1      -1.346 -12.435  14.202  0.00  0.00    -0.276 OA
ATOM      6  N   UNL     1      -2.167 -10.354  13.583  0.00  0.00    -0.313 N 
ATOM     18  C   UNL     1      -1.781 -11.324  14.495  0.00  0.00    +0.213 C 
ATOM     32  H   UNL     1      -2.571  -9.485  13.922  0.00  0.00    +0.149 HD
BRANCH   6  22
ATOM     22  C   UNL     1      -2.091 -10.564  12.156  0.00  0.00    +0.067 C 
ATOM     26  C   UNL     1      -1.209  -9.503  11.512  0.00  0.00    +0.027 C 
ATOM     27  C   UNL     1      -3.485 -10.572  11.542  0.00  0.00    +0.027 C 
ENDBRANCH   6  22
ENDBRANCH  16  18
ENDBRANCH  15  16
ENDBRANCH  10  15
TORSDOF 8
ENDMDL
MODEL 6
REMARK VINA RESULT:      -6.4      3.373      4.804
REMARK  Name = 45360628
REMARK  12 active torsions:
REMARK  status: ('A' for Active; 'I' for Inactive)
REMARK    1  A    between atoms: N_5  and  C_9
REMARK    2  A    between atoms: N_5  and  C_17
REMARK    3  A    between atoms: N_6  and  C_22
REMARK    4  A    between atoms: N_7  and  C_25
REMARK    5  A    between atoms: N_7  and  C_28
REMARK    6  A    between atoms: N_7  and  C_29
REMARK    7  A    between atoms: C_10  and  C_15
REMARK    8  A    between atoms: C_15  and  C_16
REMARK    9  A    between atoms: C_16  and  C_18
REMARK   10  A    between atoms: C_17  and  C_19
REMARK   11  A    between atoms: C_22  and  C_26
REMARK   12  A    between atoms: C_22  and  C_27
REMARK                            x       y       z     vdW  Elec       q    Type
REMARK                         _______ _______ _______ _____ _____    ______ ____
ROOT
ATOM      1  O   UNL     1      15.187   7.444  21.820  0.00  0.00    -0.274 OA
ATOM      3  N   UNL     1      11.771   8.733  21.772  0.00  0.00    -0.286 NA
ATOM      4  N   UNL     1      14.390   9.478  22.451  0.00  0.00    -0.313 N 
ATOM      8  C   UNL     1      12.798   7.683  21.789  0.00  0.00    +0.145 C 
ATOM      9  C   UNL     1      11.562   7.765  19.702  0.00  0.00    +0.070 C 
ATOM     10  C   UNL     1      11.976   9.789  22.757  0.00  0.00    +0.075 C 
ATOM     11  C   UNL     1      12.665   6.991  20.424  0.00  0.00    +0.048 C 
ATOM     12  C   UNL     1      11.584   9.129  20.378  0.00  0.00    +0.104 C 
ATOM     13  C   UNL     1      13.331  10.454  22.565  0.00  0.00    +0.123 C 
ATOM     14  C   UNL     1      14.221   8.193  21.996  0.00  0.00    +0.230 C 
ATOM     30  H   UNL     1      15.341   9.800  22.605  0.00  0.00    +0.149 HD
ENDROOT
BRANCH   9   5
ATOM      5  N   UNL     1      11.759   7.829  18.262  0.00  0.00    -0.308 NA
ATOM     31  H   UNL     1      11.212   7.091  17.818  0.00  0.00    +0.123 HD
BRANCH   5  17
ATOM     17  C   UNL     1      13.164   7.650  17.918  0.00  0.00    +0.116 C 
BRANCH  17  19
ATOM     19  C   UNL     1      13.777   8.919  17.389  0.00  0.00    -0.033 A 
ATOM     20  C   UNL     1      14.438   9.789  18.256  0.00  0.00    +0.007 A 
ATOM     21  C   UNL     1      13.684   9.225  16.031  0.00  0.00    +0.007 A 
ATOM     23  C   UNL     1      15.006  10.964  17.766  0.00  0.00    +0.023 A 
ATOM     24  C   UNL     1      14.252  10.401  15.541  0.00  0.00    +0.023 A 
ATOM     25  C   UNL     1      14.912  11.271  16.409  0.00  0.00    +0.029 A 
BRANCH  25   7
ATOM      7  N   UNL     1      15.487  12.460  15.913  0.00  0.00    -0.336 N 
ATOM     28  C   UNL     1      14.927  13.115  14.747  0.00  0.00    +0.129 C 
ATOM     29  C   UNL     1      16.641  13.045  16.566  0.00  0.00    +0.129 C 
ENDBRANCH  25   7
ENDBRANCH  17  19
ENDBRANCH   5  17
ENDBRANCH   9   5
BRANCH  10  15
ATOM     15  C   UNL     1      10.851  10.825  22.758  0.00  0.00    +0.029 C 
BRANCH  15  16
ATOM     16  C   UNL     1      10.765  11.543  24.098  0.00  0.00    +0.097 C 
BRANCH  16  18
ATOM      2  O   UNL     1      10.424  13.809  24.877  0.00  0.00    -0.276 OA
ATOM      6  N   UNL     1      10.205  13.349  22.613  0.00  0.00    -0.313 N 
ATOM     18  C   UNL     1      10.452  13.020  23.937  0.00  0.00    +0.213 C 
ATOM     32  H   UNL     1      10.310  12.636  21.896  0.00  0.00    +0.149 HD
BRANCH   6  22
ATOM     22  C   UNL     1       9.882  14.694  22.200  0.00  0.00    +0.067 C 
ATOM     26  C   UNL     1       8.387  14.946  22.342  0.00  0.00    +0.027 C 
ATOM     27  C   UNL     1      10.352  14.943  20.773  0.00  0.00    +0.027 C 
ENDBRANCH   6  22
ENDBRANCH  16  18
ENDBRANCH  15  16
ENDBRANCH  10  15
TORSDOF 8
ENDMDL
MODEL 7
REMARK VINA RESULT:      -6.4      4.002      5.602
REMARK  Name = 45360628
REMARK  12 active torsions:
REMARK  status: ('A' for Active; 'I' for Inactive)
REMARK    1  A    between atoms: N_5  and  C_9
REMARK    2  A    between atoms: N_5  and  C_17
REMARK    3  A    between atoms: N_6  and  C_22
REMARK    4  A    between atoms: N_7  and  C_25
REMARK    5  A    between atoms: N_7  and  C_28
REMARK    6  A    between atoms: N_7  and  C_29
REMARK    7  A    between atoms: C_10  and  C_15
REMARK    8  A    between atoms: C_15  and  C_16
REMARK    9  A    between atoms: C_16  and  C_18
REMARK   10  A    between atoms: C_17  and  C_19
REMARK   11  A    between atoms: C_22  and  C_26
REMARK   12  A    between atoms: C_22  and  C_27
REMARK                            x       y       z     vdW  Elec       q    Type
REMARK                         _______ _______ _______ _____ _____    ______ ____
ROOT
ATOM      1  O   UNL     1      15.433   6.415  19.133  0.00  0.00    -0.274 OA
ATOM      3  N   UNL     1      12.036   7.734  19.364  0.00  0.00    -0.286 NA
ATOM      4  N   UNL     1      14.197   6.939  20.968  0.00  0.00    -0.313 N 
ATOM      8  C   UNL     1      13.153   7.038  18.711  0.00  0.00    +0.145 C 
ATOM      9  C   UNL     1      12.595   9.146  17.643  0.00  0.00    +0.070 C 
ATOM     10  C   UNL     1      11.783   7.307  20.736  0.00  0.00    +0.075 C 
ATOM     11  C   UNL     1      13.534   7.944  17.530  0.00  0.00    +0.048 C 
ATOM     12  C   UNL     1      12.216   9.163  19.118  0.00  0.00    +0.104 C 
ATOM     13  C   UNL     1      13.022   7.494  21.598  0.00  0.00    +0.123 C 
ATOM     14  C   UNL     1      14.360   6.794  19.612  0.00  0.00    +0.230 C 
ATOM     30  H   UNL     1      15.002   6.753  21.560  0.00  0.00    +0.149 HD
ENDROOT
BRANCH   9   5
ATOM      5  N   UNL     1      13.200  10.387  17.187  0.00  0.00    -0.308 NA
ATOM     31  H   UNL     1      12.471  11.094  17.085  0.00  0.00    +0.123 HD
BRANCH   5  17
ATOM     17  C   UNL     1      13.864  10.204  15.902  0.00  0.00    +0.116 C 
BRANCH  17  19
ATOM     19  C   UNL     1      15.118  11.031  15.797  0.00  0.00    -0.033 A 
ATOM     20  C   UNL     1      15.499  11.858  16.853  0.00  0.00    +0.007 A 
ATOM     21  C   UNL     1      15.897  10.971  14.641  0.00  0.00    +0.007 A 
ATOM     23  C   UNL     1      16.660  12.624  16.755  0.00  0.00    +0.023 A 
ATOM     24  C   UNL     1      17.058  11.739  14.544  0.00  0.00    +0.023 A 
ATOM     25  C   UNL     1      17.439  12.565  15.601  0.00  0.00    +0.029 A 
BRANCH  25   7
ATOM      7  N   UNL     1      18.614  13.340  15.502  0.00  0.00    -0.336 N 
ATOM     28  C   UNL     1      19.343  13.722  16.695  0.00  0.00    +0.129 C 
ATOM     29  C   UNL     1      19.110  13.758  14.206  0.00  0.00    +0.129 C 
ENDBRANCH  25   7
ENDBRANCH  17  19
ENDBRANCH   5  17
ENDBRANCH   9   5
BRANCH  10  15
ATOM     15  C   UNL     1      10.570   8.000  21.358  0.00  0.00    +0.029 C 
BRANCH  15  16
ATOM     16  C   UNL     1      10.878   8.489  22.766  0.00  0.00    +0.097 C 
BRANCH  16  18
ATOM      2  O   UNL     1      10.946  10.726  21.845  0.00  0.00    -0.276 OA
ATOM      6  N   UNL     1      11.496  10.407  24.077  0.00  0.00    -0.313 N 
ATOM     18  C   UNL     1      11.101   9.990  22.815  0.00  0.00    +0.213 C 
ATOM     32  H   UNL     1      11.540   9.730  24.833  0.00  0.00    +0.149 HD
BRANCH   6  22
ATOM     22  C   UNL     1      11.771  11.792  24.379  0.00  0.00    +0.067 C 
ATOM     26  C   UNL     1      13.214  11.956  24.840  0.00  0.00    +0.027 C 
ATOM     27  C   UNL     1      10.795  12.316  25.425  0.00  0.00    +0.027 C 
ENDBRANCH   6  22
ENDBRANCH  16  18
ENDBRANCH  15  16
ENDBRANCH  10  15
TORSDOF 8
ENDMDL
MODEL 8
REMARK VINA RESULT:      -6.3      3.135      8.980
REMARK  Name = 45360628
REMARK  12 active torsions:
REMARK  status: ('A' for Active; 'I' for Inactive)
REMARK    1  A    between atoms: N_5  and  C_9
REMARK    2  A    between atoms: N_5  and  C_17
REMARK    3  A    between atoms: N_6  and  C_22
REMARK    4  A    between atoms: N_7  and  C_25
REMARK    5  A    between atoms: N_7  and  C_28
REMARK    6  A    between atoms: N_7  and  C_29
REMARK    7  A    between atoms: C_10  and  C_15
REMARK    8  A    between atoms: C_15  and  C_16
REMARK    9  A    between atoms: C_16  and  C_18
REMARK   10  A    between atoms: C_17  and  C_19
REMARK   11  A    between atoms: C_22  and  C_26
REMARK   12  A    between atoms: C_22  and  C_27
REMARK                            x       y       z     vdW  Elec       q    Type
REMARK                         _______ _______ _______ _____ _____    ______ ____
ROOT
ATOM      1  O   UNL     1      11.988   6.747  19.914  0.00  0.00    -0.274 OA
ATOM      3  N   UNL     1      15.108   7.843  21.462  0.00  0.00    -0.286 NA
ATOM      4  N   UNL     1      14.131   6.521  19.188  0.00  0.00    -0.313 N 
ATOM      8  C   UNL     1      13.690   7.459  21.450  0.00  0.00    +0.145 C 
ATOM      9  C   UNL     1      14.033   9.809  21.958  0.00  0.00    +0.070 C 
ATOM     10  C   UNL     1      15.984   6.924  20.744  0.00  0.00    +0.075 C 
ATOM     11  C   UNL     1      12.939   8.751  21.811  0.00  0.00    +0.048 C 
ATOM     12  C   UNL     1      15.174   9.260  21.113  0.00  0.00    +0.104 C 
ATOM     13  C   UNL     1      15.548   6.782  19.294  0.00  0.00    +0.123 C 
ATOM     14  C   UNL     1      13.196   6.904  20.118  0.00  0.00    +0.230 C 
ATOM     30  H   UNL     1      13.791   6.133  18.313  0.00  0.00    +0.149 HD
ENDROOT
BRANCH   9   5
ATOM      5  N   UNL     1      13.599  11.137  21.553  0.00  0.00    -0.308 NA
ATOM     31  H   UNL     1      13.237  11.631  22.369  0.00  0.00    +0.123 HD
BRANCH   5  17
ATOM     17  C   UNL     1      12.553  11.060  20.542  0.00  0.00    +0.116 C 
BRANCH  17  19
ATOM     19  C   UNL     1      13.107  11.209  19.150  0.00  0.00    -0.033 A 
ATOM     20  C   UNL     1      13.633  12.433  18.736  0.00  0.00    +0.007 A 
ATOM     21  C   UNL     1      13.093  10.124  18.274  0.00  0.00    +0.007 A 
ATOM     23  C   UNL     1      14.146  12.571  17.447  0.00  0.00    +0.023 A 
ATOM     24  C   UNL     1      13.606  10.263  16.985  0.00  0.00    +0.023 A 
ATOM     25  C   UNL     1      14.132  11.486  16.571  0.00  0.00    +0.029 A 
BRANCH  25   7
ATOM      7  N   UNL     1      14.652  11.626  15.267  0.00  0.00    -0.336 N 
ATOM     28  C   UNL     1      13.858  12.242  14.223  0.00  0.00    +0.129 C 
ATOM     29  C   UNL     1      15.989  11.159  14.956  0.00  0.00    +0.129 C 
ENDBRANCH  25   7
ENDBRANCH  17  19
ENDBRANCH   5  17
ENDBRANCH   9   5
BRANCH  10  15
ATOM     15  C   UNL     1      17.459   7.315  20.838  0.00  0.00    +0.029 C 
BRANCH  15  16
ATOM     16  C   UNL     1      18.354   6.237  20.243  0.00  0.00    +0.097 C 
BRANCH  16  18
ATOM      2  O   UNL     1      19.708   6.406  22.243  0.00  0.00    -0.276 OA
ATOM      6  N   UNL     1      20.506   5.183  20.439  0.00  0.00    -0.313 N 
ATOM     18  C   UNL     1      19.577   5.970  21.103  0.00  0.00    +0.213 C 
ATOM     32  H   UNL     1      20.282   4.821  19.516  0.00  0.00    +0.149 HD
BRANCH   6  22
ATOM     22  C   UNL     1      21.757   4.791  21.045  0.00  0.00    +0.067 C 
ATOM     26  C   UNL     1      22.929   5.316  20.226  0.00  0.00    +0.027 C 
ATOM     27  C   UNL     1      21.824   3.277  21.198  0.00  0.00    +0.027 C 
ENDBRANCH   6  22
ENDBRANCH  16  18
ENDBRANCH  15  16
ENDBRANCH  10  15
TORSDOF 8
ENDMDL
MODEL 9
REMARK VINA RESULT:      -6.2      3.491      7.837
REMARK  Name = 45360628
REMARK  12 active torsions:
REMARK  status: ('A' for Active; 'I' for Inactive)
REMARK    1  A    between atoms: N_5  and  C_9
REMARK    2  A    between atoms: N_5  and  C_17
REMARK    3  A    between atoms: N_6  and  C_22
REMARK    4  A    between atoms: N_7  and  C_25
REMARK    5  A    between atoms: N_7  and  C_28
REMARK    6  A    between atoms: N_7  and  C_29
REMARK    7  A    between atoms: C_10  and  C_15
REMARK    8  A    between atoms: C_15  and  C_16
REMARK    9  A    between atoms: C_16  and  C_18
REMARK   10  A    between atoms: C_17  and  C_19
REMARK   11  A    between atoms: C_22  and  C_26
REMARK   12  A    between atoms: C_22  and  C_27
REMARK                            x       y       z     vdW  Elec       q    Type
REMARK                         _______ _______ _______ _____ _____    ______ ____
ROOT
ATOM      1  O   UNL     1      11.828   6.469  20.354  0.00  0.00    -0.274 OA
ATOM      3  N   UNL     1      14.449   7.881  18.241  0.00  0.00    -0.286 NA
ATOM      4  N   UNL     1      11.656   7.705  18.454  0.00  0.00    -0.313 N 
ATOM      8  C   UNL     1      13.896   6.950  19.235  0.00  0.00    +0.145 C 
ATOM      9  C   UNL     1      15.516   8.492  20.178  0.00  0.00    +0.070 C 
ATOM     10  C   UNL     1      13.635   8.030  17.040  0.00  0.00    +0.075 C 
ATOM     11  C   UNL     1      14.615   7.313  20.543  0.00  0.00    +0.048 C 
ATOM     12  C   UNL     1      14.836   9.094  18.956  0.00  0.00    +0.104 C 
ATOM     13  C   UNL     1      12.231   8.498  17.392  0.00  0.00    +0.123 C 
ATOM     14  C   UNL     1      12.383   7.039  19.410  0.00  0.00    +0.230 C 
ATOM     30  H   UNL     1      10.648   7.740  18.570  0.00  0.00    +0.149 HD
ENDROOT
BRANCH   9   5
ATOM      5  N   UNL     1      15.688   9.438  21.270  0.00  0.00    -0.308 NA
ATOM     31  H   UNL     1      16.639   9.360  21.630  0.00  0.00    +0.123 HD
BRANCH   5  17
ATOM     17  C   UNL     1      14.749   9.166  22.350  0.00  0.00    +0.116 C 
BRANCH  17  19
ATOM     19  C   UNL     1      13.702  10.243  22.467  0.00  0.00    -0.033 A 
ATOM     20  C   UNL     1      12.474  10.093  21.825  0.00  0.00    +0.007 A 
ATOM     21  C   UNL     1      13.963  11.390  23.217  0.00  0.00    +0.007 A 
ATOM     23  C   UNL     1      11.505  11.091  21.933  0.00  0.00    +0.023 A 
ATOM     24  C   UNL     1      12.994  12.387  23.324  0.00  0.00    +0.023 A 
ATOM     25  C   UNL     1      11.765  12.238  22.682  0.00  0.00    +0.029 A 
BRANCH  25   7
ATOM      7  N   UNL     1      10.785  13.246  22.791  0.00  0.00    -0.336 N 
ATOM     28  C   UNL     1      10.396  14.021  21.629  0.00  0.00    +0.129 C 
ATOM     29  C   UNL     1      10.149  13.517  24.066  0.00  0.00    +0.129 C 
ENDBRANCH  25   7
ENDBRANCH  17  19
ENDBRANCH   5  17
ENDBRANCH   9   5
BRANCH  10  15
ATOM     15  C   UNL     1      14.276   8.948  15.999  0.00  0.00    +0.029 C 
BRANCH  15  16
ATOM     16  C   UNL     1      13.433  10.195  15.771  0.00  0.00    +0.097 C 
BRANCH  16  18
ATOM      2  O   UNL     1      14.175  12.493  15.946  0.00  0.00    -0.276 OA
ATOM      6  N   UNL     1      15.171  11.101  14.379  0.00  0.00    -0.313 N 
ATOM     18  C   UNL     1      14.281  11.399  15.399  0.00  0.00    +0.213 C 
ATOM     32  H   UNL     1      15.226  10.149  14.028  0.00  0.00    +0.149 HD
BRANCH   6  22
ATOM     22  C   UNL     1      16.088  12.081  13.845  0.00  0.00    +0.067 C 
ATOM     26  C   UNL     1      16.121  12.002  12.325  0.00  0.00    +0.027 C 
ATOM     27  C   UNL     1      17.478  11.892  14.439  0.00  0.00    +0.027 C 
ENDBRANCH   6  22
ENDBRANCH  16  18
ENDBRANCH  15  16
ENDBRANCH  10  15
TORSDOF 8
ENDMDL
MODEL 10
REMARK VINA RESULT:      -6.2      4.031      8.344
REMARK  Name = 45360628
REMARK  12 active torsions:
REMARK  status: ('A' for Active; 'I' for Inactive)
REMARK    1  A    between atoms: N_5  and  C_9
REMARK    2  A    between atoms: N_5  and  C_17
REMARK    3  A    between atoms: N_6  and  C_22
REMARK    4  A    between atoms: N_7  and  C_25
REMARK    5  A    between atoms: N_7  and  C_28
REMARK    6  A    between atoms: N_7  and  C_29
REMARK    7  A    between atoms: C_10  and  C_15
REMARK    8  A    between atoms: C_15  and  C_16
REMARK    9  A    between atoms: C_16  and  C_18
REMARK   10  A    between atoms: C_17  and  C_19
REMARK   11  A    between atoms: C_22  and  C_26
REMARK   12  A    between atoms: C_22  and  C_27
REMARK                            x       y       z     vdW  Elec       q    Type
REMARK                         _______ _______ _______ _____ _____    ______ ____
ROOT
ATOM      1  O   UNL     1      21.469   8.349  23.383  0.00  0.00    -0.274 OA
ATOM      3  N   UNL     1      18.992   6.421  21.519  0.00  0.00    -0.286 NA
ATOM      4  N   UNL     1      19.767   9.064  22.056  0.00  0.00    -0.313 N 
ATOM      8  C   UNL     1      19.991   6.640  22.574  0.00  0.00    +0.145 C 
ATOM      9  C   UNL     1      20.711   5.029  20.906  0.00  0.00    +0.070 C 
ATOM     10  C   UNL     1      18.006   7.489  21.394  0.00  0.00    +0.075 C 
ATOM     11  C   UNL     1      21.148   5.696  22.211  0.00  0.00    +0.048 C 
ATOM     12  C   UNL     1      19.718   6.020  20.316  0.00  0.00    +0.104 C 
ATOM     13  C   UNL     1      18.685   8.824  21.129  0.00  0.00    +0.123 C 
ATOM     14  C   UNL     1      20.485   8.078  22.687  0.00  0.00    +0.230 C 
ATOM     30  H   UNL     1      20.094  10.020  22.156  0.00  0.00    +0.149 HD
ENDROOT
BRANCH   9   5
ATOM      5  N   UNL     1      21.824   4.726  20.020  0.00  0.00    -0.308 NA
ATOM     31  H   UNL     1      21.787   3.739  19.766  0.00  0.00    +0.123 HD
BRANCH   5  17
ATOM     17  C   UNL     1      23.099   5.001  20.670  0.00  0.00    +0.116 C 
BRANCH  17  19
ATOM     19  C   UNL     1      23.676   3.767  21.314  0.00  0.00    -0.033 A 
ATOM     20  C   UNL     1      24.303   3.858  22.556  0.00  0.00    +0.007 A 
ATOM     21  C   UNL     1      23.584   2.535  20.666  0.00  0.00    +0.007 A 
ATOM     23  C   UNL     1      24.837   2.715  23.152  0.00  0.00    +0.023 A 
ATOM     24  C   UNL     1      24.119   1.393  21.263  0.00  0.00    +0.023 A 
ATOM     25  C   UNL     1      24.746   1.484  22.505  0.00  0.00    +0.029 A 
BRANCH  25   7
ATOM      7  N   UNL     1      25.286   0.328  23.108  0.00  0.00    -0.336 N 
ATOM     28  C   UNL     1      26.169  -0.545  22.361  0.00  0.00    +0.129 C 
ATOM     29  C   UNL     1      24.970   0.003  24.485  0.00  0.00    +0.129 C 
ENDBRANCH  25   7
ENDBRANCH  17  19
ENDBRANCH   5  17
ENDBRANCH   9   5
BRANCH  10  15
ATOM     15  C   UNL     1      16.942   7.193  20.337  0.00  0.00    +0.029 C 
BRANCH  15  16
ATOM     16  C   UNL     1      15.830   6.322  20.903  0.00  0.00    +0.097 C 
BRANCH  16  18
ATOM      2  O   UNL     1      14.259   7.224  19.296  0.00  0.00    -0.276 OA
ATOM      6  N   UNL     1      13.484   6.551  21.378  0.00  0.00    -0.313 N 
ATOM     18  C   UNL     1      14.459   6.754  20.413  0.00  0.00    +0.213 C 
ATOM     32  H   UNL     1      13.737   6.102  22.254  0.00  0.00    +0.149 HD
BRANCH   6  22
ATOM     22  C   UNL     1      12.097   6.884  21.154  0.00  0.00    +0.067 C 
ATOM     26  C   UNL     1      11.723   8.142  21.928  0.00  0.00    +0.027 C 
ATOM     27  C   UNL     1      11.198   5.715  21.535  0.00  0.00    +0.027 C 
ENDBRANCH   6  22
ENDBRANCH  16  18
ENDBRANCH  15  16
ENDBRANCH  10  15
TORSDOF 8
ENDMDL
