REMARK  Name = 75367732
REMARK  6 active torsions:
REMARK  status: ('A' for Active; 'I' for Inactive)
REMARK    1  A    between atoms: O_5  and  C_9
REMARK    2  A    between atoms: O_5  and  C_17
REMARK    3  A    between atoms: O_6  and  C_20
REMARK    4  A    between atoms: O_6  and  C_21
REMARK    5  A    between atoms: N_7  and  C_11
REMARK    6  A    between atoms: C_11  and  C_14
REMARK                            x       y       z     vdW  Elec       q    Type
REMARK                         _______ _______ _______ _____ _____    ______ ____
ROOT
ATOM     14  C   UNL     1      -0.309  -1.353   0.212  0.00  0.00    -0.033 A 
ATOM     15  C   UNL     1      -1.171  -1.673   1.261  0.00  0.00    +0.008 A 
ATOM     16  C   UNL     1      -0.812  -0.765  -0.949  0.00  0.00    +0.008 A 
ATOM     18  C   UNL     1      -2.535  -1.408   1.149  0.00  0.00    +0.046 A 
ATOM     19  C   UNL     1      -2.177  -0.499  -1.061  0.00  0.00    +0.046 A 
ATOM     20  C   UNL     1      -3.038  -0.820  -0.012  0.00  0.00    +0.130 A 
ENDROOT
BRANCH  20   6
ATOM      6  O   UNL     1      -4.370  -0.560  -0.121  0.00  0.00    -0.406 OA
BRANCH   6  21
ATOM      1  F   UNL     1      -4.904   1.071  -1.632  0.00  0.00    -0.133 F 
ATOM      2  F   UNL     1      -5.987   0.967   0.263  0.00  0.00    -0.133 F 
ATOM      3  F   UNL     1      -3.911   1.649   0.256  0.00  0.00    -0.133 F 
ATOM     21  C   UNL     1      -4.779   0.789  -0.318  0.00  0.00    +0.575 C 
ENDBRANCH   6  21
ENDBRANCH  20   6
BRANCH  14  11
ATOM     11  C   UNL     1       1.164  -1.639   0.332  0.00  0.00    +0.119 C 
BRANCH  11   7
ATOM      4  O   UNL     1       3.430   2.261   0.800  0.00  0.00    -0.376 OA
ATOM      7  N   UNL     1       1.969  -0.425   0.189  0.00  0.00    -0.293 NA
ATOM      8  C   UNL     1       3.293  -0.759  -0.347  0.00  0.00    +0.118 C 
ATOM      9  C   UNL     1       4.408   0.290  -0.209  0.00  0.00    +0.157 C 
ATOM     10  C   UNL     1       1.998   0.348   1.431  0.00  0.00    +0.113 C 
ATOM     12  C   UNL     1       3.947   1.727  -0.414  0.00  0.00    +0.192 C 
ATOM     13  C   UNL     1       2.110   1.840   1.113  0.00  0.00    +0.175 C 
BRANCH   9   5
ATOM      5  O   UNL     1       5.410   0.005  -1.186  0.00  0.00    -0.376 OA
ATOM     17  C   UNL     1       6.264  -1.044  -0.757  0.00  0.00    +0.194 C 
ENDBRANCH   9   5
ENDBRANCH  11   7
ENDBRANCH  14  11
TORSDOF 5
