MODEL 1
REMARK VINA RESULT:      -7.7      0.000      0.000
REMARK  Name = 11867385
REMARK  8 active torsions:
REMARK  status: ('A' for Active; 'I' for Inactive)
REMARK    1  A    between atoms: O_3  and  C_12
REMARK    2  A    between atoms: O_3  and  C_16
REMARK    3  A    between atoms: N_6  and  C_11
REMARK    4  A    between atoms: N_7  and  C_20
REMARK    5  A    between atoms: N_8  and  C_23
REMARK    6  A    between atoms: N_8  and  C_32
REMARK    7  A    between atoms: N_8  and  C_33
REMARK    8  A    between atoms: C_15  and  C_17
REMARK                            x       y       z     vdW  Elec       q    Type
REMARK                         _______ _______ _______ _____ _____    ______ ____
ROOT
ATOM      1  O   UNL     1      -6.865 -11.688  16.843  0.00  0.00    -0.368 OA
ATOM      2  O   UNL     1      -6.609 -10.836  19.777  0.00  0.00    -0.368 OA
ATOM      9  C   UNL     1      -7.149 -10.153  18.627  0.00  0.00    +0.173 C 
ATOM     10  C   UNL     1      -6.276 -10.523  17.445  0.00  0.00    +0.192 C 
ATOM     11  C   UNL     1      -8.502 -10.725  18.273  0.00  0.00    +0.130 C 
ATOM     12  C   UNL     1      -4.954 -10.841  18.102  0.00  0.00    +0.235 C 
ATOM     13  C   UNL     1      -8.129 -11.958  17.469  0.00  0.00    +0.185 C 
ATOM     14  C   UNL     1      -5.389 -11.492  19.396  0.00  0.00    +0.207 C 
ENDROOT
BRANCH  11   6
ATOM      4  O   UNL     1     -11.000  -9.512  19.002  0.00  0.00    -0.270 OA
ATOM      6  N   UNL     1      -9.272  -9.795  17.483  0.00  0.00    -0.304 N 
ATOM     15  C   UNL     1     -10.474  -9.260  17.921  0.00  0.00    +0.244 C 
ATOM     35  H   UNL     1      -8.956  -9.629  16.532  0.00  0.00    +0.149 HD
BRANCH  15  17
ATOM     17  C   UNL     1     -11.159  -8.337  16.979  0.00  0.00    +0.037 A 
ATOM     18  C   UNL     1     -12.463  -8.601  16.619  0.00  0.00    +0.015 A 
ATOM     19  C   UNL     1     -10.466  -7.247  16.493  0.00  0.00    +0.015 A 
ATOM     21  C   UNL     1     -13.106  -7.735  15.734  0.00  0.00    +0.024 A 
ATOM     22  C   UNL     1     -11.110  -6.382  15.608  0.00  0.00    +0.024 A 
ATOM     23  C   UNL     1     -12.429  -6.626  15.228  0.00  0.00    +0.029 A 
BRANCH  23   8
ATOM      8  N   UNL     1     -13.079  -5.752  14.332  0.00  0.00    -0.336 N 
ATOM     32  C   UNL     1     -12.314  -4.802  13.549  0.00  0.00    +0.129 C 
ATOM     33  C   UNL     1     -14.519  -5.801  14.172  0.00  0.00    +0.129 C 
ENDBRANCH  23   8
ENDBRANCH  15  17
ENDBRANCH  11   6
BRANCH  12   3
ATOM      3  O   UNL     1      -4.133 -11.689  17.333  0.00  0.00    -0.442 OA
BRANCH   3  16
ATOM      5  O   UNL     1      -2.449 -10.410  16.464  0.00  0.00    -0.226 OA
ATOM      7  N   UNL     1      -4.039 -11.445  15.092  0.00  0.00    -0.251 N 
ATOM     16  C   UNL     1      -3.440 -11.109  16.291  0.00  0.00    +0.405 C 
ATOM     36  H   UNL     1      -4.855 -12.039  15.187  0.00  0.00    +0.158 HD
BRANCH   7  20
ATOM     20  C   UNL     1      -3.651 -11.064  13.788  0.00  0.00    +0.044 A 
ATOM     24  C   UNL     1      -4.512 -10.345  12.954  0.00  0.00    +0.003 A 
ATOM     25  C   UNL     1      -2.377 -11.436  13.373  0.00  0.00    +0.024 A 
ATOM     26  C   UNL     1      -4.068  -9.991  11.658  0.00  0.00    -0.016 A 
ATOM     27  C   UNL     1      -5.800  -9.967  13.367  0.00  0.00    +0.010 A 
ATOM     28  C   UNL     1      -1.941 -11.087  12.099  0.00  0.00    +0.002 A 
ATOM     29  C   UNL     1      -2.780 -10.369  11.245  0.00  0.00    +0.008 A 
ATOM     30  C   UNL     1      -4.926  -9.269  10.812  0.00  0.00    +0.008 A 
ATOM     31  C   UNL     1      -6.639  -9.249  12.513  0.00  0.00    +0.001 A 
ATOM     34  C   UNL     1      -6.202  -8.902  11.238  0.00  0.00    +0.001 A 
ENDBRANCH   7  20
ENDBRANCH   3  16
ENDBRANCH  12   3
TORSDOF 6
ENDMDL
MODEL 2
REMARK VINA RESULT:      -7.7     28.363     31.325
REMARK  Name = 11867385
REMARK  8 active torsions:
REMARK  status: ('A' for Active; 'I' for Inactive)
REMARK    1  A    between atoms: O_3  and  C_12
REMARK    2  A    between atoms: O_3  and  C_16
REMARK    3  A    between atoms: N_6  and  C_11
REMARK    4  A    between atoms: N_7  and  C_20
REMARK    5  A    between atoms: N_8  and  C_23
REMARK    6  A    between atoms: N_8  and  C_32
REMARK    7  A    between atoms: N_8  and  C_33
REMARK    8  A    between atoms: C_15  and  C_17
REMARK                            x       y       z     vdW  Elec       q    Type
REMARK                         _______ _______ _______ _____ _____    ______ ____
ROOT
ATOM      1  O   UNL     1      12.705   8.139  21.947  0.00  0.00    -0.368 OA
ATOM      2  O   UNL     1      12.228   7.953  18.924  0.00  0.00    -0.368 OA
ATOM      9  C   UNL     1      13.439   8.107  19.693  0.00  0.00    +0.173 C 
ATOM     10  C   UNL     1      13.103   9.002  20.869  0.00  0.00    +0.192 C 
ATOM     11  C   UNL     1      13.816   6.792  20.334  0.00  0.00    +0.130 C 
ATOM     12  C   UNL     1      11.942   9.811  20.342  0.00  0.00    +0.235 C 
ATOM     13  C   UNL     1      12.934   6.773  21.571  0.00  0.00    +0.185 C 
ATOM     14  C   UNL     1      11.213   8.801  19.483  0.00  0.00    +0.207 C 
ENDROOT
BRANCH  11   6
ATOM      4  O   UNL     1      16.011   6.169  18.591  0.00  0.00    -0.270 OA
ATOM      6  N   UNL     1      15.215   6.763  20.686  0.00  0.00    -0.304 N 
ATOM     15  C   UNL     1      16.209   6.450  19.771  0.00  0.00    +0.244 C 
ATOM     35  H   UNL     1      15.443   6.872  21.670  0.00  0.00    +0.149 HD
BRANCH  15  17
ATOM     17  C   UNL     1      17.599   6.438  20.296  0.00  0.00    +0.037 A 
ATOM     18  C   UNL     1      18.492   5.514  19.795  0.00  0.00    +0.015 A 
ATOM     19  C   UNL     1      17.950   7.351  21.268  0.00  0.00    +0.015 A 
ATOM     21  C   UNL     1      19.797   5.503  20.289  0.00  0.00    +0.024 A 
ATOM     22  C   UNL     1      19.255   7.338  21.762  0.00  0.00    +0.024 A 
ATOM     23  C   UNL     1      20.178   6.414  21.272  0.00  0.00    +0.029 A 
BRANCH  23   8
ATOM      8  N   UNL     1      21.497   6.401  21.772  0.00  0.00    -0.336 N 
ATOM     32  C   UNL     1      21.752   6.655  23.176  0.00  0.00    +0.129 C 
ATOM     33  C   UNL     1      22.614   6.120  20.891  0.00  0.00    +0.129 C 
ENDBRANCH  23   8
ENDBRANCH  15  17
ENDBRANCH  11   6
BRANCH  12   3
ATOM      3  O   UNL     1      11.117  10.337  21.356  0.00  0.00    -0.442 OA
BRANCH   3  16
ATOM      5  O   UNL     1      12.001  12.422  21.035  0.00  0.00    -0.226 OA
ATOM      7  N   UNL     1      10.678  11.922  22.901  0.00  0.00    -0.251 N 
ATOM     16  C   UNL     1      11.329  11.653  21.711  0.00  0.00    +0.405 C 
ATOM     36  H   UNL     1      10.178  11.131  23.289  0.00  0.00    +0.158 HD
BRANCH   7  20
ATOM     20  C   UNL     1      10.637  13.141  23.614  0.00  0.00    +0.044 A 
ATOM     24  C   UNL     1      11.531  13.406  24.654  0.00  0.00    +0.003 A 
ATOM     25  C   UNL     1       9.667  14.062  23.235  0.00  0.00    +0.024 A 
ATOM     26  C   UNL     1      11.442  14.645  25.333  0.00  0.00    -0.016 A 
ATOM     27  C   UNL     1      12.513  12.479  25.043  0.00  0.00    +0.010 A 
ATOM     28  C   UNL     1       9.579  15.280  23.901  0.00  0.00    +0.002 A 
ATOM     29  C   UNL     1      10.460  15.571  24.944  0.00  0.00    +0.008 A 
ATOM     30  C   UNL     1      12.336  14.920  26.380  0.00  0.00    +0.008 A 
ATOM     31  C   UNL     1      13.393  12.770  26.086  0.00  0.00    +0.001 A 
ATOM     34  C   UNL     1      13.304  13.988  26.753  0.00  0.00    +0.001 A 
ENDBRANCH   7  20
ENDBRANCH   3  16
ENDBRANCH  12   3
TORSDOF 6
ENDMDL
MODEL 3
REMARK VINA RESULT:      -7.3     27.800     30.220
REMARK  Name = 11867385
REMARK  8 active torsions:
REMARK  status: ('A' for Active; 'I' for Inactive)
REMARK    1  A    between atoms: O_3  and  C_12
REMARK    2  A    between atoms: O_3  and  C_16
REMARK    3  A    between atoms: N_6  and  C_11
REMARK    4  A    between atoms: N_7  and  C_20
REMARK    5  A    between atoms: N_8  and  C_23
REMARK    6  A    between atoms: N_8  and  C_32
REMARK    7  A    between atoms: N_8  and  C_33
REMARK    8  A    between atoms: C_15  and  C_17
REMARK                            x       y       z     vdW  Elec       q    Type
REMARK                         _______ _______ _______ _____ _____    ______ ____
ROOT
ATOM      1  O   UNL     1      14.063   8.929  20.356  0.00  0.00    -0.368 OA
ATOM      2  O   UNL     1      12.477   6.775  18.857  0.00  0.00    -0.368 OA
ATOM      9  C   UNL     1      12.789   8.142  18.518  0.00  0.00    +0.173 C 
ATOM     10  C   UNL     1      12.735   8.938  19.806  0.00  0.00    +0.192 C 
ATOM     11  C   UNL     1      14.232   8.252  18.084  0.00  0.00    +0.130 C 
ATOM     12  C   UNL     1      11.775   8.132  20.648  0.00  0.00    +0.235 C 
ATOM     13  C   UNL     1      14.963   8.328  19.413  0.00  0.00    +0.185 C 
ATOM     14  C   UNL     1      12.110   6.713  20.244  0.00  0.00    +0.207 C 
ENDROOT
BRANCH  11   6
ATOM      4  O   UNL     1      13.779   8.546  15.264  0.00  0.00    -0.270 OA
ATOM      6  N   UNL     1      14.452   9.440  17.295  0.00  0.00    -0.304 N 
ATOM     15  C   UNL     1      14.203   9.487  15.931  0.00  0.00    +0.244 C 
ATOM     35  H   UNL     1      14.908  10.220  17.757  0.00  0.00    +0.149 HD
BRANCH  15  17
ATOM     17  C   UNL     1      14.505  10.776  15.258  0.00  0.00    +0.037 A 
ATOM     18  C   UNL     1      15.791  11.271  15.313  0.00  0.00    +0.015 A 
ATOM     19  C   UNL     1      13.489  11.437  14.599  0.00  0.00    +0.015 A 
ATOM     21  C   UNL     1      16.075  12.482  14.681  0.00  0.00    +0.024 A 
ATOM     22  C   UNL     1      13.774  12.649  13.967  0.00  0.00    +0.024 A 
ATOM     23  C   UNL     1      15.067  13.171  14.009  0.00  0.00    +0.029 A 
BRANCH  23   8
ATOM      8  N   UNL     1      15.354  14.396  13.372  0.00  0.00    -0.336 N 
ATOM     32  C   UNL     1      16.584  14.563  12.624  0.00  0.00    +0.129 C 
ATOM     33  C   UNL     1      14.417  15.500  13.446  0.00  0.00    +0.129 C 
ENDBRANCH  23   8
ENDBRANCH  15  17
ENDBRANCH  11   6
BRANCH  12   3
ATOM      3  O   UNL     1      11.931   8.339  22.033  0.00  0.00    -0.442 OA
BRANCH   3  16
ATOM      5  O   UNL     1       9.903   9.101  22.764  0.00  0.00    -0.226 OA
ATOM      7  N   UNL     1      11.851  10.379  22.993  0.00  0.00    -0.251 N 
ATOM     16  C   UNL     1      11.107   9.276  22.621  0.00  0.00    +0.405 C 
ATOM     36  H   UNL     1      12.838  10.307  22.775  0.00  0.00    +0.158 HD
BRANCH   7  20
ATOM     20  C   UNL     1      11.401  11.561  23.624  0.00  0.00    +0.044 A 
ATOM     24  C   UNL     1      11.158  12.727  22.894  0.00  0.00    +0.003 A 
ATOM     25  C   UNL     1      11.212  11.509  25.000  0.00  0.00    +0.024 A 
ATOM     26  C   UNL     1      10.708  13.880  23.580  0.00  0.00    -0.016 A 
ATOM     27  C   UNL     1      11.348  12.786  21.503  0.00  0.00    +0.010 A 
ATOM     28  C   UNL     1      10.769  12.643  25.674  0.00  0.00    +0.002 A 
ATOM     29  C   UNL     1      10.518  13.821  24.971  0.00  0.00    +0.008 A 
ATOM     30  C   UNL     1      10.461  15.058  22.856  0.00  0.00    +0.008 A 
ATOM     31  C   UNL     1      11.097  13.964  20.800  0.00  0.00    +0.001 A 
ATOM     34  C   UNL     1      10.655  15.098  21.475  0.00  0.00    +0.001 A 
ENDBRANCH   7  20
ENDBRANCH   3  16
ENDBRANCH  12   3
TORSDOF 6
ENDMDL
MODEL 4
REMARK VINA RESULT:      -7.3      2.542      4.704
REMARK  Name = 11867385
REMARK  8 active torsions:
REMARK  status: ('A' for Active; 'I' for Inactive)
REMARK    1  A    between atoms: O_3  and  C_12
REMARK    2  A    between atoms: O_3  and  C_16
REMARK    3  A    between atoms: N_6  and  C_11
REMARK    4  A    between atoms: N_7  and  C_20
REMARK    5  A    between atoms: N_8  and  C_23
REMARK    6  A    between atoms: N_8  and  C_32
REMARK    7  A    between atoms: N_8  and  C_33
REMARK    8  A    between atoms: C_15  and  C_17
REMARK                            x       y       z     vdW  Elec       q    Type
REMARK                         _______ _______ _______ _____ _____    ______ ____
ROOT
ATOM      1  O   UNL     1      -3.776 -12.110  14.541  0.00  0.00    -0.368 OA
ATOM      2  O   UNL     1      -1.958 -10.807  16.638  0.00  0.00    -0.368 OA
ATOM      9  C   UNL     1      -3.309 -10.511  16.228  0.00  0.00    +0.173 C 
ATOM     10  C   UNL     1      -3.376 -10.743  14.731  0.00  0.00    +0.192 C 
ATOM     11  C   UNL     1      -4.260 -11.537  16.797  0.00  0.00    +0.130 C 
ATOM     12  C   UNL     1      -1.946 -10.513  14.302  0.00  0.00    +0.235 C 
ATOM     13  C   UNL     1      -4.124 -12.684  15.810  0.00  0.00    +0.185 C 
ATOM     14  C   UNL     1      -1.168 -11.077  15.470  0.00  0.00    +0.207 C 
ENDROOT
BRANCH  11   6
ATOM      4  O   UNL     1      -5.686 -10.617  19.113  0.00  0.00    -0.270 OA
ATOM      6  N   UNL     1      -5.612 -11.034  16.833  0.00  0.00    -0.304 N 
ATOM     15  C   UNL     1      -6.219 -10.611  18.006  0.00  0.00    +0.244 C 
ATOM     35  H   UNL     1      -6.152 -11.107  15.977  0.00  0.00    +0.149 HD
BRANCH  15  17
ATOM     17  C   UNL     1      -7.625 -10.145  17.881  0.00  0.00    +0.037 A 
ATOM     18  C   UNL     1      -7.924  -9.176  16.947  0.00  0.00    +0.015 A 
ATOM     19  C   UNL     1      -8.584 -10.696  18.705  0.00  0.00    +0.015 A 
ATOM     21  C   UNL     1      -9.244  -8.738  16.829  0.00  0.00    +0.024 A 
ATOM     22  C   UNL     1      -9.904 -10.257  18.587  0.00  0.00    +0.024 A 
ATOM     23  C   UNL     1     -10.233  -9.278  17.650  0.00  0.00    +0.029 A 
BRANCH  23   8
ATOM      8  N   UNL     1     -11.567  -8.834  17.532  0.00  0.00    -0.336 N 
ATOM     32  C   UNL     1     -11.908  -7.776  16.602  0.00  0.00    +0.129 C 
ATOM     33  C   UNL     1     -12.615  -9.438  18.330  0.00  0.00    +0.129 C 
ENDBRANCH  23   8
ENDBRANCH  15  17
ENDBRANCH  11   6
BRANCH  12   3
ATOM      3  O   UNL     1      -1.614 -11.148  13.089  0.00  0.00    -0.442 OA
BRANCH   3  16
ATOM      5  O   UNL     1      -1.215  -9.588  11.465  0.00  0.00    -0.226 OA
ATOM      7  N   UNL     1      -3.114 -10.958  11.414  0.00  0.00    -0.251 N 
ATOM     16  C   UNL     1      -1.925 -10.474  11.926  0.00  0.00    +0.405 C 
ATOM     36  H   UNL     1      -3.533 -11.697  11.964  0.00  0.00    +0.158 HD
BRANCH   7  20
ATOM     20  C   UNL     1      -3.788 -10.546  10.242  0.00  0.00    +0.044 A 
ATOM     24  C   UNL     1      -4.185 -11.468   9.270  0.00  0.00    +0.003 A 
ATOM     25  C   UNL     1      -4.036  -9.186  10.101  0.00  0.00    +0.024 A 
ATOM     26  C   UNL     1      -4.856 -10.997   8.116  0.00  0.00    -0.016 A 
ATOM     27  C   UNL     1      -3.936 -12.844   9.406  0.00  0.00    +0.010 A 
ATOM     28  C   UNL     1      -4.697  -8.723   8.967  0.00  0.00    +0.002 A 
ATOM     29  C   UNL     1      -5.105  -9.621   7.980  0.00  0.00    +0.008 A 
ATOM     30  C   UNL     1      -5.259 -11.916   7.133  0.00  0.00    +0.008 A 
ATOM     31  C   UNL     1      -4.343 -13.741   8.419  0.00  0.00    +0.001 A 
ATOM     34  C   UNL     1      -5.003 -13.278   7.285  0.00  0.00    +0.001 A 
ENDBRANCH   7  20
ENDBRANCH   3  16
ENDBRANCH  12   3
TORSDOF 6
ENDMDL
MODEL 5
REMARK VINA RESULT:      -7.1     27.616     30.561
REMARK  Name = 11867385
REMARK  8 active torsions:
REMARK  status: ('A' for Active; 'I' for Inactive)
REMARK    1  A    between atoms: O_3  and  C_12
REMARK    2  A    between atoms: O_3  and  C_16
REMARK    3  A    between atoms: N_6  and  C_11
REMARK    4  A    between atoms: N_7  and  C_20
REMARK    5  A    between atoms: N_8  and  C_23
REMARK    6  A    between atoms: N_8  and  C_32
REMARK    7  A    between atoms: N_8  and  C_33
REMARK    8  A    between atoms: C_15  and  C_17
REMARK                            x       y       z     vdW  Elec       q    Type
REMARK                         _______ _______ _______ _____ _____    ______ ____
ROOT
ATOM      1  O   UNL     1      14.077   9.390  19.001  0.00  0.00    -0.368 OA
ATOM      2  O   UNL     1      11.856   7.430  19.792  0.00  0.00    -0.368 OA
ATOM      9  C   UNL     1      13.256   7.224  19.508  0.00  0.00    +0.173 C 
ATOM     10  C   UNL     1      13.621   8.174  18.385  0.00  0.00    +0.192 C 
ATOM     11  C   UNL     1      14.096   7.699  20.671  0.00  0.00    +0.130 C 
ATOM     12  C   UNL     1      12.301   8.366  17.678  0.00  0.00    +0.235 C 
ATOM     13  C   UNL     1      14.179   9.194  20.419  0.00  0.00    +0.185 C 
ATOM     14  C   UNL     1      11.317   8.347  18.828  0.00  0.00    +0.207 C 
ENDROOT
BRANCH  11   6
ATOM      4  O   UNL     1      16.504   8.777  21.803  0.00  0.00    -0.270 OA
ATOM      6  N   UNL     1      15.404   7.090  20.655  0.00  0.00    -0.304 N 
ATOM     15  C   UNL     1      16.513   7.690  21.231  0.00  0.00    +0.244 C 
ATOM     35  H   UNL     1      15.510   6.246  20.101  0.00  0.00    +0.149 HD
BRANCH  15  17
ATOM     17  C   UNL     1      17.794   6.947  21.106  0.00  0.00    +0.037 A 
ATOM     18  C   UNL     1      17.959   6.077  20.050  0.00  0.00    +0.015 A 
ATOM     19  C   UNL     1      18.777   7.152  22.052  0.00  0.00    +0.015 A 
ATOM     21  C   UNL     1      19.161   5.379  19.932  0.00  0.00    +0.024 A 
ATOM     22  C   UNL     1      19.979   6.453  21.935  0.00  0.00    +0.024 A 
ATOM     23  C   UNL     1      20.171   5.567  20.875  0.00  0.00    +0.029 A 
BRANCH  23   8
ATOM      8  N   UNL     1      21.386   4.860  20.757  0.00  0.00    -0.336 N 
ATOM     32  C   UNL     1      22.595   5.543  20.345  0.00  0.00    +0.129 C 
ATOM     33  C   UNL     1      21.443   3.443  21.060  0.00  0.00    +0.129 C 
ENDBRANCH  23   8
ENDBRANCH  15  17
ENDBRANCH  11   6
BRANCH  12   3
ATOM      3  O   UNL     1      12.227   9.563  16.939  0.00  0.00    -0.442 OA
BRANCH   3  16
ATOM      5  O   UNL     1      13.197   8.729  15.043  0.00  0.00    -0.226 OA
ATOM      7  N   UNL     1      13.589  10.923  15.762  0.00  0.00    -0.251 N 
ATOM     16  C   UNL     1      13.034   9.659  15.824  0.00  0.00    +0.405 C 
ATOM     36  H   UNL     1      13.315  11.535  16.520  0.00  0.00    +0.158 HD
BRANCH   7  20
ATOM     20  C   UNL     1      14.472  11.438  14.785  0.00  0.00    +0.044 A 
ATOM     24  C   UNL     1      13.992  12.060  13.629  0.00  0.00    +0.003 A 
ATOM     25  C   UNL     1      15.833  11.298  15.026  0.00  0.00    +0.024 A 
ATOM     26  C   UNL     1      14.923  12.557  12.686  0.00  0.00    -0.016 A 
ATOM     27  C   UNL     1      12.618  12.204  13.379  0.00  0.00    +0.010 A 
ATOM     28  C   UNL     1      16.748  11.787  14.099  0.00  0.00    +0.002 A 
ATOM     29  C   UNL     1      16.298  12.413  12.936  0.00  0.00    +0.008 A 
ATOM     30  C   UNL     1      14.452  13.183  11.520  0.00  0.00    +0.008 A 
ATOM     31  C   UNL     1      12.168  12.829  12.215  0.00  0.00    +0.001 A 
ATOM     34  C   UNL     1      13.084  13.317  11.288  0.00  0.00    +0.001 A 
ENDBRANCH   7  20
ENDBRANCH   3  16
ENDBRANCH  12   3
TORSDOF 6
ENDMDL
MODEL 6
REMARK VINA RESULT:      -7.0      5.089     11.270
REMARK  Name = 11867385
REMARK  8 active torsions:
REMARK  status: ('A' for Active; 'I' for Inactive)
REMARK    1  A    between atoms: O_3  and  C_12
REMARK    2  A    between atoms: O_3  and  C_16
REMARK    3  A    between atoms: N_6  and  C_11
REMARK    4  A    between atoms: N_7  and  C_20
REMARK    5  A    between atoms: N_8  and  C_23
REMARK    6  A    between atoms: N_8  and  C_32
REMARK    7  A    between atoms: N_8  and  C_33
REMARK    8  A    between atoms: C_15  and  C_17
REMARK                            x       y       z     vdW  Elec       q    Type
REMARK                         _______ _______ _______ _____ _____    ______ ____
ROOT
ATOM      1  O   UNL     1      -9.522  -8.429   8.979  0.00  0.00    -0.368 OA
ATOM      2  O   UNL     1      -7.764  -7.615   6.602  0.00  0.00    -0.368 OA
ATOM      9  C   UNL     1      -7.457  -7.800   8.000  0.00  0.00    +0.173 C 
ATOM     10  C   UNL     1      -8.654  -7.300   8.783  0.00  0.00    +0.192 C 
ATOM     11  C   UNL     1      -7.398  -9.273   8.328  0.00  0.00    +0.130 C 
ATOM     12  C   UNL     1      -9.259  -6.285   7.843  0.00  0.00    +0.235 C 
ATOM     13  C   UNL     1      -8.864  -9.619   8.519  0.00  0.00    +0.185 C 
ATOM     14  C   UNL     1      -9.014  -6.917   6.491  0.00  0.00    +0.207 C 
ENDROOT
BRANCH  11   6
ATOM      4  O   UNL     1      -4.578  -9.782   8.509  0.00  0.00    -0.270 OA
ATOM      6  N   UNL     1      -6.640  -9.511   9.533  0.00  0.00    -0.304 N 
ATOM     15  C   UNL     1      -5.274  -9.749   9.520  0.00  0.00    +0.244 C 
ATOM     35  H   UNL     1      -7.168  -9.611  10.394  0.00  0.00    +0.149 HD
BRANCH  15  17
ATOM     17  C   UNL     1      -4.645 -10.002  10.842  0.00  0.00    +0.037 A 
ATOM     18  C   UNL     1      -5.454 -10.129  11.951  0.00  0.00    +0.015 A 
ATOM     19  C   UNL     1      -3.271 -10.100  10.918  0.00  0.00    +0.015 A 
ATOM     21  C   UNL     1      -4.864 -10.367  13.193  0.00  0.00    +0.024 A 
ATOM     22  C   UNL     1      -2.681 -10.337  12.160  0.00  0.00    +0.024 A 
ATOM     23  C   UNL     1      -3.477 -10.470  13.297  0.00  0.00    +0.029 A 
BRANCH  23   8
ATOM      8  N   UNL     1      -2.880 -10.708  14.553  0.00  0.00    -0.336 N 
ATOM     32  C   UNL     1      -1.507 -10.316  14.799  0.00  0.00    +0.129 C 
ATOM     33  C   UNL     1      -3.637 -11.335  15.619  0.00  0.00    +0.129 C 
ENDBRANCH  23   8
ENDBRANCH  15  17
ENDBRANCH  11   6
BRANCH  12   3
ATOM      3  O   UNL     1     -10.629  -6.048   8.076  0.00  0.00    -0.442 OA
BRANCH   3  16
ATOM      5  O   UNL     1     -10.284  -4.087   9.200  0.00  0.00    -0.226 OA
ATOM      7  N   UNL     1     -12.075  -5.503   9.719  0.00  0.00    -0.251 N 
ATOM     16  C   UNL     1     -10.944  -5.105   9.032  0.00  0.00    +0.405 C 
ATOM     36  H   UNL     1     -12.460  -6.388   9.409  0.00  0.00    +0.158 HD
BRANCH   7  20
ATOM     20  C   UNL     1     -12.734  -4.831  10.773  0.00  0.00    +0.044 A 
ATOM     24  C   UNL     1     -13.738  -3.892  10.522  0.00  0.00    +0.003 A 
ATOM     25  C   UNL     1     -12.339  -5.146  12.068  0.00  0.00    +0.024 A 
ATOM     26  C   UNL     1     -14.362  -3.250  11.618  0.00  0.00    -0.016 A 
ATOM     27  C   UNL     1     -14.141  -3.568   9.216  0.00  0.00    +0.010 A 
ATOM     28  C   UNL     1     -12.953  -4.516  13.146  0.00  0.00    +0.002 A 
ATOM     29  C   UNL     1     -13.959  -3.574  12.924  0.00  0.00    +0.008 A 
ATOM     30  C   UNL     1     -15.372  -2.305  11.376  0.00  0.00    +0.008 A 
ATOM     31  C   UNL     1     -15.146  -2.626   8.994  0.00  0.00    +0.001 A 
ATOM     34  C   UNL     1     -15.759  -1.995  10.072  0.00  0.00    +0.001 A 
ENDBRANCH   7  20
ENDBRANCH   3  16
ENDBRANCH  12   3
TORSDOF 6
ENDMDL
MODEL 7
REMARK VINA RESULT:      -6.9     20.344     23.616
REMARK  Name = 11867385
REMARK  8 active torsions:
REMARK  status: ('A' for Active; 'I' for Inactive)
REMARK    1  A    between atoms: O_3  and  C_12
REMARK    2  A    between atoms: O_3  and  C_16
REMARK    3  A    between atoms: N_6  and  C_11
REMARK    4  A    between atoms: N_7  and  C_20
REMARK    5  A    between atoms: N_8  and  C_23
REMARK    6  A    between atoms: N_8  and  C_32
REMARK    7  A    between atoms: N_8  and  C_33
REMARK    8  A    between atoms: C_15  and  C_17
REMARK                            x       y       z     vdW  Elec       q    Type
REMARK                         _______ _______ _______ _____ _____    ______ ____
ROOT
ATOM      1  O   UNL     1     -13.449   4.749  32.280  0.00  0.00    -0.368 OA
ATOM      2  O   UNL     1     -15.871   4.296  34.105  0.00  0.00    -0.368 OA
ATOM      9  C   UNL     1     -15.770   4.475  32.676  0.00  0.00    +0.173 C 
ATOM     10  C   UNL     1     -14.671   5.489  32.437  0.00  0.00    +0.192 C 
ATOM     11  C   UNL     1     -15.246   3.213  32.032  0.00  0.00    +0.130 C 
ATOM     12  C   UNL     1     -14.680   6.289  33.717  0.00  0.00    +0.235 C 
ATOM     13  C   UNL     1     -13.747   3.345  32.238  0.00  0.00    +0.185 C 
ATOM     14  C   UNL     1     -14.995   5.232  34.752  0.00  0.00    +0.207 C 
ENDROOT
BRANCH  11   6
ATOM      4  O   UNL     1     -15.699   0.854  30.459  0.00  0.00    -0.270 OA
ATOM      6  N   UNL     1     -15.581   3.163  30.630  0.00  0.00    -0.304 N 
ATOM     15  C   UNL     1     -15.782   1.970  29.952  0.00  0.00    +0.244 C 
ATOM     35  H   UNL     1     -15.554   4.041  30.120  0.00  0.00    +0.149 HD
BRANCH  15  17
ATOM     17  C   UNL     1     -16.094   2.087  28.504  0.00  0.00    +0.037 A 
ATOM     18  C   UNL     1     -16.514   0.966  27.820  0.00  0.00    +0.015 A 
ATOM     19  C   UNL     1     -15.954   3.315  27.891  0.00  0.00    +0.015 A 
ATOM     21  C   UNL     1     -16.807   1.076  26.461  0.00  0.00    +0.024 A 
ATOM     22  C   UNL     1     -16.247   3.424  26.531  0.00  0.00    +0.024 A 
ATOM     23  C   UNL     1     -16.673   2.305  25.816  0.00  0.00    +0.029 A 
BRANCH  23   8
ATOM      8  N   UNL     1     -16.967   2.415  24.441  0.00  0.00    -0.336 N 
ATOM     32  C   UNL     1     -18.052   1.650  23.859  0.00  0.00    +0.129 C 
ATOM     33  C   UNL     1     -16.198   3.305  23.594  0.00  0.00    +0.129 C 
ENDBRANCH  23   8
ENDBRANCH  15  17
ENDBRANCH  11   6
BRANCH  12   3
ATOM      3  O   UNL     1     -13.459   6.941  33.982  0.00  0.00    -0.442 OA
BRANCH   3  16
ATOM      5  O   UNL     1     -14.056   9.147  33.909  0.00  0.00    -0.226 OA
ATOM      7  N   UNL     1     -12.297   8.306  32.612  0.00  0.00    -0.251 N 
ATOM     16  C   UNL     1     -13.332   8.237  33.526  0.00  0.00    +0.405 C 
ATOM     36  H   UNL     1     -11.831   7.423  32.445  0.00  0.00    +0.158 HD
BRANCH   7  20
ATOM     20  C   UNL     1     -11.833   9.440  31.908  0.00  0.00    +0.044 A 
ATOM     24  C   UNL     1     -10.716  10.159  32.343  0.00  0.00    +0.003 A 
ATOM     25  C   UNL     1     -12.537   9.807  30.767  0.00  0.00    +0.024 A 
ATOM     26  C   UNL     1     -10.298  11.287  31.597  0.00  0.00    -0.016 A 
ATOM     27  C   UNL     1     -10.001   9.794  33.496  0.00  0.00    +0.010 A 
ATOM     28  C   UNL     1     -12.125  10.915  30.033  0.00  0.00    +0.002 A 
ATOM     29  C   UNL     1     -11.013  11.652  30.444  0.00  0.00    +0.008 A 
ATOM     30  C   UNL     1      -9.177  12.016  32.026  0.00  0.00    +0.008 A 
ATOM     31  C   UNL     1      -8.890  10.531  33.907  0.00  0.00    +0.001 A 
ATOM     34  C   UNL     1      -8.479  11.640  33.173  0.00  0.00    +0.001 A 
ENDBRANCH   7  20
ENDBRANCH   3  16
ENDBRANCH  12   3
TORSDOF 6
ENDMDL
MODEL 8
REMARK VINA RESULT:      -6.9     28.376     31.654
REMARK  Name = 11867385
REMARK  8 active torsions:
REMARK  status: ('A' for Active; 'I' for Inactive)
REMARK    1  A    between atoms: O_3  and  C_12
REMARK    2  A    between atoms: O_3  and  C_16
REMARK    3  A    between atoms: N_6  and  C_11
REMARK    4  A    between atoms: N_7  and  C_20
REMARK    5  A    between atoms: N_8  and  C_23
REMARK    6  A    between atoms: N_8  and  C_32
REMARK    7  A    between atoms: N_8  and  C_33
REMARK    8  A    between atoms: C_15  and  C_17
REMARK                            x       y       z     vdW  Elec       q    Type
REMARK                         _______ _______ _______ _____ _____    ______ ____
ROOT
ATOM      1  O   UNL     1      22.469   3.011  25.442  0.00  0.00    -0.368 OA
ATOM      2  O   UNL     1      24.300   1.913  23.242  0.00  0.00    -0.368 OA
ATOM      9  C   UNL     1      22.960   2.446  23.193  0.00  0.00    +0.173 C 
ATOM     10  C   UNL     1      22.258   1.988  24.455  0.00  0.00    +0.192 C 
ATOM     11  C   UNL     1      22.996   3.950  23.322  0.00  0.00    +0.130 C 
ATOM     12  C   UNL     1      23.000   0.718  24.799  0.00  0.00    +0.235 C 
ATOM     13  C   UNL     1      23.106   4.141  24.825  0.00  0.00    +0.185 C 
ATOM     14  C   UNL     1      24.416   1.054  24.387  0.00  0.00    +0.207 C 
ENDROOT
BRANCH  11   6
ATOM      4  O   UNL     1      22.593   4.976  20.671  0.00  0.00    -0.270 OA
ATOM      6  N   UNL     1      21.790   4.549  22.804  0.00  0.00    -0.304 N 
ATOM     15  C   UNL     1      21.690   5.018  21.502  0.00  0.00    +0.244 C 
ATOM     35  H   UNL     1      21.041   4.720  23.467  0.00  0.00    +0.149 HD
BRANCH  15  17
ATOM     17  C   UNL     1      20.389   5.631  21.129  0.00  0.00    +0.037 A 
ATOM     18  C   UNL     1      19.943   6.728  21.836  0.00  0.00    +0.015 A 
ATOM     19  C   UNL     1      19.669   5.083  20.088  0.00  0.00    +0.015 A 
ATOM     21  C   UNL     1      18.721   7.304  21.486  0.00  0.00    +0.024 A 
ATOM     22  C   UNL     1      18.447   5.659  19.739  0.00  0.00    +0.024 A 
ATOM     23  C   UNL     1      17.973   6.769  20.439  0.00  0.00    +0.029 A 
BRANCH  23   8
ATOM      8  N   UNL     1      16.737   7.350  20.087  0.00  0.00    -0.336 N 
ATOM     32  C   UNL     1      15.786   6.617  19.274  0.00  0.00    +0.129 C 
ATOM     33  C   UNL     1      16.395   8.683  20.544  0.00  0.00    +0.129 C 
ENDBRANCH  23   8
ENDBRANCH  15  17
ENDBRANCH  11   6
BRANCH  12   3
ATOM      3  O   UNL     1      22.915   0.368  26.161  0.00  0.00    -0.442 OA
BRANCH   3  16
ATOM      5  O   UNL     1      21.819  -0.988  27.642  0.00  0.00    -0.226 OA
ATOM      7  N   UNL     1      21.607  -1.271  25.327  0.00  0.00    -0.251 N 
ATOM     16  C   UNL     1      22.074  -0.678  26.484  0.00  0.00    +0.405 C 
ATOM     36  H   UNL     1      21.952  -0.847  24.474  0.00  0.00    +0.158 HD
BRANCH   7  20
ATOM     20  C   UNL     1      20.726  -2.370  25.207  0.00  0.00    +0.044 A 
ATOM     24  C   UNL     1      19.362  -2.185  24.969  0.00  0.00    +0.003 A 
ATOM     25  C   UNL     1      21.278  -3.639  25.337  0.00  0.00    +0.024 A 
ATOM     26  C   UNL     1      18.528  -3.324  24.858  0.00  0.00    -0.016 A 
ATOM     27  C   UNL     1      18.798  -0.905  24.837  0.00  0.00    +0.010 A 
ATOM     28  C   UNL     1      20.459  -4.758  25.228  0.00  0.00    +0.002 A 
ATOM     29  C   UNL     1      19.092  -4.603  24.990  0.00  0.00    +0.008 A 
ATOM     30  C   UNL     1      17.156  -3.149  24.619  0.00  0.00    +0.008 A 
ATOM     31  C   UNL     1      17.432  -0.751  24.600  0.00  0.00    +0.001 A 
ATOM     34  C   UNL     1      16.613  -1.871  24.491  0.00  0.00    +0.001 A 
ENDBRANCH   7  20
ENDBRANCH   3  16
ENDBRANCH  12   3
TORSDOF 6
ENDMDL
MODEL 9
REMARK VINA RESULT:      -6.8     26.783     30.787
REMARK  Name = 11867385
REMARK  8 active torsions:
REMARK  status: ('A' for Active; 'I' for Inactive)
REMARK    1  A    between atoms: O_3  and  C_12
REMARK    2  A    between atoms: O_3  and  C_16
REMARK    3  A    between atoms: N_6  and  C_11
REMARK    4  A    between atoms: N_7  and  C_20
REMARK    5  A    between atoms: N_8  and  C_23
REMARK    6  A    between atoms: N_8  and  C_32
REMARK    7  A    between atoms: N_8  and  C_33
REMARK    8  A    between atoms: C_15  and  C_17
REMARK                            x       y       z     vdW  Elec       q    Type
REMARK                         _______ _______ _______ _____ _____    ______ ____
ROOT
ATOM      1  O   UNL     1      12.981   8.103   4.344  0.00  0.00    -0.368 OA
ATOM      2  O   UNL     1      12.320   8.104   7.338  0.00  0.00    -0.368 OA
ATOM      9  C   UNL     1      13.493   7.670   6.618  0.00  0.00    +0.173 C 
ATOM     10  C   UNL     1      13.009   7.050   5.322  0.00  0.00    +0.192 C 
ATOM     11  C   UNL     1      14.298   8.866   6.169  0.00  0.00    +0.130 C 
ATOM     12  C   UNL     1      11.618   6.585   5.683  0.00  0.00    +0.235 C 
ATOM     13  C   UNL     1      13.573   9.285   4.902  0.00  0.00    +0.185 C 
ATOM     14  C   UNL     1      11.151   7.672   6.625  0.00  0.00    +0.207 C 
ENDROOT
BRANCH  11   6
ATOM      4  O   UNL     1      16.596  10.580   6.340  0.00  0.00    -0.270 OA
ATOM      6  N   UNL     1      15.667   8.502   5.895  0.00  0.00    -0.304 N 
ATOM     15  C   UNL     1      16.716   9.404   6.005  0.00  0.00    +0.244 C 
ATOM     35  H   UNL     1      15.827   7.579   5.503  0.00  0.00    +0.149 HD
BRANCH  15  17
ATOM     17  C   UNL     1      18.064   8.881   5.663  0.00  0.00    +0.037 A 
ATOM     18  C   UNL     1      19.053   8.909   6.623  0.00  0.00    +0.015 A 
ATOM     19  C   UNL     1      18.282   8.384   4.395  0.00  0.00    +0.015 A 
ATOM     21  C   UNL     1      20.318   8.418   6.302  0.00  0.00    +0.024 A 
ATOM     22  C   UNL     1      19.548   7.893   4.074  0.00  0.00    +0.024 A 
ATOM     23  C   UNL     1      20.566   7.911   5.027  0.00  0.00    +0.029 A 
BRANCH  23   8
ATOM      8  N   UNL     1      21.847   7.417   4.702  0.00  0.00    -0.336 N 
ATOM     32  C   UNL     1      23.037   8.121   5.135  0.00  0.00    +0.129 C 
ATOM     33  C   UNL     1      21.989   6.190   3.942  0.00  0.00    +0.129 C 
ENDBRANCH  23   8
ENDBRANCH  15  17
ENDBRANCH  11   6
BRANCH  12   3
ATOM      3  O   UNL     1      10.765   6.446   4.570  0.00  0.00    -0.442 OA
BRANCH   3  16
ATOM      5  O   UNL     1      10.574   4.217   4.095  0.00  0.00    -0.226 OA
ATOM      7  N   UNL     1      11.614   5.705   2.616  0.00  0.00    -0.251 N 
ATOM     16  C   UNL     1      10.954   5.336   3.773  0.00  0.00    +0.405 C 
ATOM     36  H   UNL     1      11.834   6.692   2.559  0.00  0.00    +0.158 HD
BRANCH   7  20
ATOM     20  C   UNL     1      12.003   4.880   1.536  0.00  0.00    +0.044 A 
ATOM     24  C   UNL     1      11.290   4.873   0.334  0.00  0.00    +0.003 A 
ATOM     25  C   UNL     1      13.122   4.078   1.724  0.00  0.00    +0.024 A 
ATOM     26  C   UNL     1      11.726   4.026  -0.713  0.00  0.00    -0.016 A 
ATOM     27  C   UNL     1      10.157   5.680   0.138  0.00  0.00    +0.010 A 
ATOM     28  C   UNL     1      13.551   3.246   0.694  0.00  0.00    +0.002 A 
ATOM     29  C   UNL     1      12.859   3.219  -0.517  0.00  0.00    +0.008 A 
ATOM     30  C   UNL     1      11.016   4.012  -1.925  0.00  0.00    +0.008 A 
ATOM     31  C   UNL     1       9.465   5.653  -1.073  0.00  0.00    +0.001 A 
ATOM     34  C   UNL     1       9.893   4.820  -2.102  0.00  0.00    +0.001 A 
ENDBRANCH   7  20
ENDBRANCH   3  16
ENDBRANCH  12   3
TORSDOF 6
ENDMDL
MODEL 10
REMARK VINA RESULT:      -6.7      4.025      6.944
REMARK  Name = 11867385
REMARK  8 active torsions:
REMARK  status: ('A' for Active; 'I' for Inactive)
REMARK    1  A    between atoms: O_3  and  C_12
REMARK    2  A    between atoms: O_3  and  C_16
REMARK    3  A    between atoms: N_6  and  C_11
REMARK    4  A    between atoms: N_7  and  C_20
REMARK    5  A    between atoms: N_8  and  C_23
REMARK    6  A    between atoms: N_8  and  C_32
REMARK    7  A    between atoms: N_8  and  C_33
REMARK    8  A    between atoms: C_15  and  C_17
REMARK                            x       y       z     vdW  Elec       q    Type
REMARK                         _______ _______ _______ _____ _____    ______ ____
ROOT
ATOM      1  O   UNL     1      -4.051 -12.395  12.913  0.00  0.00    -0.368 OA
ATOM      2  O   UNL     1      -1.832 -10.592  14.020  0.00  0.00    -0.368 OA
ATOM      9  C   UNL     1      -3.212 -10.757  14.408  0.00  0.00    +0.173 C 
ATOM     10  C   UNL     1      -4.003 -10.975  13.134  0.00  0.00    +0.192 C 
ATOM     11  C   UNL     1      -3.385 -12.050  15.169  0.00  0.00    +0.130 C 
ATOM     12  C   UNL     1      -3.155 -10.276  12.099  0.00  0.00    +0.235 C 
ATOM     13  C   UNL     1      -3.491 -13.071  14.049  0.00  0.00    +0.185 C 
ATOM     14  C   UNL     1      -1.753 -10.566  12.587  0.00  0.00    +0.207 C 
ENDROOT
BRANCH  11   6
ATOM      4  O   UNL     1      -3.558 -11.448  17.971  0.00  0.00    -0.270 OA
ATOM      6  N   UNL     1      -4.583 -12.027  15.973  0.00  0.00    -0.304 N 
ATOM     15  C   UNL     1      -4.567 -11.723  17.326  0.00  0.00    +0.244 C 
ATOM     35  H   UNL     1      -5.437 -12.356  15.534  0.00  0.00    +0.149 HD
BRANCH  15  17
ATOM     17  C   UNL     1      -5.881 -11.768  18.020  0.00  0.00    +0.037 A 
ATOM     18  C   UNL     1      -6.645 -12.912  17.925  0.00  0.00    +0.015 A 
ATOM     19  C   UNL     1      -6.294 -10.663  18.734  0.00  0.00    +0.015 A 
ATOM     21  C   UNL     1      -7.878 -12.954  18.576  0.00  0.00    +0.024 A 
ATOM     22  C   UNL     1      -7.528 -10.705  19.384  0.00  0.00    +0.024 A 
ATOM     23  C   UNL     1      -8.320 -11.850  19.304  0.00  0.00    +0.029 A 
BRANCH  23   8
ATOM      8  N   UNL     1      -9.568 -11.893  19.960  0.00  0.00    -0.336 N 
ATOM     32  C   UNL     1     -10.356 -10.686  20.117  0.00  0.00    +0.129 C 
ATOM     33  C   UNL     1     -10.086 -13.146  20.474  0.00  0.00    +0.129 C 
ENDBRANCH  23   8
ENDBRANCH  15  17
ENDBRANCH  11   6
BRANCH  12   3
ATOM      3  O   UNL     1      -3.366 -10.746  10.787  0.00  0.00    -0.442 OA
BRANCH   3  16
ATOM      5  O   UNL     1      -3.282  -8.838   9.530  0.00  0.00    -0.226 OA
ATOM      7  N   UNL     1      -5.129 -10.274   9.461  0.00  0.00    -0.251 N 
ATOM     16  C   UNL     1      -3.883  -9.847   9.878  0.00  0.00    +0.405 C 
ATOM     36  H   UNL     1      -5.433 -11.144   9.883  0.00  0.00    +0.158 HD
BRANCH   7  20
ATOM     20  C   UNL     1      -6.000  -9.650   8.539  0.00  0.00    +0.044 A 
ATOM     24  C   UNL     1      -6.071 -10.071   7.208  0.00  0.00    +0.003 A 
ATOM     25  C   UNL     1      -6.778  -8.602   9.015  0.00  0.00    +0.024 A 
ATOM     26  C   UNL     1      -6.961  -9.408   6.330  0.00  0.00    -0.016 A 
ATOM     27  C   UNL     1      -5.286 -11.129   6.721  0.00  0.00    +0.010 A 
ATOM     28  C   UNL     1      -7.654  -7.950   8.151  0.00  0.00    +0.002 A 
ATOM     29  C   UNL     1      -7.746  -8.350   6.817  0.00  0.00    +0.008 A 
ATOM     30  C   UNL     1      -7.040  -9.823   4.991  0.00  0.00    +0.008 A 
ATOM     31  C   UNL     1      -5.378 -11.527   5.387  0.00  0.00    +0.001 A 
ATOM     34  C   UNL     1      -6.253 -10.875   4.524  0.00  0.00    +0.001 A 
ENDBRANCH   7  20
ENDBRANCH   3  16
ENDBRANCH  12   3
TORSDOF 6
ENDMDL
