REMARK  Name = 11883409
REMARK  11 active torsions:
REMARK  status: ('A' for Active; 'I' for Inactive)
REMARK    1  A    between atoms: S_1  and  N_13
REMARK    2  A    between atoms: S_1  and  C_21
REMARK    3  A    between atoms: O_7  and  C_18
REMARK    4  A    between atoms: O_7  and  C_22
REMARK    5  A    between atoms: O_11  and  C_23
REMARK    6  A    between atoms: O_11  and  C_31
REMARK    7  A    between atoms: O_12  and  C_25
REMARK    8  A    between atoms: O_12  and  C_35
REMARK    9  A    between atoms: N_13  and  C_17
REMARK   10  A    between atoms: N_14  and  C_27
REMARK   11  A    between atoms: C_32  and  C_36
REMARK                            x       y       z     vdW  Elec       q    Type
REMARK                         _______ _______ _______ _____ _____    ______ ____
ROOT
ATOM      5  O   UNL     1       0.161   1.111  -1.181  0.00  0.00    -0.369 OA
ATOM      6  O   UNL     1       1.736   1.220   1.459  0.00  0.00    -0.368 OA
ATOM     15  C   UNL     1       1.797   0.310   0.341  0.00  0.00    +0.171 C 
ATOM     16  C   UNL     1       0.376   0.127  -0.155  0.00  0.00    +0.191 C 
ATOM     17  C   UNL     1       2.505   0.966  -0.818  0.00  0.00    +0.133 C 
ATOM     18  C   UNL     1      -0.443   0.419   1.080  0.00  0.00    +0.235 C 
ATOM     19  C   UNL     1       1.401   1.771  -1.475  0.00  0.00    +0.183 C 
ATOM     20  C   UNL     1       0.361   1.515   1.743  0.00  0.00    +0.207 C 
ENDROOT
BRANCH  17  13
ATOM     13  N   UNL     1       3.001  -0.066  -1.759  0.00  0.00    -0.182 NA
ATOM     37  H   UNL     1       2.399  -0.880  -1.935  0.00  0.00    +0.148 HD
BRANCH  13   1
ATOM      1  S   UNL     1       4.642  -0.096  -2.192  0.00  0.00    +0.062 S 
ATOM      8  O   UNL     1       5.032   1.206  -2.699  0.00  0.00    -0.153 OA
ATOM      9  O   UNL     1       4.897  -1.290  -2.976  0.00  0.00    -0.153 OA
BRANCH   1  21
ATOM     21  C   UNL     1       5.429  -0.329  -0.627  0.00  0.00    +0.150 A 
ATOM     23  C   UNL     1       5.325  -1.543   0.053  0.00  0.00    +0.147 A 
ATOM     24  C   UNL     1       6.161   0.720  -0.072  0.00  0.00    +0.077 A 
ATOM     25  C   UNL     1       6.790   0.556   1.162  0.00  0.00    +0.122 A 
ATOM     26  C   UNL     1       5.954  -1.707   1.287  0.00  0.00    +0.051 A 
ATOM     28  C   UNL     1       6.686  -0.657   1.842  0.00  0.00    +0.049 A 
BRANCH  23  11
ATOM     11  O   UNL     1       4.615  -2.582  -0.470  0.00  0.00    -0.493 OA
ATOM     31  C   UNL     1       4.565  -3.783   0.296  0.00  0.00    +0.277 C 
ENDBRANCH  23  11
BRANCH  25  12
ATOM     12  O   UNL     1       7.505   1.580   1.704  0.00  0.00    -0.495 OA
ATOM     35  C   UNL     1       7.570   2.793   0.956  0.00  0.00    +0.277 C 
ENDBRANCH  25  12
ENDBRANCH   1  21
ENDBRANCH  13   1
ENDBRANCH  17  13
BRANCH  18   7
ATOM      7  O   UNL     1      -1.762   0.826   0.797  0.00  0.00    -0.442 OA
BRANCH   7  22
ATOM     10  O   UNL     1      -2.472  -1.341   0.971  0.00  0.00    -0.226 OA
ATOM     14  N   UNL     1      -3.955   0.403   0.479  0.00  0.00    -0.251 N 
ATOM     22  C   UNL     1      -2.726  -0.160   0.766  0.00  0.00    +0.405 C 
ATOM     38  H   UNL     1      -3.966   1.410   0.339  0.00  0.00    +0.158 HD
BRANCH  14  27
ATOM     27  C   UNL     1      -5.203  -0.249   0.353  0.00  0.00    +0.037 A 
ATOM     29  C   UNL     1      -6.349   0.488   0.056  0.00  0.00    +0.035 A 
ATOM     30  C   UNL     1      -5.288  -1.631   0.527  0.00  0.00    +0.023 A 
ATOM     32  C   UNL     1      -7.580  -0.156  -0.067  0.00  0.00    +0.057 A 
ATOM     33  C   UNL     1      -6.519  -2.275   0.403  0.00  0.00    +0.002 A 
ATOM     34  C   UNL     1      -7.665  -1.537   0.106  0.00  0.00    +0.012 A 
BRANCH  32  36
ATOM      2  F   UNL     1      -9.937  -0.127  -0.474  0.00  0.00    -0.166 F 
ATOM      3  F   UNL     1      -9.094   1.592   0.544  0.00  0.00    -0.166 F 
ATOM      4  F   UNL     1      -8.712   1.293  -1.575  0.00  0.00    -0.166 F 
ATOM     36  C   UNL     1      -8.805   0.633  -0.384  0.00  0.00    +0.417 C 
ENDBRANCH  32  36
ENDBRANCH  14  27
ENDBRANCH   7  22
ENDBRANCH  18   7
TORSDOF 9
