MODEL 1
REMARK VINA RESULT:      -7.1      0.000      0.000
REMARK  Name = 51138037
REMARK  10 active torsions:
REMARK  status: ('A' for Active; 'I' for Inactive)
REMARK    1  A    between atoms: N_4  and  C_21
REMARK    2  A    between atoms: N_5  and  C_25
REMARK    3  A    between atoms: N_6  and  C_26
REMARK    4  A    between atoms: C_8  and  C_14
REMARK    5  A    between atoms: C_9  and  C_19
REMARK    6  A    between atoms: C_14  and  C_16
REMARK    7  A    between atoms: C_16  and  C_23
REMARK    8  A    between atoms: C_16  and  C_24
REMARK    9  A    between atoms: C_21  and  C_27
REMARK   10  A    between atoms: C_25  and  C_26
REMARK                            x       y       z     vdW  Elec       q    Type
REMARK                         _______ _______ _______ _____ _____    ______ ____
ROOT
ATOM      3  N   UNL     1      19.830   7.862  21.270  0.00  0.00    -0.299 NA
ATOM      4  N   UNL     1      15.153   7.636  19.381  0.00  0.00    -0.342 N 
ATOM      8  C   UNL     1      19.058   8.877  21.999  0.00  0.00    +0.085 C 
ATOM      9  C   UNL     1      19.282   6.515  21.341  0.00  0.00    +0.145 C 
ATOM     10  C   UNL     1      17.640   9.136  21.481  0.00  0.00    -0.021 A 
ATOM     11  C   UNL     1      16.913   8.273  20.612  0.00  0.00    +0.008 A 
ATOM     12  C   UNL     1      18.439   6.188  20.110  0.00  0.00    +0.065 C 
ATOM     13  C   UNL     1      17.196   7.006  19.994  0.00  0.00    -0.020 A 
ATOM     15  C   UNL     1      15.614   8.621  20.223  0.00  0.00    +0.050 A 
ATOM     17  C   UNL     1      16.093   6.659  19.242  0.00  0.00    +0.091 A 
ATOM     18  C   UNL     1      16.945  10.281  21.950  0.00  0.00    +0.006 A 
ATOM     20  C   UNL     1      14.963   9.777  20.659  0.00  0.00    +0.026 A 
ATOM     22  C   UNL     1      15.651  10.598  21.544  0.00  0.00    +0.002 A 
ATOM     36  H   UNL     1      19.986   8.146  20.305  0.00  0.00    +0.123 HD
ENDROOT
BRANCH   9  19
ATOM      1  O   UNL     1      20.785   4.910  20.411  0.00  0.00    -0.274 OA
ATOM      5  N   UNL     1      21.130   5.647  22.592  0.00  0.00    -0.313 N 
ATOM     19  C   UNL     1      20.474   5.607  21.373  0.00  0.00    +0.230 C 
ATOM     37  H   UNL     1      20.795   6.273  23.319  0.00  0.00    +0.149 HD
BRANCH   5  25
ATOM     25  C   UNL     1      22.296   4.847  22.889  0.00  0.00    +0.119 C 
BRANCH  25  26
ATOM     26  C   UNL     1      23.565   5.514  22.380  0.00  0.00    +0.103 C 
BRANCH  26   6
ATOM      2  O   UNL     1      24.787   2.854  19.372  0.00  0.00    -0.377 OA
ATOM      6  N   UNL     1      24.363   4.563  21.608  0.00  0.00    -0.297 NA
ATOM     28  C   UNL     1      24.673   5.103  20.276  0.00  0.00    +0.112 C 
ATOM     29  C   UNL     1      23.663   3.277  21.480  0.00  0.00    +0.112 C 
ATOM     30  C   UNL     1      25.495   4.089  19.486  0.00  0.00    +0.175 C 
ATOM     31  C   UNL     1      24.510   2.307  20.661  0.00  0.00    +0.175 C 
ENDBRANCH  26   6
ENDBRANCH  25  26
ENDBRANCH   5  25
ENDBRANCH   9  19
BRANCH   8  14
ATOM     14  C   UNL     1      19.939  10.138  21.960  0.00  0.00    +0.026 C 
BRANCH  14  16
ATOM     16  C   UNL     1      20.391  10.509  20.544  0.00  0.00    -0.015 C 
ATOM     23  C   UNL     1      19.744  11.798  20.037  0.00  0.00    +0.007 C 
ATOM     24  C   UNL     1      21.916  10.652  20.522  0.00  0.00    +0.007 C 
ENDBRANCH  14  16
ENDBRANCH   8  14
BRANCH   4  21
ATOM     21  C   UNL     1      13.854   7.612  18.744  0.00  0.00    +0.157 C 
BRANCH  21  27
ATOM      7  N   UNL     1      10.590   7.324  21.533  0.00  0.00    -0.263 NA
ATOM     27  C   UNL     1      12.709   7.512  19.721  0.00  0.00    -0.025 A 
ATOM     32  C   UNL     1      11.723   8.492  19.745  0.00  0.00    +0.025 A 
ATOM     33  C   UNL     1      12.636   6.437  20.600  0.00  0.00    +0.025 A 
ATOM     34  C   UNL     1      10.694   8.352  20.662  0.00  0.00    +0.111 A 
ATOM     35  C   UNL     1      11.565   6.390  21.479  0.00  0.00    +0.111 A 
ENDBRANCH  21  27
ENDBRANCH   4  21
TORSDOF 8
ENDMDL
MODEL 2
REMARK VINA RESULT:      -7.1      1.890      2.646
REMARK  Name = 51138037
REMARK  10 active torsions:
REMARK  status: ('A' for Active; 'I' for Inactive)
REMARK    1  A    between atoms: N_4  and  C_21
REMARK    2  A    between atoms: N_5  and  C_25
REMARK    3  A    between atoms: N_6  and  C_26
REMARK    4  A    between atoms: C_8  and  C_14
REMARK    5  A    between atoms: C_9  and  C_19
REMARK    6  A    between atoms: C_14  and  C_16
REMARK    7  A    between atoms: C_16  and  C_23
REMARK    8  A    between atoms: C_16  and  C_24
REMARK    9  A    between atoms: C_21  and  C_27
REMARK   10  A    between atoms: C_25  and  C_26
REMARK                            x       y       z     vdW  Elec       q    Type
REMARK                         _______ _______ _______ _____ _____    ______ ____
ROOT
ATOM      3  N   UNL     1      19.120   8.397  21.471  0.00  0.00    -0.299 NA
ATOM      4  N   UNL     1      14.511   7.389  19.670  0.00  0.00    -0.342 N 
ATOM      8  C   UNL     1      18.226   9.385  22.090  0.00  0.00    +0.085 C 
ATOM      9  C   UNL     1      18.741   7.010  21.697  0.00  0.00    +0.145 C 
ATOM     10  C   UNL     1      16.788   9.409  21.562  0.00  0.00    -0.021 A 
ATOM     11  C   UNL     1      16.175   8.371  20.802  0.00  0.00    +0.008 A 
ATOM     12  C   UNL     1      17.948   6.445  20.520  0.00  0.00    +0.065 C 
ATOM     13  C   UNL     1      16.614   7.087  20.326  0.00  0.00    -0.020 A 
ATOM     15  C   UNL     1      14.845   8.512  20.391  0.00  0.00    +0.050 A 
ATOM     17  C   UNL     1      15.564   6.525  19.630  0.00  0.00    +0.091 A 
ATOM     18  C   UNL     1      15.956  10.505  21.908  0.00  0.00    +0.006 A 
ATOM     20  C   UNL     1      14.056   9.620  20.703  0.00  0.00    +0.026 A 
ATOM     22  C   UNL     1      14.634  10.613  21.483  0.00  0.00    +0.002 A 
ATOM     36  H   UNL     1      19.242   8.588  20.478  0.00  0.00    +0.123 HD
ENDROOT
BRANCH   9  19
ATOM      1  O   UNL     1      20.573   6.069  22.905  0.00  0.00    -0.274 OA
ATOM      5  N   UNL     1      20.527   5.863  20.587  0.00  0.00    -0.313 N 
ATOM     19  C   UNL     1      20.035   6.264  21.818  0.00  0.00    +0.230 C 
ATOM     37  H   UNL     1      19.992   6.064  19.747  0.00  0.00    +0.149 HD
BRANCH   5  25
ATOM     25  C   UNL     1      21.771   5.147  20.428  0.00  0.00    +0.119 C 
BRANCH  25  26
ATOM     26  C   UNL     1      21.642   3.707  20.901  0.00  0.00    +0.103 C 
BRANCH  26   6
ATOM      2  O   UNL     1      24.453   1.363  22.954  0.00  0.00    -0.377 OA
ATOM      6  N   UNL     1      22.865   3.284  21.581  0.00  0.00    -0.297 NA
ATOM     28  C   UNL     1      23.493   2.160  20.873  0.00  0.00    +0.112 C 
ATOM     29  C   UNL     1      22.583   2.909  22.974  0.00  0.00    +0.112 C 
ATOM     30  C   UNL     1      24.759   1.728  21.608  0.00  0.00    +0.175 C 
ATOM     31  C   UNL     1      23.872   2.460  23.659  0.00  0.00    +0.175 C 
ENDBRANCH  26   6
ENDBRANCH  25  26
ENDBRANCH   5  25
ENDBRANCH   9  19
BRANCH   8  14
ATOM     14  C   UNL     1      18.946  10.732  21.902  0.00  0.00    +0.026 C 
BRANCH  14  16
ATOM     16  C   UNL     1      19.372  10.985  20.451  0.00  0.00    -0.015 C 
ATOM     23  C   UNL     1      18.556  12.091  19.781  0.00  0.00    +0.007 C 
ATOM     24  C   UNL     1      20.859  11.347  20.418  0.00  0.00    +0.007 C 
ENDBRANCH  14  16
ENDBRANCH   8  14
BRANCH   4  21
ATOM     21  C   UNL     1      13.227   7.135  19.053  0.00  0.00    +0.157 C 
BRANCH  21  27
ATOM      7  N   UNL     1      12.639   9.297  15.379  0.00  0.00    -0.263 NA
ATOM     27  C   UNL     1      13.021   7.893  17.765  0.00  0.00    -0.025 A 
ATOM     32  C   UNL     1      14.084   8.082  16.889  0.00  0.00    +0.025 A 
ATOM     33  C   UNL     1      11.767   8.404  17.448  0.00  0.00    +0.025 A 
ATOM     34  C   UNL     1      13.843   8.785  15.719  0.00  0.00    +0.111 A 
ATOM     35  C   UNL     1      11.630   9.093  16.254  0.00  0.00    +0.111 A 
ENDBRANCH  21  27
ENDBRANCH   4  21
TORSDOF 8
ENDMDL
MODEL 3
REMARK VINA RESULT:      -7.0      2.789      4.918
REMARK  Name = 51138037
REMARK  10 active torsions:
REMARK  status: ('A' for Active; 'I' for Inactive)
REMARK    1  A    between atoms: N_4  and  C_21
REMARK    2  A    between atoms: N_5  and  C_25
REMARK    3  A    between atoms: N_6  and  C_26
REMARK    4  A    between atoms: C_8  and  C_14
REMARK    5  A    between atoms: C_9  and  C_19
REMARK    6  A    between atoms: C_14  and  C_16
REMARK    7  A    between atoms: C_16  and  C_23
REMARK    8  A    between atoms: C_16  and  C_24
REMARK    9  A    between atoms: C_21  and  C_27
REMARK   10  A    between atoms: C_25  and  C_26
REMARK                            x       y       z     vdW  Elec       q    Type
REMARK                         _______ _______ _______ _____ _____    ______ ____
ROOT
ATOM      3  N   UNL     1      19.212   8.755  22.505  0.00  0.00    -0.299 NA
ATOM      4  N   UNL     1      14.811   8.746  20.028  0.00  0.00    -0.342 N 
ATOM      8  C   UNL     1      19.340   7.721  21.470  0.00  0.00    +0.085 C 
ATOM      9  C   UNL     1      18.870  10.078  22.004  0.00  0.00    +0.145 C 
ATOM     10  C   UNL     1      18.063   7.392  20.692  0.00  0.00    -0.021 A 
ATOM     11  C   UNL     1      16.895   8.208  20.648  0.00  0.00    +0.008 A 
ATOM     12  C   UNL     1      17.370  10.347  22.107  0.00  0.00    +0.065 C 
ATOM     13  C   UNL     1      16.537   9.474  21.227  0.00  0.00    -0.020 A 
ATOM     15  C   UNL     1      15.796   7.797  19.884  0.00  0.00    +0.050 A 
ATOM     17  C   UNL     1      15.248   9.761  20.827  0.00  0.00    +0.091 A 
ATOM     18  C   UNL     1      18.042   6.228  19.881  0.00  0.00    +0.006 A 
ATOM     20  C   UNL     1      15.779   6.623  19.129  0.00  0.00    +0.026 A 
ATOM     22  C   UNL     1      16.932   5.848  19.131  0.00  0.00    +0.002 A 
ATOM     36  H   UNL     1      18.566   8.460  23.236  0.00  0.00    +0.123 HD
ENDROOT
BRANCH   9  19
ATOM      1  O   UNL     1      20.383  11.871  22.445  0.00  0.00    -0.274 OA
ATOM      5  N   UNL     1      19.301  10.843  24.232  0.00  0.00    -0.313 N 
ATOM     19  C   UNL     1      19.601  11.037  22.894  0.00  0.00    +0.230 C 
ATOM     37  H   UNL     1      18.625  10.132  24.493  0.00  0.00    +0.149 HD
BRANCH   5  25
ATOM     25  C   UNL     1      19.892  11.623  25.295  0.00  0.00    +0.119 C 
BRANCH  25  26
ATOM     26  C   UNL     1      20.608  10.732  26.298  0.00  0.00    +0.103 C 
BRANCH  26   6
ATOM      2  O   UNL     1      21.675   6.692  25.902  0.00  0.00    -0.377 OA
ATOM      6  N   UNL     1      20.714   9.369  25.781  0.00  0.00    -0.297 NA
ATOM     28  C   UNL     1      20.174   8.401  26.747  0.00  0.00    +0.112 C 
ATOM     29  C   UNL     1      22.111   9.038  25.465  0.00  0.00    +0.112 C 
ATOM     30  C   UNL     1      20.308   6.986  26.192  0.00  0.00    +0.175 C 
ATOM     31  C   UNL     1      22.198   7.608  24.940  0.00  0.00    +0.175 C 
ENDBRANCH  26   6
ENDBRANCH  25  26
ENDBRANCH   5  25
ENDBRANCH   9  19
BRANCH   8  14
ATOM     14  C   UNL     1      19.911   6.499  22.210  0.00  0.00    +0.026 C 
BRANCH  14  16
ATOM     16  C   UNL     1      21.248   6.021  21.632  0.00  0.00    -0.015 C 
ATOM     23  C   UNL     1      21.157   4.627  21.009  0.00  0.00    +0.007 C 
ATOM     24  C   UNL     1      21.732   7.025  20.583  0.00  0.00    +0.007 C 
ENDBRANCH  14  16
ENDBRANCH   8  14
BRANCH   4  21
ATOM     21  C   UNL     1      13.503   8.703  19.411  0.00  0.00    +0.157 C 
BRANCH  21  27
ATOM      7  N   UNL     1      10.417   7.284  22.054  0.00  0.00    -0.263 NA
ATOM     27  C   UNL     1      12.421   8.206  20.338  0.00  0.00    -0.025 A 
ATOM     32  C   UNL     1      11.563   9.108  20.957  0.00  0.00    +0.025 A 
ATOM     33  C   UNL     1      12.277   6.844  20.575  0.00  0.00    +0.025 A 
ATOM     34  C   UNL     1      10.587   8.600  21.799  0.00  0.00    +0.111 A 
ATOM     35  C   UNL     1      11.269   6.437  21.434  0.00  0.00    +0.111 A 
ENDBRANCH  21  27
ENDBRANCH   4  21
TORSDOF 8
ENDMDL
MODEL 4
REMARK VINA RESULT:      -7.0     29.106     32.418
REMARK  Name = 51138037
REMARK  10 active torsions:
REMARK  status: ('A' for Active; 'I' for Inactive)
REMARK    1  A    between atoms: N_4  and  C_21
REMARK    2  A    between atoms: N_5  and  C_25
REMARK    3  A    between atoms: N_6  and  C_26
REMARK    4  A    between atoms: C_8  and  C_14
REMARK    5  A    between atoms: C_9  and  C_19
REMARK    6  A    between atoms: C_14  and  C_16
REMARK    7  A    between atoms: C_16  and  C_23
REMARK    8  A    between atoms: C_16  and  C_24
REMARK    9  A    between atoms: C_21  and  C_27
REMARK   10  A    between atoms: C_25  and  C_26
REMARK                            x       y       z     vdW  Elec       q    Type
REMARK                         _______ _______ _______ _____ _____    ______ ____
ROOT
ATOM      3  N   UNL     1      -6.853 -11.035  16.202  0.00  0.00    -0.299 NA
ATOM      4  N   UNL     1      -4.027 -10.079  12.127  0.00  0.00    -0.342 N 
ATOM      8  C   UNL     1      -5.462 -11.039  16.672  0.00  0.00    +0.085 C 
ATOM      9  C   UNL     1      -7.264  -9.809  15.532  0.00  0.00    +0.145 C 
ATOM     10  C   UNL     1      -4.387 -10.954  15.584  0.00  0.00    -0.021 A 
ATOM     11  C   UNL     1      -4.612 -10.539  14.239  0.00  0.00    +0.008 A 
ATOM     12  C   UNL     1      -7.165  -9.938  14.014  0.00  0.00    +0.065 C 
ATOM     13  C   UNL     1      -5.769 -10.095  13.510  0.00  0.00    -0.020 A 
ATOM     15  C   UNL     1      -3.537 -10.491  13.344  0.00  0.00    +0.050 A 
ATOM     17  C   UNL     1      -5.365  -9.833  12.217  0.00  0.00    +0.091 A 
ATOM     18  C   UNL     1      -3.041 -11.229  15.936  0.00  0.00    +0.006 A 
ATOM     20  C   UNL     1      -2.226 -10.811  13.699  0.00  0.00    +0.026 A 
ATOM     22  C   UNL     1      -1.993 -11.171  15.020  0.00  0.00    +0.002 A 
ATOM     36  H   UNL     1      -7.045 -11.852  15.624  0.00  0.00    +0.123 HD
ENDROOT
BRANCH   9  19
ATOM      1  O   UNL     1      -9.324 -10.465  16.544  0.00  0.00    -0.274 OA
ATOM      5  N   UNL     1      -9.205  -8.408  15.461  0.00  0.00    -0.313 N 
ATOM     19  C   UNL     1      -8.700  -9.615  15.915  0.00  0.00    +0.230 C 
ATOM     37  H   UNL     1      -8.595  -7.768  14.961  0.00  0.00    +0.149 HD
BRANCH   5  25
ATOM     25  C   UNL     1     -10.571  -7.991  15.678  0.00  0.00    +0.119 C 
BRANCH  25  26
ATOM     26  C   UNL     1     -10.661  -6.486  15.884  0.00  0.00    +0.103 C 
BRANCH  26   6
ATOM      2  O   UNL     1     -14.368  -6.080  13.958  0.00  0.00    -0.377 OA
ATOM      6  N   UNL     1     -11.993  -6.003  15.525  0.00  0.00    -0.297 NA
ATOM     28  C   UNL     1     -12.996  -7.064  15.701  0.00  0.00    +0.112 C 
ATOM     29  C   UNL     1     -12.015  -5.514  14.140  0.00  0.00    +0.112 C 
ATOM     30  C   UNL     1     -14.375  -6.541  15.309  0.00  0.00    +0.175 C 
ATOM     31  C   UNL     1     -13.418  -5.028  13.786  0.00  0.00    +0.175 C 
ENDBRANCH  26   6
ENDBRANCH  25  26
ENDBRANCH   5  25
ENDBRANCH   9  19
BRANCH   8  14
ATOM     14  C   UNL     1      -5.342 -12.319  17.519  0.00  0.00    +0.026 C 
BRANCH  14  16
ATOM     16  C   UNL     1      -5.136 -12.031  19.011  0.00  0.00    -0.015 C 
ATOM     23  C   UNL     1      -3.669 -12.125  19.432  0.00  0.00    +0.007 C 
ATOM     24  C   UNL     1      -5.678 -10.636  19.335  0.00  0.00    +0.007 C 
ENDBRANCH  14  16
ENDBRANCH   8  14
BRANCH   4  21
ATOM     21  C   UNL     1      -3.248  -9.906  10.920  0.00  0.00    +0.157 C 
BRANCH  21  27
ATOM      7  N   UNL     1      -5.299 -11.198   7.364  0.00  0.00    -0.263 NA
ATOM     27  C   UNL     1      -3.967 -10.360   9.673  0.00  0.00    -0.025 A 
ATOM     32  C   UNL     1      -4.100 -11.716   9.399  0.00  0.00    +0.025 A 
ATOM     33  C   UNL     1      -4.500  -9.423   8.796  0.00  0.00    +0.025 A 
ATOM     34  C   UNL     1      -4.769 -12.080   8.241  0.00  0.00    +0.111 A 
ATOM     35  C   UNL     1      -5.150  -9.889   7.665  0.00  0.00    +0.111 A 
ENDBRANCH  21  27
ENDBRANCH   4  21
TORSDOF 8
ENDMDL
MODEL 5
REMARK VINA RESULT:      -6.9      3.384      6.971
REMARK  Name = 51138037
REMARK  10 active torsions:
REMARK  status: ('A' for Active; 'I' for Inactive)
REMARK    1  A    between atoms: N_4  and  C_21
REMARK    2  A    between atoms: N_5  and  C_25
REMARK    3  A    between atoms: N_6  and  C_26
REMARK    4  A    between atoms: C_8  and  C_14
REMARK    5  A    between atoms: C_9  and  C_19
REMARK    6  A    between atoms: C_14  and  C_16
REMARK    7  A    between atoms: C_16  and  C_23
REMARK    8  A    between atoms: C_16  and  C_24
REMARK    9  A    between atoms: C_21  and  C_27
REMARK   10  A    between atoms: C_25  and  C_26
REMARK                            x       y       z     vdW  Elec       q    Type
REMARK                         _______ _______ _______ _____ _____    ______ ____
ROOT
ATOM      3  N   UNL     1      19.351   8.569  22.877  0.00  0.00    -0.299 NA
ATOM      4  N   UNL     1      15.426   8.291  19.711  0.00  0.00    -0.342 N 
ATOM      8  C   UNL     1      19.685   7.505  21.922  0.00  0.00    +0.085 C 
ATOM      9  C   UNL     1      19.052   9.858  22.271  0.00  0.00    +0.145 C 
ATOM     10  C   UNL     1      18.567   7.096  20.958  0.00  0.00    -0.021 A 
ATOM     11  C   UNL     1      17.395   7.861  20.688  0.00  0.00    +0.008 A 
ATOM     12  C   UNL     1      17.547  10.069  22.114  0.00  0.00    +0.065 C 
ATOM     13  C   UNL     1      16.903   9.132  21.147  0.00  0.00    -0.020 A 
ATOM     15  C   UNL     1      16.454   7.379  19.772  0.00  0.00    +0.050 A 
ATOM     17  C   UNL     1      15.689   9.350  20.528  0.00  0.00    +0.091 A 
ATOM     18  C   UNL     1      18.722   5.903  20.205  0.00  0.00    +0.006 A 
ATOM     20  C   UNL     1      16.602   6.178  19.075  0.00  0.00    +0.026 A 
ATOM     22  C   UNL     1      17.765   5.452  19.299  0.00  0.00    +0.002 A 
ATOM     36  H   UNL     1      18.603   8.274  23.504  0.00  0.00    +0.123 HD
ENDROOT
BRANCH   9  19
ATOM      1  O   UNL     1      20.772  10.887  23.567  0.00  0.00    -0.274 OA
ATOM      5  N   UNL     1      18.613  11.751  23.671  0.00  0.00    -0.313 N 
ATOM     19  C   UNL     1      19.592  10.877  23.228  0.00  0.00    +0.230 C 
ATOM     37  H   UNL     1      17.666  11.663  23.312  0.00  0.00    +0.149 HD
BRANCH   5  25
ATOM     25  C   UNL     1      18.870  12.812  24.617  0.00  0.00    +0.119 C 
BRANCH  25  26
ATOM     26  C   UNL     1      17.574  13.451  25.093  0.00  0.00    +0.103 C 
BRANCH  26   6
ATOM      2  O   UNL     1      14.225  11.559  26.773  0.00  0.00    -0.377 OA
ATOM      6  N   UNL     1      16.617  12.421  25.494  0.00  0.00    -0.297 NA
ATOM     28  C   UNL     1      15.295  12.679  24.905  0.00  0.00    +0.112 C 
ATOM     29  C   UNL     1      16.512  12.349  26.958  0.00  0.00    +0.112 C 
ATOM     30  C   UNL     1      14.312  11.599  25.348  0.00  0.00    +0.175 C 
ATOM     31  C   UNL     1      15.500  11.277  27.352  0.00  0.00    +0.175 C 
ENDBRANCH  26   6
ENDBRANCH  25  26
ENDBRANCH   5  25
ENDBRANCH   9  19
BRANCH   8  14
ATOM     14  C   UNL     1      20.167   6.333  22.796  0.00  0.00    +0.026 C 
BRANCH  14  16
ATOM     16  C   UNL     1      21.662   6.040  22.632  0.00  0.00    -0.015 C 
ATOM     23  C   UNL     1      21.956   4.548  22.470  0.00  0.00    +0.007 C 
ATOM     24  C   UNL     1      22.196   6.807  21.419  0.00  0.00    +0.007 C 
ENDBRANCH  14  16
ENDBRANCH   8  14
BRANCH   4  21
ATOM     21  C   UNL     1      14.241   8.172  18.890  0.00  0.00    +0.157 C 
BRANCH  21  27
ATOM      7  N   UNL     1      10.675   7.344  21.152  0.00  0.00    -0.263 NA
ATOM     27  C   UNL     1      12.990   7.882  19.683  0.00  0.00    -0.025 A 
ATOM     32  C   UNL     1      11.911   8.758  19.630  0.00  0.00    +0.025 A 
ATOM     33  C   UNL     1      12.912   6.738  20.468  0.00  0.00    +0.025 A 
ATOM     34  C   UNL     1      10.787   8.446  20.377  0.00  0.00    +0.111 A 
ATOM     35  C   UNL     1      11.743   6.516  21.177  0.00  0.00    +0.111 A 
ENDBRANCH  21  27
ENDBRANCH   4  21
TORSDOF 8
ENDMDL
MODEL 6
REMARK VINA RESULT:      -6.8     32.667     35.422
REMARK  Name = 51138037
REMARK  10 active torsions:
REMARK  status: ('A' for Active; 'I' for Inactive)
REMARK    1  A    between atoms: N_4  and  C_21
REMARK    2  A    between atoms: N_5  and  C_25
REMARK    3  A    between atoms: N_6  and  C_26
REMARK    4  A    between atoms: C_8  and  C_14
REMARK    5  A    between atoms: C_9  and  C_19
REMARK    6  A    between atoms: C_14  and  C_16
REMARK    7  A    between atoms: C_16  and  C_23
REMARK    8  A    between atoms: C_16  and  C_24
REMARK    9  A    between atoms: C_21  and  C_27
REMARK   10  A    between atoms: C_25  and  C_26
REMARK                            x       y       z     vdW  Elec       q    Type
REMARK                         _______ _______ _______ _____ _____    ______ ____
ROOT
ATOM      3  N   UNL     1     -15.485   2.995  28.860  0.00  0.00    -0.299 NA
ATOM      4  N   UNL     1     -15.483   6.626  32.370  0.00  0.00    -0.342 N 
ATOM      8  C   UNL     1     -15.256   2.311  30.140  0.00  0.00    +0.085 C 
ATOM      9  C   UNL     1     -16.698   3.798  28.810  0.00  0.00    +0.145 C 
ATOM     10  C   UNL     1     -15.028   3.219  31.352  0.00  0.00    -0.021 A 
ATOM     11  C   UNL     1     -15.349   4.606  31.410  0.00  0.00    +0.008 A 
ATOM     12  C   UNL     1     -16.408   5.270  29.093  0.00  0.00    +0.065 C 
ATOM     13  C   UNL     1     -15.937   5.536  30.484  0.00  0.00    -0.020 A 
ATOM     15  C   UNL     1     -15.102   5.322  32.587  0.00  0.00    +0.050 A 
ATOM     17  C   UNL     1     -15.992   6.764  31.112  0.00  0.00    +0.091 A 
ATOM     18  C   UNL     1     -14.531   2.642  32.549  0.00  0.00    +0.006 A 
ATOM     20  C   UNL     1     -14.569   4.745  33.741  0.00  0.00    +0.026 A 
ATOM     22  C   UNL     1     -14.298   3.383  33.705  0.00  0.00    +0.002 A 
ATOM     36  H   UNL     1     -14.670   3.541  28.588  0.00  0.00    +0.123 HD
ENDROOT
BRANCH   9  19
ATOM      1  O   UNL     1     -18.185   2.975  27.133  0.00  0.00    -0.274 OA
ATOM      5  N   UNL     1     -16.427   4.364  26.498  0.00  0.00    -0.313 N 
ATOM     19  C   UNL     1     -17.202   3.660  27.405  0.00  0.00    +0.230 C 
ATOM     37  H   UNL     1     -15.642   4.913  26.834  0.00  0.00    +0.149 HD
BRANCH   5  25
ATOM     25  C   UNL     1     -16.688   4.376  25.077  0.00  0.00    +0.119 C 
BRANCH  25  26
ATOM     26  C   UNL     1     -15.714   3.476  24.331  0.00  0.00    +0.103 C 
BRANCH  26   6
ATOM      2  O   UNL     1     -14.832   6.364  21.416  0.00  0.00    -0.377 OA
ATOM      6  N   UNL     1     -15.310   4.098  23.072  0.00  0.00    -0.297 NA
ATOM     28  C   UNL     1     -14.136   4.960  23.270  0.00  0.00    +0.112 C 
ATOM     29  C   UNL     1     -16.416   4.878  22.498  0.00  0.00    +0.112 C 
ATOM     30  C   UNL     1     -13.742   5.608  21.946  0.00  0.00    +0.175 C 
ATOM     31  C   UNL     1     -15.967   5.527  21.192  0.00  0.00    +0.175 C 
ENDBRANCH  26   6
ENDBRANCH  25  26
ENDBRANCH   5  25
ENDBRANCH   9  19
BRANCH   8  14
ATOM     14  C   UNL     1     -14.064   1.375  29.873  0.00  0.00    +0.026 C 
BRANCH  14  16
ATOM     16  C   UNL     1     -14.483  -0.088  29.687  0.00  0.00    -0.015 C 
ATOM     23  C   UNL     1     -13.292  -1.016  29.442  0.00  0.00    +0.007 C 
ATOM     24  C   UNL     1     -15.254  -0.553  30.926  0.00  0.00    +0.007 C 
ENDBRANCH  14  16
ENDBRANCH   8  14
BRANCH   4  21
ATOM     21  C   UNL     1     -15.386   7.703  33.331  0.00  0.00    +0.157 C 
BRANCH  21  27
ATOM      7  N   UNL     1     -11.433   9.376  33.628  0.00  0.00    -0.263 NA
ATOM     27  C   UNL     1     -14.000   8.290  33.435  0.00  0.00    -0.025 A 
ATOM     32  C   UNL     1     -13.240   8.493  32.288  0.00  0.00    +0.025 A 
ATOM     33  C   UNL     1     -13.478   8.631  34.677  0.00  0.00    +0.025 A 
ATOM     34  C   UNL     1     -11.974   9.034  32.438  0.00  0.00    +0.111 A 
ATOM     35  C   UNL     1     -12.201   9.165  34.720  0.00  0.00    +0.111 A 
ENDBRANCH  21  27
ENDBRANCH   4  21
TORSDOF 8
ENDMDL
MODEL 7
REMARK VINA RESULT:      -6.8     29.157     32.989
REMARK  Name = 51138037
REMARK  10 active torsions:
REMARK  status: ('A' for Active; 'I' for Inactive)
REMARK    1  A    between atoms: N_4  and  C_21
REMARK    2  A    between atoms: N_5  and  C_25
REMARK    3  A    between atoms: N_6  and  C_26
REMARK    4  A    between atoms: C_8  and  C_14
REMARK    5  A    between atoms: C_9  and  C_19
REMARK    6  A    between atoms: C_14  and  C_16
REMARK    7  A    between atoms: C_16  and  C_23
REMARK    8  A    between atoms: C_16  and  C_24
REMARK    9  A    between atoms: C_21  and  C_27
REMARK   10  A    between atoms: C_25  and  C_26
REMARK                            x       y       z     vdW  Elec       q    Type
REMARK                         _______ _______ _______ _____ _____    ______ ____
ROOT
ATOM      3  N   UNL     1      -9.016 -10.367  17.823  0.00  0.00    -0.299 NA
ATOM      4  N   UNL     1      -4.198 -10.501  16.317  0.00  0.00    -0.342 N 
ATOM      8  C   UNL     1      -8.231 -10.672  19.027  0.00  0.00    +0.085 C 
ATOM      9  C   UNL     1      -8.627  -9.141  17.140  0.00  0.00    +0.145 C 
ATOM     10  C   UNL     1      -6.742 -10.950  18.801  0.00  0.00    -0.021 A 
ATOM     11  C   UNL     1      -6.013 -10.613  17.624  0.00  0.00    +0.008 A 
ATOM     12  C   UNL     1      -7.684  -9.425  15.973  0.00  0.00    +0.065 C 
ATOM     13  C   UNL     1      -6.355  -9.965  16.387  0.00  0.00    -0.020 A 
ATOM     15  C   UNL     1      -4.647 -10.911  17.550  0.00  0.00    +0.050 A 
ATOM     17  C   UNL     1      -5.214  -9.926  15.613  0.00  0.00    +0.091 A 
ATOM     18  C   UNL     1      -5.989 -11.517  19.862  0.00  0.00    +0.006 A 
ATOM     20  C   UNL     1      -3.933 -11.512  18.588  0.00  0.00    +0.026 A 
ATOM     22  C   UNL     1      -4.629 -11.800  19.756  0.00  0.00    +0.002 A 
ATOM     36  H   UNL     1      -9.024 -11.159  17.183  0.00  0.00    +0.123 HD
ENDROOT
BRANCH   9  19
ATOM      1  O   UNL     1     -10.669  -9.224  15.905  0.00  0.00    -0.274 OA
ATOM      5  N   UNL     1     -10.083  -7.246  16.984  0.00  0.00    -0.313 N 
ATOM     19  C   UNL     1      -9.905  -8.567  16.607  0.00  0.00    +0.230 C 
ATOM     37  H   UNL     1      -9.393  -6.801  17.582  0.00  0.00    +0.149 HD
BRANCH   5  25
ATOM     25  C   UNL     1     -11.223  -6.456  16.582  0.00  0.00    +0.119 C 
BRANCH  25  26
ATOM     26  C   UNL     1     -11.004  -5.829  15.213  0.00  0.00    +0.103 C 
BRANCH  26   6
ATOM      2  O   UNL     1     -14.808  -5.197  13.555  0.00  0.00    -0.377 OA
ATOM      6  N   UNL     1     -12.201  -5.981  14.388  0.00  0.00    -0.297 NA
ATOM     28  C   UNL     1     -12.416  -4.787  13.557  0.00  0.00    +0.112 C 
ATOM     29  C   UNL     1     -13.383  -6.231  15.225  0.00  0.00    +0.112 C 
ATOM     30  C   UNL     1     -13.676  -4.963  12.715  0.00  0.00    +0.175 C 
ATOM     31  C   UNL     1     -14.620  -6.373  14.343  0.00  0.00    +0.175 C 
ENDBRANCH  26   6
ENDBRANCH  25  26
ENDBRANCH   5  25
ENDBRANCH   9  19
BRANCH   8  14
ATOM     14  C   UNL     1      -8.961 -11.861  19.676  0.00  0.00    +0.026 C 
BRANCH  14  16
ATOM     16  C   UNL     1      -9.542 -12.839  18.648  0.00  0.00    -0.015 C 
ATOM     23  C   UNL     1      -8.654 -14.066  18.435  0.00  0.00    +0.007 C 
ATOM     24  C   UNL     1     -10.935 -13.281  19.103  0.00  0.00    +0.007 C 
ENDBRANCH  14  16
ENDBRANCH   8  14
BRANCH   4  21
ATOM     21  C   UNL     1      -2.842 -10.633  15.828  0.00  0.00    +0.157 C 
BRANCH  21  27
ATOM      7  N   UNL     1      -2.584 -12.674  12.048  0.00  0.00    -0.263 NA
ATOM     27  C   UNL     1      -2.751 -11.348  14.502  0.00  0.00    -0.025 A 
ATOM     32  C   UNL     1      -2.300 -10.672  13.374  0.00  0.00    +0.025 A 
ATOM     33  C   UNL     1      -3.117 -12.686  14.405  0.00  0.00    +0.025 A 
ATOM     34  C   UNL     1      -2.236 -11.374  12.181  0.00  0.00    +0.111 A 
ATOM     35  C   UNL     1      -3.016 -13.297  13.166  0.00  0.00    +0.111 A 
ENDBRANCH  21  27
ENDBRANCH   4  21
TORSDOF 8
ENDMDL
MODEL 8
REMARK VINA RESULT:      -6.5     28.830     32.293
REMARK  Name = 51138037
REMARK  10 active torsions:
REMARK  status: ('A' for Active; 'I' for Inactive)
REMARK    1  A    between atoms: N_4  and  C_21
REMARK    2  A    between atoms: N_5  and  C_25
REMARK    3  A    between atoms: N_6  and  C_26
REMARK    4  A    between atoms: C_8  and  C_14
REMARK    5  A    between atoms: C_9  and  C_19
REMARK    6  A    between atoms: C_14  and  C_16
REMARK    7  A    between atoms: C_16  and  C_23
REMARK    8  A    between atoms: C_16  and  C_24
REMARK    9  A    between atoms: C_21  and  C_27
REMARK   10  A    between atoms: C_25  and  C_26
REMARK                            x       y       z     vdW  Elec       q    Type
REMARK                         _______ _______ _______ _____ _____    ______ ____
ROOT
ATOM      3  N   UNL     1      -6.632 -11.062  15.994  0.00  0.00    -0.299 NA
ATOM      4  N   UNL     1      -3.990 -10.265  11.764  0.00  0.00    -0.342 N 
ATOM      8  C   UNL     1      -5.255 -10.794  16.429  0.00  0.00    +0.085 C 
ATOM      9  C   UNL     1      -7.224 -10.015  15.174  0.00  0.00    +0.145 C 
ATOM     10  C   UNL     1      -4.208 -10.699  15.315  0.00  0.00    -0.021 A 
ATOM     11  C   UNL     1      -4.495 -10.511  13.933  0.00  0.00    +0.008 A 
ATOM     12  C   UNL     1      -7.110 -10.336  13.685  0.00  0.00    +0.065 C 
ATOM     13  C   UNL     1      -5.707 -10.350  13.176  0.00  0.00    -0.020 A 
ATOM     15  C   UNL     1      -3.441 -10.427  13.015  0.00  0.00    +0.050 A 
ATOM     17  C   UNL     1      -5.350 -10.211  11.851  0.00  0.00    +0.091 A 
ATOM     18  C   UNL     1      -2.835 -10.720  15.671  0.00  0.00    +0.006 A 
ATOM     20  C   UNL     1      -2.096 -10.497  13.380  0.00  0.00    +0.026 A 
ATOM     22  C   UNL     1      -1.809 -10.632  14.733  0.00  0.00    +0.002 A 
ATOM     36  H   UNL     1      -6.699 -11.970  15.537  0.00  0.00    +0.123 HD
ENDROOT
BRANCH   9  19
ATOM      1  O   UNL     1      -9.368 -10.999  15.541  0.00  0.00    -0.274 OA
ATOM      5  N   UNL     1      -9.100  -8.714  15.900  0.00  0.00    -0.313 N 
ATOM     19  C   UNL     1      -8.673  -9.987  15.559  0.00  0.00    +0.230 C 
ATOM     37  H   UNL     1      -8.434  -7.947  15.896  0.00  0.00    +0.149 HD
BRANCH   5  25
ATOM     25  C   UNL     1     -10.459  -8.414  16.288  0.00  0.00    +0.119 C 
BRANCH  25  26
ATOM     26  C   UNL     1     -10.614  -8.420  17.801  0.00  0.00    +0.103 C 
BRANCH  26   6
ATOM      2  O   UNL     1     -11.599 -11.632  20.316  0.00  0.00    -0.377 OA
ATOM      6  N   UNL     1     -11.010  -9.748  18.266  0.00  0.00    -0.297 NA
ATOM     28  C   UNL     1     -12.259  -9.679  19.037  0.00  0.00    +0.112 C 
ATOM     29  C   UNL     1      -9.948 -10.354  19.081  0.00  0.00    +0.112 C 
ATOM     30  C   UNL     1     -12.646 -11.073  19.522  0.00  0.00    +0.175 C 
ATOM     31  C   UNL     1     -10.389 -11.732  19.564  0.00  0.00    +0.175 C 
ENDBRANCH  26   6
ENDBRANCH  25  26
ENDBRANCH   5  25
ENDBRANCH   9  19
BRANCH   8  14
ATOM     14  C   UNL     1      -4.942 -11.912  17.439  0.00  0.00    +0.026 C 
BRANCH  14  16
ATOM     16  C   UNL     1      -4.689 -11.385  18.856  0.00  0.00    -0.015 C 
ATOM     23  C   UNL     1      -5.946 -11.407  19.726  0.00  0.00    +0.007 C 
ATOM     24  C   UNL     1      -3.588 -12.219  19.516  0.00  0.00    +0.007 C 
ENDBRANCH  14  16
ENDBRANCH   8  14
BRANCH   4  21
ATOM     21  C   UNL     1      -3.248 -10.145  10.528  0.00  0.00    +0.157 C 
BRANCH  21  27
ATOM      7  N   UNL     1      -5.551 -11.193   7.047  0.00  0.00    -0.263 NA
ATOM     27  C   UNL     1      -4.055 -10.513   9.308  0.00  0.00    -0.025 A 
ATOM     32  C   UNL     1      -4.222 -11.848   8.957  0.00  0.00    +0.025 A 
ATOM     33  C   UNL     1      -4.637  -9.518   8.530  0.00  0.00    +0.025 A 
ATOM     34  C   UNL     1      -4.972 -12.133   7.827  0.00  0.00    +0.111 A 
ATOM     35  C   UNL     1      -5.368  -9.907   7.420  0.00  0.00    +0.111 A 
ENDBRANCH  21  27
ENDBRANCH   4  21
TORSDOF 8
ENDMDL
MODEL 9
REMARK VINA RESULT:      -6.5     28.157     33.078
REMARK  Name = 51138037
REMARK  10 active torsions:
REMARK  status: ('A' for Active; 'I' for Inactive)
REMARK    1  A    between atoms: N_4  and  C_21
REMARK    2  A    between atoms: N_5  and  C_25
REMARK    3  A    between atoms: N_6  and  C_26
REMARK    4  A    between atoms: C_8  and  C_14
REMARK    5  A    between atoms: C_9  and  C_19
REMARK    6  A    between atoms: C_14  and  C_16
REMARK    7  A    between atoms: C_16  and  C_23
REMARK    8  A    between atoms: C_16  and  C_24
REMARK    9  A    between atoms: C_21  and  C_27
REMARK   10  A    between atoms: C_25  and  C_26
REMARK                            x       y       z     vdW  Elec       q    Type
REMARK                         _______ _______ _______ _____ _____    ______ ____
ROOT
ATOM      3  N   UNL     1     -10.378  -9.206  18.151  0.00  0.00    -0.299 NA
ATOM      4  N   UNL     1     -12.449  -5.935  14.909  0.00  0.00    -0.342 N 
ATOM      8  C   UNL     1     -11.779  -9.624  18.005  0.00  0.00    +0.085 C 
ATOM      9  C   UNL     1      -9.632  -9.135  16.903  0.00  0.00    +0.145 C 
ATOM     10  C   UNL     1     -12.679  -8.675  17.208  0.00  0.00    -0.021 A 
ATOM     11  C   UNL     1     -12.220  -7.644  16.339  0.00  0.00    +0.008 A 
ATOM     12  C   UNL     1      -9.588  -7.710  16.356  0.00  0.00    +0.065 C 
ATOM     13  C   UNL     1     -10.919  -7.182  15.935  0.00  0.00    -0.020 A 
ATOM     15  C   UNL     1     -13.151  -6.853  15.655  0.00  0.00    +0.050 A 
ATOM     17  C   UNL     1     -11.109  -6.128  15.065  0.00  0.00    +0.091 A 
ATOM     18  C   UNL     1     -14.084  -8.868  17.261  0.00  0.00    +0.006 A 
ATOM     20  C   UNL     1     -14.532  -7.029  15.757  0.00  0.00    +0.026 A 
ATOM     22  C   UNL     1     -14.984  -8.064  16.566  0.00  0.00    +0.002 A 
ATOM     36  H   UNL     1     -10.310  -8.333  18.671  0.00  0.00    +0.123 HD
ENDROOT
BRANCH   9  19
ATOM      1  O   UNL     1      -7.994 -10.191  18.281  0.00  0.00    -0.274 OA
ATOM      5  N   UNL     1      -7.314  -9.170  16.302  0.00  0.00    -0.313 N 
ATOM     19  C   UNL     1      -8.241  -9.569  17.251  0.00  0.00    +0.230 C 
ATOM     37  H   UNL     1      -7.630  -8.672  15.476  0.00  0.00    +0.149 HD
BRANCH   5  25
ATOM     25  C   UNL     1      -5.900  -9.444  16.414  0.00  0.00    +0.119 C 
BRANCH  25  26
ATOM     26  C   UNL     1      -5.488 -10.589  15.501  0.00  0.00    +0.103 C 
BRANCH  26   6
ATOM      2  O   UNL     1      -1.463 -11.665  14.991  0.00  0.00    -0.377 OA
ATOM      6  N   UNL     1      -4.058 -10.515  15.208  0.00  0.00    -0.297 NA
ATOM     28  C   UNL     1      -3.705 -11.413  14.099  0.00  0.00    +0.112 C 
ATOM     29  C   UNL     1      -3.263 -10.849  16.399  0.00  0.00    +0.112 C 
ATOM     30  C   UNL     1      -2.208 -11.328  13.820  0.00  0.00    +0.175 C 
ATOM     31  C   UNL     1      -1.776 -10.776  16.065  0.00  0.00    +0.175 C 
ENDBRANCH  26   6
ENDBRANCH  25  26
ENDBRANCH   5  25
ENDBRANCH   9  19
BRANCH   8  14
ATOM     14  C   UNL     1     -12.274  -9.833  19.448  0.00  0.00    +0.026 C 
BRANCH  14  16
ATOM     16  C   UNL     1     -12.585 -11.300  19.765  0.00  0.00    -0.015 C 
ATOM     23  C   UNL     1     -11.390 -12.038  20.372  0.00  0.00    +0.007 C 
ATOM     24  C   UNL     1     -13.776 -11.367  20.725  0.00  0.00    +0.007 C 
ENDBRANCH  14  16
ENDBRANCH   8  14
BRANCH   4  21
ATOM     21  C   UNL     1     -13.031  -4.919  14.059  0.00  0.00    +0.157 C 
BRANCH  21  27
ATOM      7  N   UNL     1     -11.792  -5.218   9.949  0.00  0.00    -0.263 NA
ATOM     27  C   UNL     1     -12.597  -5.023  12.618  0.00  0.00    -0.025 A 
ATOM     32  C   UNL     1     -12.163  -3.892  11.936  0.00  0.00    +0.025 A 
ATOM     33  C   UNL     1     -12.627  -6.252  11.968  0.00  0.00    +0.025 A 
ATOM     34  C   UNL     1     -11.775  -4.041  10.614  0.00  0.00    +0.111 A 
ATOM     35  C   UNL     1     -12.218  -6.295  10.645  0.00  0.00    +0.111 A 
ENDBRANCH  21  27
ENDBRANCH   4  21
TORSDOF 8
ENDMDL
MODEL 10
REMARK VINA RESULT:      -6.5     15.337     17.580
REMARK  Name = 51138037
REMARK  10 active torsions:
REMARK  status: ('A' for Active; 'I' for Inactive)
REMARK    1  A    between atoms: N_4  and  C_21
REMARK    2  A    between atoms: N_5  and  C_25
REMARK    3  A    between atoms: N_6  and  C_26
REMARK    4  A    between atoms: C_8  and  C_14
REMARK    5  A    between atoms: C_9  and  C_19
REMARK    6  A    between atoms: C_14  and  C_16
REMARK    7  A    between atoms: C_16  and  C_23
REMARK    8  A    between atoms: C_16  and  C_24
REMARK    9  A    between atoms: C_21  and  C_27
REMARK   10  A    between atoms: C_25  and  C_26
REMARK                            x       y       z     vdW  Elec       q    Type
REMARK                         _______ _______ _______ _____ _____    ______ ____
ROOT
ATOM      3  N   UNL     1      15.250   6.392   2.907  0.00  0.00    -0.299 NA
ATOM      4  N   UNL     1      10.837   7.040   5.274  0.00  0.00    -0.342 N 
ATOM      8  C   UNL     1      14.220   5.955   1.955  0.00  0.00    +0.085 C 
ATOM      9  C   UNL     1      15.091   7.755   3.392  0.00  0.00    +0.145 C 
ATOM     10  C   UNL     1      12.792   5.880   2.504  0.00  0.00    -0.021 A 
ATOM     11  C   UNL     1      12.340   6.501   3.704  0.00  0.00    +0.008 A 
ATOM     12  C   UNL     1      14.385   7.790   4.746  0.00  0.00    +0.065 C 
ATOM     13  C   UNL     1      12.967   7.326   4.701  0.00  0.00    -0.020 A 
ATOM     15  C   UNL     1      11.000   6.367   4.087  0.00  0.00    +0.050 A 
ATOM     17  C   UNL     1      12.010   7.625   5.649  0.00  0.00    +0.091 A 
ATOM     18  C   UNL     1      11.805   5.211   1.736  0.00  0.00    +0.006 A 
ATOM     20  C   UNL     1      10.053   5.664   3.340  0.00  0.00    +0.026 A 
ATOM     22  C   UNL     1      10.478   5.096   2.145  0.00  0.00    +0.002 A 
ATOM     36  H   UNL     1      15.335   5.733   3.680  0.00  0.00    +0.123 HD
ENDROOT
BRANCH   9  19
ATOM      1  O   UNL     1      17.346   8.109   2.694  0.00  0.00    -0.274 OA
ATOM      5  N   UNL     1      16.662   8.937   4.759  0.00  0.00    -0.313 N 
ATOM     19  C   UNL     1      16.485   8.281   3.553  0.00  0.00    +0.230 C 
ATOM     37  H   UNL     1      15.874   9.037   5.393  0.00  0.00    +0.149 HD
BRANCH   5  25
ATOM     25  C   UNL     1      17.921   9.517   5.167  0.00  0.00    +0.119 C 
BRANCH  25  26
ATOM     26  C   UNL     1      18.811   8.481   5.838  0.00  0.00    +0.103 C 
BRANCH  26   6
ATOM      2  O   UNL     1      22.610   7.156   4.641  0.00  0.00    -0.377 OA
ATOM      6  N   UNL     1      20.097   8.395   5.149  0.00  0.00    -0.297 NA
ATOM     28  C   UNL     1      20.196   7.142   4.386  0.00  0.00    +0.112 C 
ATOM     29  C   UNL     1      21.209   8.491   6.105  0.00  0.00    +0.112 C 
ATOM     30  C   UNL     1      21.550   7.068   3.686  0.00  0.00    +0.175 C 
ATOM     31  C   UNL     1      22.539   8.385   5.365  0.00  0.00    +0.175 C 
ENDBRANCH  26   6
ENDBRANCH  25  26
ENDBRANCH   5  25
ENDBRANCH   9  19
BRANCH   8  14
ATOM     14  C   UNL     1      14.724   4.597   1.434  0.00  0.00    +0.026 C 
BRANCH  14  16
ATOM     16  C   UNL     1      15.000   4.601  -0.074  0.00  0.00    -0.015 C 
ATOM     23  C   UNL     1      16.388   4.061  -0.420  0.00  0.00    +0.007 C 
ATOM     24  C   UNL     1      13.929   3.770  -0.785  0.00  0.00    +0.007 C 
ENDBRANCH  14  16
ENDBRANCH   8  14
BRANCH   4  21
ATOM     21  C   UNL     1       9.602   7.143   6.022  0.00  0.00    +0.157 C 
BRANCH  21  27
ATOM      7  N   UNL     1       9.351   4.359   9.294  0.00  0.00    -0.263 NA
ATOM     27  C   UNL     1       9.515   6.166   7.169  0.00  0.00    -0.025 A 
ATOM     32  C   UNL     1       9.894   4.841   6.988  0.00  0.00    +0.025 A 
ATOM     33  C   UNL     1       9.055   6.589   8.411  0.00  0.00    +0.025 A 
ATOM     34  C   UNL     1       9.794   3.985   8.073  0.00  0.00    +0.111 A 
ATOM     35  C   UNL     1       8.993   5.654   9.432  0.00  0.00    +0.111 A 
ENDBRANCH  21  27
ENDBRANCH   4  21
TORSDOF 8
ENDMDL
