MODEL 1
REMARK VINA RESULT:      -6.3      0.000      0.000
REMARK  Name = 75536514
REMARK  10 active torsions:
REMARK  status: ('A' for Active; 'I' for Inactive)
REMARK    1  A    between atoms: O_2  and  C_8
REMARK    2  A    between atoms: N_5  and  C_7
REMARK    3  A    between atoms: N_5  and  C_10
REMARK    4  A    between atoms: N_6  and  C_14
REMARK    5  A    between atoms: C_9  and  C_14
REMARK    6  A    between atoms: C_17  and  C_18
REMARK    7  A    between atoms: C_17  and  C_20
REMARK    8  A    between atoms: C_17  and  C_21
REMARK    9  A    between atoms: C_17  and  C_22
REMARK   10  A    between atoms: C_18  and  C_19
REMARK                            x       y       z     vdW  Elec       q    Type
REMARK                         _______ _______ _______ _____ _____    ______ ____
ROOT
ATOM      1  O   UNL     1      10.586   8.515  20.005  0.00  0.00    -0.371 OA
ATOM      7  C   UNL     1      12.399   7.136  19.335  0.00  0.00    +0.111 C 
ATOM      8  C   UNL     1      12.266   7.079  20.845  0.00  0.00    +0.164 C 
ATOM      9  C   UNL     1      10.826   7.537  21.031  0.00  0.00    +0.165 C 
ATOM     11  C   UNL     1      11.619   8.400  19.012  0.00  0.00    +0.181 C 
ENDROOT
BRANCH   8   2
ATOM      2  O   UNL     1      12.477   5.780  21.364  0.00  0.00    -0.388 OA
ATOM     24  H   UNL     1      11.612   5.379  21.547  0.00  0.00    +0.210 HD
ENDBRANCH   8   2
BRANCH   7   5
ATOM      5  N   UNL     1      13.776   7.187  18.872  0.00  0.00    -0.306 NA
ATOM     23  H   UNL     1      13.869   7.869  18.121  0.00  0.00    +0.123 HD
BRANCH   5  10
ATOM      3  O   UNL     1      17.350   8.174  20.842  0.00  0.00    -0.380 OA
ATOM     10  C   UNL     1      14.686   7.528  19.965  0.00  0.00    +0.058 C 
ATOM     12  C   UNL     1      15.306   8.912  19.753  0.00  0.00    +0.047 C 
ATOM     13  C   UNL     1      15.789   6.472  20.088  0.00  0.00    +0.047 C 
ATOM     15  C   UNL     1      16.350   9.194  20.827  0.00  0.00    +0.161 C 
ATOM     16  C   UNL     1      16.806   6.889  21.144  0.00  0.00    +0.161 C 
ENDBRANCH   5  10
ENDBRANCH   7   5
BRANCH   9  14
ATOM     14  C   UNL     1      10.561   8.148  22.395  0.00  0.00    +0.138 C 
BRANCH  14   6
ATOM      4  O   UNL     1      12.641  10.152  22.621  0.00  0.00    -0.276 OA
ATOM      6  N   UNL     1      10.409   9.583  22.312  0.00  0.00    -0.313 N 
ATOM     19  C   UNL     1      11.467  10.466  22.432  0.00  0.00    +0.214 C 
ATOM     25  H   UNL     1       9.475   9.945  22.147  0.00  0.00    +0.149 HD
BRANCH  19  18
ATOM     18  C   UNL     1      11.043  11.922  22.317  0.00  0.00    +0.102 C 
BRANCH  18  17
ATOM     17  C   UNL     1      11.172  12.738  23.625  0.00  0.00    -0.029 C 
ATOM     20  C   UNL     1      10.092  13.836  23.611  0.00  0.00    +0.011 C 
ATOM     21  C   UNL     1      12.550  13.413  23.723  0.00  0.00    +0.011 C 
ATOM     22  C   UNL     1      10.950  11.854  24.863  0.00  0.00    +0.011 C 
ENDBRANCH  18  17
ENDBRANCH  19  18
ENDBRANCH  14   6
ENDBRANCH   9  14
TORSDOF 7
ENDMDL
MODEL 2
REMARK VINA RESULT:      -6.1      1.969      2.494
REMARK  Name = 75536514
REMARK  10 active torsions:
REMARK  status: ('A' for Active; 'I' for Inactive)
REMARK    1  A    between atoms: O_2  and  C_8
REMARK    2  A    between atoms: N_5  and  C_7
REMARK    3  A    between atoms: N_5  and  C_10
REMARK    4  A    between atoms: N_6  and  C_14
REMARK    5  A    between atoms: C_9  and  C_14
REMARK    6  A    between atoms: C_17  and  C_18
REMARK    7  A    between atoms: C_17  and  C_20
REMARK    8  A    between atoms: C_17  and  C_21
REMARK    9  A    between atoms: C_17  and  C_22
REMARK   10  A    between atoms: C_18  and  C_19
REMARK                            x       y       z     vdW  Elec       q    Type
REMARK                         _______ _______ _______ _____ _____    ______ ____
ROOT
ATOM      1  O   UNL     1      10.518   8.411  20.011  0.00  0.00    -0.371 OA
ATOM      7  C   UNL     1      12.457   7.359  19.135  0.00  0.00    +0.111 C 
ATOM      8  C   UNL     1      12.524   7.334  20.650  0.00  0.00    +0.164 C 
ATOM      9  C   UNL     1      11.058   7.532  21.012  0.00  0.00    +0.165 C 
ATOM     11  C   UNL     1      11.425   8.448  18.896  0.00  0.00    +0.181 C 
ENDROOT
BRANCH   8   2
ATOM      2  O   UNL     1      13.032   6.115  21.155  0.00  0.00    -0.388 OA
ATOM     24  H   UNL     1      12.284   5.572  21.453  0.00  0.00    +0.210 HD
ENDBRANCH   8   2
BRANCH   7   5
ATOM      5  N   UNL     1      13.734   7.640  18.499  0.00  0.00    -0.306 NA
ATOM     23  H   UNL     1      13.956   6.914  17.821  0.00  0.00    +0.123 HD
BRANCH   5  10
ATOM      3  O   UNL     1      15.121  10.978  16.363  0.00  0.00    -0.380 OA
ATOM     10  C   UNL     1      13.717   8.944  17.839  0.00  0.00    +0.058 C 
ATOM     12  C   UNL     1      14.024   8.809  16.345  0.00  0.00    +0.047 C 
ATOM     13  C   UNL     1      14.727   9.888  18.499  0.00  0.00    +0.047 C 
ATOM     15  C   UNL     1      14.134  10.186  15.700  0.00  0.00    +0.161 C 
ATOM     16  C   UNL     1      14.797  11.206  17.735  0.00  0.00    +0.161 C 
ENDBRANCH   5  10
ENDBRANCH   7   5
BRANCH   9  14
ATOM     14  C   UNL     1      10.855   8.134  22.390  0.00  0.00    +0.138 C 
BRANCH  14   6
ATOM      4  O   UNL     1      12.810  10.258  22.634  0.00  0.00    -0.276 OA
ATOM      6  N   UNL     1      10.617   9.558  22.314  0.00  0.00    -0.313 N 
ATOM     19  C   UNL     1      11.621  10.503  22.444  0.00  0.00    +0.214 C 
ATOM     25  H   UNL     1       9.664   9.865  22.149  0.00  0.00    +0.149 HD
BRANCH  19  18
ATOM     18  C   UNL     1      11.111  11.931  22.335  0.00  0.00    +0.102 C 
BRANCH  18  17
ATOM     17  C   UNL     1      11.196  12.748  23.647  0.00  0.00    -0.029 C 
ATOM     20  C   UNL     1      10.075  13.805  23.625  0.00  0.00    +0.011 C 
ATOM     21  C   UNL     1      12.547  13.476  23.759  0.00  0.00    +0.011 C 
ATOM     22  C   UNL     1      10.997  11.854  24.881  0.00  0.00    +0.011 C 
ENDBRANCH  18  17
ENDBRANCH  19  18
ENDBRANCH  14   6
ENDBRANCH   9  14
TORSDOF 7
ENDMDL
MODEL 3
REMARK VINA RESULT:      -5.8      2.982      5.309
REMARK  Name = 75536514
REMARK  10 active torsions:
REMARK  status: ('A' for Active; 'I' for Inactive)
REMARK    1  A    between atoms: O_2  and  C_8
REMARK    2  A    between atoms: N_5  and  C_7
REMARK    3  A    between atoms: N_5  and  C_10
REMARK    4  A    between atoms: N_6  and  C_14
REMARK    5  A    between atoms: C_9  and  C_14
REMARK    6  A    between atoms: C_17  and  C_18
REMARK    7  A    between atoms: C_17  and  C_20
REMARK    8  A    between atoms: C_17  and  C_21
REMARK    9  A    between atoms: C_17  and  C_22
REMARK   10  A    between atoms: C_18  and  C_19
REMARK                            x       y       z     vdW  Elec       q    Type
REMARK                         _______ _______ _______ _____ _____    ______ ____
ROOT
ATOM      1  O   UNL     1      16.475   5.733  18.747  0.00  0.00    -0.371 OA
ATOM      7  C   UNL     1      17.693   6.691  20.547  0.00  0.00    +0.111 C 
ATOM      8  C   UNL     1      16.596   7.651  20.127  0.00  0.00    +0.164 C 
ATOM      9  C   UNL     1      15.645   6.710  19.399  0.00  0.00    +0.165 C 
ATOM     11  C   UNL     1      17.790   5.791  19.326  0.00  0.00    +0.181 C 
ENDROOT
BRANCH   8   2
ATOM      2  O   UNL     1      15.972   8.284  21.227  0.00  0.00    -0.388 OA
ATOM     24  H   UNL     1      16.625   8.858  21.659  0.00  0.00    +0.210 HD
ENDBRANCH   8   2
BRANCH   7   5
ATOM      5  N   UNL     1      18.950   7.347  20.869  0.00  0.00    -0.306 NA
ATOM     23  H   UNL     1      18.788   8.330  21.082  0.00  0.00    +0.123 HD
BRANCH   5  10
ATOM      3  O   UNL     1      21.952   6.381  23.640  0.00  0.00    -0.380 OA
ATOM     10  C   UNL     1      19.607   6.697  22.001  0.00  0.00    +0.058 C 
ATOM     12  C   UNL     1      20.007   7.722  23.067  0.00  0.00    +0.047 C 
ATOM     13  C   UNL     1      20.841   5.923  21.528  0.00  0.00    +0.047 C 
ATOM     15  C   UNL     1      20.808   7.048  24.175  0.00  0.00    +0.161 C 
ATOM     16  C   UNL     1      21.595   5.348  22.722  0.00  0.00    +0.161 C 
ENDBRANCH   5  10
ENDBRANCH   7   5
BRANCH   9  14
ATOM     14  C   UNL     1      14.774   7.411  18.373  0.00  0.00    +0.138 C 
BRANCH  14   6
ATOM      4  O   UNL     1      12.092   6.533  19.028  0.00  0.00    -0.276 OA
ATOM      6  N   UNL     1      13.729   8.183  19.006  0.00  0.00    -0.313 N 
ATOM     19  C   UNL     1      12.471   7.676  19.281  0.00  0.00    +0.214 C 
ATOM     25  H   UNL     1      13.946   9.141  19.265  0.00  0.00    +0.149 HD
BRANCH  19  18
ATOM     18  C   UNL     1      11.551   8.690  19.942  0.00  0.00    +0.102 C 
BRANCH  18  17
ATOM     17  C   UNL     1      11.434   8.550  21.478  0.00  0.00    -0.029 C 
ATOM     20  C   UNL     1      10.940   9.896  22.044  0.00  0.00    +0.011 C 
ATOM     21  C   UNL     1      12.798   8.228  22.111  0.00  0.00    +0.011 C 
ATOM     22  C   UNL     1      10.423   7.459  21.868  0.00  0.00    +0.011 C 
ENDBRANCH  18  17
ENDBRANCH  19  18
ENDBRANCH  14   6
ENDBRANCH   9  14
TORSDOF 7
ENDMDL
MODEL 4
REMARK VINA RESULT:      -5.7      2.014      5.975
REMARK  Name = 75536514
REMARK  10 active torsions:
REMARK  status: ('A' for Active; 'I' for Inactive)
REMARK    1  A    between atoms: O_2  and  C_8
REMARK    2  A    between atoms: N_5  and  C_7
REMARK    3  A    between atoms: N_5  and  C_10
REMARK    4  A    between atoms: N_6  and  C_14
REMARK    5  A    between atoms: C_9  and  C_14
REMARK    6  A    between atoms: C_17  and  C_18
REMARK    7  A    between atoms: C_17  and  C_20
REMARK    8  A    between atoms: C_17  and  C_21
REMARK    9  A    between atoms: C_17  and  C_22
REMARK   10  A    between atoms: C_18  and  C_19
REMARK                            x       y       z     vdW  Elec       q    Type
REMARK                         _______ _______ _______ _____ _____    ______ ____
ROOT
ATOM      1  O   UNL     1      13.294   8.066  21.645  0.00  0.00    -0.371 OA
ATOM      7  C   UNL     1      11.319   8.942  22.631  0.00  0.00    +0.111 C 
ATOM      8  C   UNL     1      10.934   8.026  21.485  0.00  0.00    +0.164 C 
ATOM      9  C   UNL     1      12.198   7.187  21.343  0.00  0.00    +0.165 C 
ATOM     11  C   UNL     1      12.776   9.232  22.309  0.00  0.00    +0.181 C 
ENDROOT
BRANCH   8   2
ATOM      2  O   UNL     1       9.803   7.230  21.777  0.00  0.00    -0.388 OA
ATOM     24  H   UNL     1       9.362   7.601  22.559  0.00  0.00    +0.210 HD
ENDBRANCH   8   2
BRANCH   7   5
ATOM      5  N   UNL     1      10.507  10.146  22.713  0.00  0.00    -0.306 NA
ATOM     23  H   UNL     1       9.700   9.984  23.312  0.00  0.00    +0.123 HD
BRANCH   5  10
ATOM      3  O   UNL     1      11.342  13.904  24.387  0.00  0.00    -0.380 OA
ATOM     10  C   UNL     1      11.286  11.271  23.225  0.00  0.00    +0.058 C 
ATOM     12  C   UNL     1      10.984  11.521  24.706  0.00  0.00    +0.047 C 
ATOM     13  C   UNL     1      10.996  12.535  22.410  0.00  0.00    +0.047 C 
ATOM     15  C   UNL     1      11.701  12.777  25.188  0.00  0.00    +0.161 C 
ATOM     16  C   UNL     1      11.713  13.735  23.019  0.00  0.00    +0.161 C 
ENDBRANCH   5  10
ENDBRANCH   7   5
BRANCH   9  14
ATOM     14  C   UNL     1      12.376   6.600  19.955  0.00  0.00    +0.138 C 
BRANCH  14   6
ATOM      4  O   UNL     1      15.007   6.988  18.804  0.00  0.00    -0.276 OA
ATOM      6  N   UNL     1      12.776   7.610  19.001  0.00  0.00    -0.313 N 
ATOM     19  C   UNL     1      14.064   7.718  18.505  0.00  0.00    +0.214 C 
ATOM     25  H   UNL     1      12.064   8.260  18.682  0.00  0.00    +0.149 HD
BRANCH  19  18
ATOM     18  C   UNL     1      14.229   8.868  17.525  0.00  0.00    +0.102 C 
BRANCH  18  17
ATOM     17  C   UNL     1      14.417  10.256  18.183  0.00  0.00    -0.029 C 
ATOM     20  C   UNL     1      15.036  11.202  17.135  0.00  0.00    +0.011 C 
ATOM     21  C   UNL     1      15.371  10.174  19.387  0.00  0.00    +0.011 C 
ATOM     22  C   UNL     1      13.074  10.849  18.639  0.00  0.00    +0.011 C 
ENDBRANCH  18  17
ENDBRANCH  19  18
ENDBRANCH  14   6
ENDBRANCH   9  14
TORSDOF 7
ENDMDL
MODEL 5
REMARK VINA RESULT:      -5.7      3.214      4.723
REMARK  Name = 75536514
REMARK  10 active torsions:
REMARK  status: ('A' for Active; 'I' for Inactive)
REMARK    1  A    between atoms: O_2  and  C_8
REMARK    2  A    between atoms: N_5  and  C_7
REMARK    3  A    between atoms: N_5  and  C_10
REMARK    4  A    between atoms: N_6  and  C_14
REMARK    5  A    between atoms: C_9  and  C_14
REMARK    6  A    between atoms: C_17  and  C_18
REMARK    7  A    between atoms: C_17  and  C_20
REMARK    8  A    between atoms: C_17  and  C_21
REMARK    9  A    between atoms: C_17  and  C_22
REMARK   10  A    between atoms: C_18  and  C_19
REMARK                            x       y       z     vdW  Elec       q    Type
REMARK                         _______ _______ _______ _____ _____    ______ ____
ROOT
ATOM      1  O   UNL     1      12.201   9.159  21.518  0.00  0.00    -0.371 OA
ATOM      7  C   UNL     1      12.125   7.260  20.095  0.00  0.00    +0.111 C 
ATOM      8  C   UNL     1      13.537   7.425  20.623  0.00  0.00    +0.164 C 
ATOM      9  C   UNL     1      13.291   8.285  21.856  0.00  0.00    +0.165 C 
ATOM     11  C   UNL     1      11.545   8.642  20.348  0.00  0.00    +0.181 C 
ENDROOT
BRANCH   8   2
ATOM      2  O   UNL     1      14.145   6.192  20.953  0.00  0.00    -0.388 OA
ATOM     24  H   UNL     1      14.154   6.104  21.920  0.00  0.00    +0.210 HD
ENDBRANCH   8   2
BRANCH   7   5
ATOM      5  N   UNL     1      12.067   6.870  18.695  0.00  0.00    -0.306 NA
ATOM     23  H   UNL     1      11.129   6.552  18.458  0.00  0.00    +0.123 HD
BRANCH   5  10
ATOM      3  O   UNL     1      12.968   8.962  15.168  0.00  0.00    -0.380 OA
ATOM     10  C   UNL     1      12.449   7.980  17.824  0.00  0.00    +0.058 C 
ATOM     12  C   UNL     1      11.325   8.318  16.839  0.00  0.00    +0.047 C 
ATOM     13  C   UNL     1      13.731   7.639  17.059  0.00  0.00    +0.047 C 
ATOM     15  C   UNL     1      11.788   9.384  15.853  0.00  0.00    +0.161 C 
ATOM     16  C   UNL     1      14.061   8.743  16.060  0.00  0.00    +0.161 C 
ENDBRANCH   5  10
ENDBRANCH   7   5
BRANCH   9  14
ATOM     14  C   UNL     1      14.500   9.106  22.266  0.00  0.00    +0.138 C 
BRANCH  14   6
ATOM      4  O   UNL     1      14.752  11.949  21.771  0.00  0.00    -0.276 OA
ATOM      6  N   UNL     1      15.117   9.746  21.126  0.00  0.00    -0.313 N 
ATOM     19  C   UNL     1      15.190  11.120  20.976  0.00  0.00    +0.214 C 
ATOM     25  H   UNL     1      15.519   9.145  20.413  0.00  0.00    +0.149 HD
BRANCH  19  18
ATOM     18  C   UNL     1      15.878  11.541  19.687  0.00  0.00    +0.102 C 
BRANCH  18  17
ATOM     17  C   UNL     1      14.935  12.148  18.620  0.00  0.00    -0.029 C 
ATOM     20  C   UNL     1      15.604  11.984  17.242  0.00  0.00    +0.011 C 
ATOM     21  C   UNL     1      14.705  13.648  18.874  0.00  0.00    +0.011 C 
ATOM     22  C   UNL     1      13.579  11.425  18.591  0.00  0.00    +0.011 C 
ENDBRANCH  18  17
ENDBRANCH  19  18
ENDBRANCH  14   6
ENDBRANCH   9  14
TORSDOF 7
ENDMDL
MODEL 6
REMARK VINA RESULT:      -5.6     25.460     27.899
REMARK  Name = 75536514
REMARK  10 active torsions:
REMARK  status: ('A' for Active; 'I' for Inactive)
REMARK    1  A    between atoms: O_2  and  C_8
REMARK    2  A    between atoms: N_5  and  C_7
REMARK    3  A    between atoms: N_5  and  C_10
REMARK    4  A    between atoms: N_6  and  C_14
REMARK    5  A    between atoms: C_9  and  C_14
REMARK    6  A    between atoms: C_17  and  C_18
REMARK    7  A    between atoms: C_17  and  C_20
REMARK    8  A    between atoms: C_17  and  C_21
REMARK    9  A    between atoms: C_17  and  C_22
REMARK   10  A    between atoms: C_18  and  C_19
REMARK                            x       y       z     vdW  Elec       q    Type
REMARK                         _______ _______ _______ _____ _____    ______ ____
ROOT
ATOM      1  O   UNL     1      -1.118 -11.417  15.161  0.00  0.00    -0.371 OA
ATOM      7  C   UNL     1      -3.238 -10.968  16.132  0.00  0.00    +0.111 C 
ATOM      8  C   UNL     1      -3.443 -11.556  14.749  0.00  0.00    +0.164 C 
ATOM      9  C   UNL     1      -2.103 -12.246  14.522  0.00  0.00    +0.165 C 
ATOM     11  C   UNL     1      -1.790 -10.513  16.055  0.00  0.00    +0.181 C 
ENDROOT
BRANCH   8   2
ATOM      2  O   UNL     1      -4.521 -12.470  14.698  0.00  0.00    -0.388 OA
ATOM     24  H   UNL     1      -4.274 -13.202  14.110  0.00  0.00    +0.210 HD
ENDBRANCH   8   2
BRANCH   7   5
ATOM      5  N   UNL     1      -4.156  -9.884  16.446  0.00  0.00    -0.306 NA
ATOM     23  H   UNL     1      -4.684  -9.620  15.616  0.00  0.00    +0.123 HD
BRANCH   5  10
ATOM      3  O   UNL     1      -6.791 -12.255  18.696  0.00  0.00    -0.380 OA
ATOM     10  C   UNL     1      -5.075 -10.268  17.516  0.00  0.00    +0.058 C 
ATOM     12  C   UNL     1      -4.528 -11.456  18.312  0.00  0.00    +0.047 C 
ATOM     13  C   UNL     1      -6.451 -10.613  16.937  0.00  0.00    +0.047 C 
ATOM     15  C   UNL     1      -5.556 -11.927  19.334  0.00  0.00    +0.161 C 
ATOM     16  C   UNL     1      -7.373 -11.130  18.036  0.00  0.00    +0.161 C 
ENDBRANCH   5  10
ENDBRANCH   7   5
BRANCH   9  14
ATOM     14  C   UNL     1      -1.757 -12.418  13.054  0.00  0.00    +0.138 C 
BRANCH  14   6
ATOM      4  O   UNL     1      -3.406 -12.499  10.674  0.00  0.00    -0.276 OA
ATOM      6  N   UNL     1      -2.218 -11.295  12.268  0.00  0.00    -0.313 N 
ATOM     19  C   UNL     1      -3.007 -11.433  11.139  0.00  0.00    +0.214 C 
ATOM     25  H   UNL     1      -1.950 -10.366  12.577  0.00  0.00    +0.149 HD
BRANCH  19  18
ATOM     18  C   UNL     1      -3.349 -10.103  10.487  0.00  0.00    +0.102 C 
BRANCH  18  17
ATOM     17  C   UNL     1      -4.836  -9.690  10.603  0.00  0.00    -0.029 C 
ATOM     20  C   UNL     1      -4.931  -8.173  10.348  0.00  0.00    +0.011 C 
ATOM     21  C   UNL     1      -5.383  -9.981  12.011  0.00  0.00    +0.011 C 
ATOM     22  C   UNL     1      -5.704 -10.414   9.561  0.00  0.00    +0.011 C 
ENDBRANCH  18  17
ENDBRANCH  19  18
ENDBRANCH  14   6
ENDBRANCH   9  14
TORSDOF 7
ENDMDL
MODEL 7
REMARK VINA RESULT:      -5.6      2.305      3.436
REMARK  Name = 75536514
REMARK  10 active torsions:
REMARK  status: ('A' for Active; 'I' for Inactive)
REMARK    1  A    between atoms: O_2  and  C_8
REMARK    2  A    between atoms: N_5  and  C_7
REMARK    3  A    between atoms: N_5  and  C_10
REMARK    4  A    between atoms: N_6  and  C_14
REMARK    5  A    between atoms: C_9  and  C_14
REMARK    6  A    between atoms: C_17  and  C_18
REMARK    7  A    between atoms: C_17  and  C_20
REMARK    8  A    between atoms: C_17  and  C_21
REMARK    9  A    between atoms: C_17  and  C_22
REMARK   10  A    between atoms: C_18  and  C_19
REMARK                            x       y       z     vdW  Elec       q    Type
REMARK                         _______ _______ _______ _____ _____    ______ ____
ROOT
ATOM      1  O   UNL     1      11.776   9.456  21.562  0.00  0.00    -0.371 OA
ATOM      7  C   UNL     1      12.026   7.473  20.281  0.00  0.00    +0.111 C 
ATOM      8  C   UNL     1      13.385   7.895  20.807  0.00  0.00    +0.164 C 
ATOM      9  C   UNL     1      12.983   8.791  21.972  0.00  0.00    +0.165 C 
ATOM     11  C   UNL     1      11.232   8.760  20.427  0.00  0.00    +0.181 C 
ENDROOT
BRANCH   8   2
ATOM      2  O   UNL     1      14.171   6.799  21.231  0.00  0.00    -0.388 OA
ATOM     24  H   UNL     1      14.175   6.783  22.202  0.00  0.00    +0.210 HD
ENDBRANCH   8   2
BRANCH   7   5
ATOM      5  N   UNL     1      12.058   6.980  18.913  0.00  0.00    -0.306 NA
ATOM     23  H   UNL     1      11.149   6.599  18.656  0.00  0.00    +0.123 HD
BRANCH   5  10
ATOM      3  O   UNL     1      12.932   8.879  15.272  0.00  0.00    -0.380 OA
ATOM     10  C   UNL     1      12.430   8.042  17.980  0.00  0.00    +0.058 C 
ATOM     12  C   UNL     1      11.300   8.322  16.985  0.00  0.00    +0.047 C 
ATOM     13  C   UNL     1      13.710   7.664  17.228  0.00  0.00    +0.047 C 
ATOM     15  C   UNL     1      11.754   9.334  15.939  0.00  0.00    +0.161 C 
ATOM     16  C   UNL     1      14.031   8.713  16.169  0.00  0.00    +0.161 C 
ENDBRANCH   5  10
ENDBRANCH   7   5
BRANCH   9  14
ATOM     14  C   UNL     1      14.040   9.818  22.331  0.00  0.00    +0.138 C 
BRANCH  14   6
ATOM      4  O   UNL     1      13.862  11.480  24.698  0.00  0.00    -0.276 OA
ATOM      6  N   UNL     1      13.475  11.146  22.431  0.00  0.00    -0.313 N 
ATOM     19  C   UNL     1      13.434  11.866  23.612  0.00  0.00    +0.214 C 
ATOM     25  H   UNL     1      13.103  11.560  21.582  0.00  0.00    +0.149 HD
BRANCH  19  18
ATOM     18  C   UNL     1      12.782  13.230  23.454  0.00  0.00    +0.102 C 
BRANCH  18  17
ATOM     17  C   UNL     1      11.235  13.213  23.477  0.00  0.00    -0.029 C 
ATOM     20  C   UNL     1      10.734  13.227  22.020  0.00  0.00    +0.011 C 
ATOM     21  C   UNL     1      10.678  14.454  24.195  0.00  0.00    +0.011 C 
ATOM     22  C   UNL     1      10.697  11.946  24.163  0.00  0.00    +0.011 C 
ENDBRANCH  18  17
ENDBRANCH  19  18
ENDBRANCH  14   6
ENDBRANCH   9  14
TORSDOF 7
ENDMDL
MODEL 8
REMARK VINA RESULT:      -5.5     26.127     28.313
REMARK  Name = 75536514
REMARK  10 active torsions:
REMARK  status: ('A' for Active; 'I' for Inactive)
REMARK    1  A    between atoms: O_2  and  C_8
REMARK    2  A    between atoms: N_5  and  C_7
REMARK    3  A    between atoms: N_5  and  C_10
REMARK    4  A    between atoms: N_6  and  C_14
REMARK    5  A    between atoms: C_9  and  C_14
REMARK    6  A    between atoms: C_17  and  C_18
REMARK    7  A    between atoms: C_17  and  C_20
REMARK    8  A    between atoms: C_17  and  C_21
REMARK    9  A    between atoms: C_17  and  C_22
REMARK   10  A    between atoms: C_18  and  C_19
REMARK                            x       y       z     vdW  Elec       q    Type
REMARK                         _______ _______ _______ _____ _____    ______ ____
ROOT
ATOM      1  O   UNL     1      -4.394 -11.898  17.792  0.00  0.00    -0.371 OA
ATOM      7  C   UNL     1      -6.365 -10.604  17.512  0.00  0.00    +0.111 C 
ATOM      8  C   UNL     1      -5.234  -9.956  16.735  0.00  0.00    +0.164 C 
ATOM      9  C   UNL     1      -4.273 -11.128  16.584  0.00  0.00    +0.165 C 
ATOM     11  C   UNL     1      -5.598 -11.500  18.471  0.00  0.00    +0.181 C 
ENDROOT
BRANCH   8   2
ATOM      2  O   UNL     1      -5.652  -9.452  15.482  0.00  0.00    -0.388 OA
ATOM     24  H   UNL     1      -6.361 -10.022  15.143  0.00  0.00    +0.210 HD
ENDBRANCH   8   2
BRANCH   7   5
ATOM      5  N   UNL     1      -7.224  -9.650  18.195  0.00  0.00    -0.306 NA
ATOM     23  H   UNL     1      -6.864  -8.705  18.075  0.00  0.00    +0.123 HD
BRANCH   5  10
ATOM      3  O   UNL     1     -10.398  -9.784  15.449  0.00  0.00    -0.380 OA
ATOM     10  C   UNL     1      -8.595  -9.724  17.693  0.00  0.00    +0.058 C 
ATOM     12  C   UNL     1      -8.801 -10.979  16.838  0.00  0.00    +0.047 C 
ATOM     13  C   UNL     1      -8.931  -8.473  16.876  0.00  0.00    +0.047 C 
ATOM     15  C   UNL     1     -10.192 -10.972  16.214  0.00  0.00    +0.161 C 
ATOM     16  C   UNL     1     -10.315  -8.605  16.250  0.00  0.00    +0.161 C 
ENDBRANCH   5  10
ENDBRANCH   7   5
BRANCH   9  14
ATOM     14  C   UNL     1      -2.830 -10.700  16.389  0.00  0.00    +0.138 C 
BRANCH  14   6
ATOM      4  O   UNL     1      -1.996 -12.249  14.087  0.00  0.00    -0.276 OA
ATOM      6  N   UNL     1      -2.599 -10.219  15.045  0.00  0.00    -0.313 N 
ATOM     19  C   UNL     1      -2.199 -11.039  14.005  0.00  0.00    +0.214 C 
ATOM     25  H   UNL     1      -2.750  -9.230  14.870  0.00  0.00    +0.149 HD
BRANCH  19  18
ATOM     18  C   UNL     1      -2.016 -10.290  12.694  0.00  0.00    +0.102 C 
BRANCH  18  17
ATOM     17  C   UNL     1      -3.140 -10.519  11.656  0.00  0.00    -0.029 C 
ATOM     20  C   UNL     1      -4.492 -10.283  12.356  0.00  0.00    +0.011 C 
ATOM     21  C   UNL     1      -3.115 -11.962  11.122  0.00  0.00    +0.011 C 
ATOM     22  C   UNL     1      -3.025  -9.539  10.477  0.00  0.00    +0.011 C 
ENDBRANCH  18  17
ENDBRANCH  19  18
ENDBRANCH  14   6
ENDBRANCH   9  14
TORSDOF 7
ENDMDL
MODEL 9
REMARK VINA RESULT:      -5.5      1.844      6.917
REMARK  Name = 75536514
REMARK  10 active torsions:
REMARK  status: ('A' for Active; 'I' for Inactive)
REMARK    1  A    between atoms: O_2  and  C_8
REMARK    2  A    between atoms: N_5  and  C_7
REMARK    3  A    between atoms: N_5  and  C_10
REMARK    4  A    between atoms: N_6  and  C_14
REMARK    5  A    between atoms: C_9  and  C_14
REMARK    6  A    between atoms: C_17  and  C_18
REMARK    7  A    between atoms: C_17  and  C_20
REMARK    8  A    between atoms: C_17  and  C_21
REMARK    9  A    between atoms: C_17  and  C_22
REMARK   10  A    between atoms: C_18  and  C_19
REMARK                            x       y       z     vdW  Elec       q    Type
REMARK                         _______ _______ _______ _____ _____    ______ ____
ROOT
ATOM      1  O   UNL     1      10.587   8.420  21.100  0.00  0.00    -0.371 OA
ATOM      7  C   UNL     1      11.332  10.259  22.404  0.00  0.00    +0.111 C 
ATOM      8  C   UNL     1      12.448   9.831  21.471  0.00  0.00    +0.164 C 
ATOM      9  C   UNL     1      11.667   9.069  20.409  0.00  0.00    +0.165 C 
ATOM     11  C   UNL     1      10.442   9.027  22.396  0.00  0.00    +0.181 C 
ENDROOT
BRANCH   8   2
ATOM      2  O   UNL     1      13.153  10.927  20.923  0.00  0.00    -0.388 OA
ATOM     24  H   UNL     1      13.764  10.591  20.246  0.00  0.00    +0.210 HD
ENDBRANCH   8   2
BRANCH   7   5
ATOM      5  N   UNL     1      11.790  10.618  23.737  0.00  0.00    -0.306 NA
ATOM     23  H   UNL     1      12.770  10.362  23.851  0.00  0.00    +0.123 HD
BRANCH   5  10
ATOM      3  O   UNL     1       9.857  14.292  24.362  0.00  0.00    -0.380 OA
ATOM     10  C   UNL     1      11.621  12.048  23.984  0.00  0.00    +0.058 C 
ATOM     12  C   UNL     1      10.877  12.295  25.300  0.00  0.00    +0.047 C 
ATOM     13  C   UNL     1      10.865  12.703  22.824  0.00  0.00    +0.047 C 
ATOM     15  C   UNL     1      10.590  13.781  25.476  0.00  0.00    +0.161 C 
ATOM     16  C   UNL     1      10.580  14.168  23.137  0.00  0.00    +0.161 C 
ENDBRANCH   5  10
ENDBRANCH   7   5
BRANCH   9  14
ATOM     14  C   UNL     1      12.503   8.036  19.675  0.00  0.00    +0.138 C 
BRANCH  14   6
ATOM      4  O   UNL     1      14.818   8.922  18.177  0.00  0.00    -0.276 OA
ATOM      6  N   UNL     1      13.879   8.057  20.118  0.00  0.00    -0.313 N 
ATOM     19  C   UNL     1      14.924   8.501  19.327  0.00  0.00    +0.214 C 
ATOM     25  H   UNL     1      14.071   7.736  21.063  0.00  0.00    +0.149 HD
BRANCH  19  18
ATOM     18  C   UNL     1      16.274   8.413  20.021  0.00  0.00    +0.102 C 
BRANCH  18  17
ATOM     17  C   UNL     1      16.769   6.972  20.291  0.00  0.00    -0.029 C 
ATOM     20  C   UNL     1      18.269   7.040  20.637  0.00  0.00    +0.011 C 
ATOM     21  C   UNL     1      16.597   6.085  19.046  0.00  0.00    +0.011 C 
ATOM     22  C   UNL     1      16.026   6.335  21.476  0.00  0.00    +0.011 C 
ENDBRANCH  18  17
ENDBRANCH  19  18
ENDBRANCH  14   6
ENDBRANCH   9  14
TORSDOF 7
ENDMDL
MODEL 10
REMARK VINA RESULT:      -5.5      3.915      6.162
REMARK  Name = 75536514
REMARK  10 active torsions:
REMARK  status: ('A' for Active; 'I' for Inactive)
REMARK    1  A    between atoms: O_2  and  C_8
REMARK    2  A    between atoms: N_5  and  C_7
REMARK    3  A    between atoms: N_5  and  C_10
REMARK    4  A    between atoms: N_6  and  C_14
REMARK    5  A    between atoms: C_9  and  C_14
REMARK    6  A    between atoms: C_17  and  C_18
REMARK    7  A    between atoms: C_17  and  C_20
REMARK    8  A    between atoms: C_17  and  C_21
REMARK    9  A    between atoms: C_17  and  C_22
REMARK   10  A    between atoms: C_18  and  C_19
REMARK                            x       y       z     vdW  Elec       q    Type
REMARK                         _______ _______ _______ _____ _____    ______ ____
ROOT
ATOM      1  O   UNL     1      17.514   7.231  21.187  0.00  0.00    -0.371 OA
ATOM      7  C   UNL     1      19.168   5.987  20.024  0.00  0.00    +0.111 C 
ATOM      8  C   UNL     1      17.799   5.596  19.502  0.00  0.00    +0.164 C 
ATOM      9  C   UNL     1      16.967   6.799  19.929  0.00  0.00    +0.165 C 
ATOM     11  C   UNL     1      18.811   6.634  21.352  0.00  0.00    +0.181 C 
ENDROOT
BRANCH   8   2
ATOM      2  O   UNL     1      17.780   5.414  18.099  0.00  0.00    -0.388 OA
ATOM     24  H   UNL     1      18.573   4.914  17.845  0.00  0.00    +0.210 HD
ENDBRANCH   8   2
BRANCH   7   5
ATOM      5  N   UNL     1      20.079   4.863  20.169  0.00  0.00    -0.306 NA
ATOM     23  H   UNL     1      20.479   4.617  19.265  0.00  0.00    +0.123 HD
BRANCH   5  10
ATOM      3  O   UNL     1      23.895   4.858  21.919  0.00  0.00    -0.380 OA
ATOM     10  C   UNL     1      21.149   5.172  21.115  0.00  0.00    +0.058 C 
ATOM     12  C   UNL     1      22.296   5.917  20.426  0.00  0.00    +0.047 C 
ATOM     13  C   UNL     1      21.673   3.887  21.764  0.00  0.00    +0.047 C 
ATOM     15  C   UNL     1      23.457   6.112  21.394  0.00  0.00    +0.161 C 
ATOM     16  C   UNL     1      22.869   4.195  22.658  0.00  0.00    +0.161 C 
ENDBRANCH   5  10
ENDBRANCH   7   5
BRANCH   9  14
ATOM     14  C   UNL     1      15.492   6.482  20.091  0.00  0.00    +0.138 C 
BRANCH  14   6
ATOM      4  O   UNL     1      12.773   6.461  21.092  0.00  0.00    -0.276 OA
ATOM      6  N   UNL     1      14.787   7.566  20.738  0.00  0.00    -0.313 N 
ATOM     19  C   UNL     1      13.481   7.462  21.185  0.00  0.00    +0.214 C 
ATOM     25  H   UNL     1      15.290   8.437  20.873  0.00  0.00    +0.149 HD
BRANCH  19  18
ATOM     18  C   UNL     1      12.966   8.743  21.822  0.00  0.00    +0.102 C 
BRANCH  18  17
ATOM     17  C   UNL     1      12.052   9.595  20.909  0.00  0.00    -0.029 C 
ATOM     20  C   UNL     1      11.389  10.681  21.778  0.00  0.00    +0.011 C 
ATOM     21  C   UNL     1      10.944   8.735  20.277  0.00  0.00    +0.011 C 
ATOM     22  C   UNL     1      12.855  10.286  19.796  0.00  0.00    +0.011 C 
ENDBRANCH  18  17
ENDBRANCH  19  18
ENDBRANCH  14   6
ENDBRANCH   9  14
TORSDOF 7
ENDMDL
