REMARK  Name = 75536057
REMARK  7 active torsions:
REMARK  status: ('A' for Active; 'I' for Inactive)
REMARK    1  A    between atoms: O_1  and  C_8
REMARK    2  A    between atoms: O_2  and  C_10
REMARK    3  A    between atoms: O_4  and  C_21
REMARK    4  A    between atoms: O_4  and  C_24
REMARK    5  A    between atoms: N_5  and  C_7
REMARK    6  A    between atoms: C_6  and  C_11
REMARK    7  A    between atoms: C_14  and  C_17
REMARK                            x       y       z     vdW  Elec       q    Type
REMARK                         _______ _______ _______ _____ _____    ______ ____
ROOT
ATOM      6  C   UNL     1       2.362  -0.314  -0.994  0.00  0.00    +0.044 C 
ATOM      7  C   UNL     1       1.271  -0.991  -0.133  0.00  0.00    +0.112 C 
ATOM      8  C   UNL     1       1.387  -2.468  -0.510  0.00  0.00    +0.164 C 
ATOM      9  C   UNL     1       3.387  -1.427  -1.331  0.00  0.00    +0.044 C 
ATOM     10  C   UNL     1       2.892  -2.682  -0.612  0.00  0.00    +0.145 C 
ENDROOT
BRANCH   6  11
ATOM     11  C   UNL     1       2.963   0.908  -0.332  0.00  0.00    -0.042 A 
ATOM     12  C   UNL     1       2.385   2.163  -0.527  0.00  0.00    +0.004 A 
ATOM     13  C   UNL     1       4.096   0.780   0.472  0.00  0.00    +0.004 A 
ATOM     15  C   UNL     1       2.939   3.288   0.082  0.00  0.00    +0.000 A 
ATOM     16  C   UNL     1       4.650   1.906   1.081  0.00  0.00    +0.000 A 
ATOM     18  C   UNL     1       4.072   3.160   0.886  0.00  0.00    +0.000 A 
ENDBRANCH   6  11
BRANCH   7   5
ATOM      3  O   UNL     1      -0.969  -0.929   1.663  0.00  0.00    -0.270 OA
ATOM      5  N   UNL     1      -0.041  -0.466  -0.412  0.00  0.00    -0.305 N 
ATOM     14  C   UNL     1      -1.067  -0.479   0.524  0.00  0.00    +0.244 C 
ATOM     25  H   UNL     1      -0.230  -0.180  -1.367  0.00  0.00    +0.149 HD
BRANCH  14  17
ATOM     17  C   UNL     1      -2.368   0.076   0.072  0.00  0.00    +0.040 A 
ATOM     19  C   UNL     1      -3.556  -0.368   0.653  0.00  0.00    +0.058 A 
ATOM     20  C   UNL     1      -2.403   1.042  -0.934  0.00  0.00    +0.013 A 
ATOM     21  C   UNL     1      -4.778   0.153   0.229  0.00  0.00    +0.121 A 
ATOM     22  C   UNL     1      -3.625   1.563  -1.358  0.00  0.00    +0.004 A 
ATOM     23  C   UNL     1      -4.813   1.119  -0.776  0.00  0.00    +0.045 A 
BRANCH  21   4
ATOM      4  O   UNL     1      -5.937  -0.280   0.796  0.00  0.00    -0.495 OA
ATOM     24  C   UNL     1      -7.150   0.296   0.315  0.00  0.00    +0.277 C 
ENDBRANCH  21   4
ENDBRANCH  14  17
ENDBRANCH   7   5
BRANCH   8   1
ATOM      1  O   UNL     1       0.815  -3.317   0.466  0.00  0.00    -0.387 OA
ATOM     26  H   UNL     1       1.008  -4.234   0.204  0.00  0.00    +0.210 HD
ENDBRANCH   8   1
BRANCH  10   2
ATOM      2  O   UNL     1       3.489  -2.733   0.680  0.00  0.00    -0.389 OA
ATOM     27  H   UNL     1       4.449  -2.829   0.554  0.00  0.00    +0.210 HD
ENDBRANCH  10   2
TORSDOF 6
