REMARK  Name = 11941431
REMARK  7 active torsions:
REMARK  status: ('A' for Active; 'I' for Inactive)
REMARK    1  A    between atoms: O_4  and  C_24
REMARK    2  A    between atoms: O_4  and  C_32
REMARK    3  A    between atoms: O_7  and  C_34
REMARK    4  A    between atoms: N_10  and  C_12
REMARK    5  A    between atoms: C_20  and  C_24
REMARK    6  A    between atoms: C_23  and  C_26
REMARK    7  A    between atoms: C_32  and  C_34
REMARK                            x       y       z     vdW  Elec       q    Type
REMARK                         _______ _______ _______ _____ _____    ______ ____
ROOT
ATOM      1  O   UNL     1      -2.195  -3.860   1.631  0.00  0.00    -0.273 OA
ATOM      2  O   UNL     1       0.780  -2.252  -2.409  0.00  0.00    -0.270 OA
ATOM      9  N   UNL     1      -1.112  -2.383  -1.107  0.00  0.00    -0.284 N 
ATOM     11  N   UNL     1      -0.141  -2.875   1.626  0.00  0.00    -0.283 N 
ATOM     12  C   UNL     1      -3.338  -2.195  -0.333  0.00  0.00    +0.104 C 
ATOM     13  C   UNL     1      -1.869  -2.042   0.083  0.00  0.00    +0.183 C 
ATOM     14  C   UNL     1      -3.284  -3.227  -1.461  0.00  0.00    +0.043 C 
ATOM     15  C   UNL     1      -1.967  -2.919  -2.156  0.00  0.00    +0.111 C 
ATOM     16  C   UNL     1      -1.425  -3.029   1.146  0.00  0.00    +0.240 C 
ATOM     17  C   UNL     1       0.218  -2.093  -1.325  0.00  0.00    +0.249 C 
ATOM     18  C   UNL     1       1.020  -1.584  -0.182  0.00  0.00    +0.059 A 
ATOM     19  C   UNL     1       0.883  -2.033   1.142  0.00  0.00    +0.046 A 
ATOM     21  C   UNL     1       2.083  -0.725  -0.515  0.00  0.00    +0.023 A 
ATOM     22  C   UNL     1       1.856  -1.661   2.087  0.00  0.00    +0.024 A 
ATOM     23  C   UNL     1       3.011  -0.329   0.447  0.00  0.00    -0.017 A 
ATOM     25  C   UNL     1       2.905  -0.807   1.746  0.00  0.00    +0.010 A 
ATOM     36  H   UNL     1       0.064  -3.373   2.489  0.00  0.00    +0.155 HD
ENDROOT
BRANCH  23  26
ATOM      5  O   UNL     1       7.576   1.384   0.907  0.00  0.00    -0.453 OA
ATOM      6  O   UNL     1       7.251   3.018  -0.834  0.00  0.00    -0.453 OA
ATOM     26  C   UNL     1       4.096   0.559   0.087  0.00  0.00    -0.014 A 
ATOM     27  C   UNL     1       5.321   0.462   0.751  0.00  0.00    +0.058 A 
ATOM     28  C   UNL     1       3.907   1.512  -0.929  0.00  0.00    +0.012 A 
ATOM     29  C   UNL     1       6.325   1.330   0.374  0.00  0.00    +0.167 A 
ATOM     30  C   UNL     1       6.139   2.263  -0.620  0.00  0.00    +0.166 A 
ATOM     31  C   UNL     1       4.940   2.380  -1.292  0.00  0.00    +0.050 A 
ATOM     33  C   UNL     1       8.158   2.455   0.136  0.00  0.00    +0.466 C 
ENDBRANCH  23  26
BRANCH  12  10
ATOM      3  O   UNL     1      -4.785  -0.220   1.216  0.00  0.00    -0.273 OA
ATOM     10  N   UNL     1      -3.877  -0.938  -0.801  0.00  0.00    -0.308 N 
ATOM     20  C   UNL     1      -4.558  -0.054   0.021  0.00  0.00    +0.239 C 
ATOM     35  H   UNL     1      -3.702  -0.672  -1.766  0.00  0.00    +0.149 HD
BRANCH  20  24
ATOM     24  C   UNL     1      -5.006   1.179  -0.734  0.00  0.00    +0.256 C 
BRANCH  24   4
ATOM      4  O   UNL     1      -5.686   2.070   0.125  0.00  0.00    -0.359 OA
BRANCH   4  32
ATOM     32  C   UNL     1      -6.120   3.241  -0.560  0.00  0.00    +0.280 C 
BRANCH  32  34
ATOM      8  O   UNL     1      -7.045   3.930   1.579  0.00  0.00    -0.248 OA
ATOM     34  C   UNL     1      -6.835   4.155   0.396  0.00  0.00    +0.331 C 
BRANCH  34   7
ATOM      7  O   UNL     1      -7.226   5.287  -0.242  0.00  0.00    -0.479 OA
ATOM     37  H   UNL     1      -7.696   5.903   0.361  0.00  0.00    +0.295 HD
ENDBRANCH  34   7
ENDBRANCH  32  34
ENDBRANCH   4  32
ENDBRANCH  24   4
ENDBRANCH  20  24
ENDBRANCH  12  10
TORSDOF 7
