REMARK  Name = 7113909
REMARK  7 active torsions:
REMARK  status: ('A' for Active; 'I' for Inactive)
REMARK    1  A    between atoms: S_1  and  N_12
REMARK    2  A    between atoms: S_1  and  C_28
REMARK    3  A    between atoms: O_9  and  C_31
REMARK    4  A    between atoms: O_9  and  C_38
REMARK    5  A    between atoms: N_12  and  C_23
REMARK    6  A    between atoms: C_22  and  C_25
REMARK    7  A    between atoms: C_34  and  C_37
REMARK                            x       y       z     vdW  Elec       q    Type
REMARK                         _______ _______ _______ _____ _____    ______ ____
ROOT
ATOM      5  O   UNL     1       1.369   3.479  -0.906  0.00  0.00    -0.266 OA
ATOM      6  O   UNL     1       3.075  -1.106  -2.611  0.00  0.00    -0.270 OA
ATOM     10  N   UNL     1       3.938  -0.784  -0.460  0.00  0.00    -0.297 N 
ATOM     11  N   UNL     1       2.613   1.971   0.385  0.00  0.00    -0.310 N 
ATOM     13  C   UNL     1       5.063   1.407  -0.100  0.00  0.00    +0.027 C 
ATOM     14  C   UNL     1       3.901   0.306   1.771  0.00  0.00    +0.054 C 
ATOM     15  C   UNL     1       5.143   1.111   1.393  0.00  0.00    +0.018 C 
ATOM     16  C   UNL     1       5.018   0.096  -0.906  0.00  0.00    +0.113 C 
ATOM     17  C   UNL     1       3.836   2.289  -0.364  0.00  0.00    +0.130 C 
ATOM     18  C   UNL     1       3.892  -1.024   0.991  0.00  0.00    +0.117 C 
ATOM     19  C   UNL     1       2.633   1.083   1.470  0.00  0.00    +0.027 A 
ATOM     20  C   UNL     1       1.529   0.891   2.215  0.00  0.00    +0.024 A 
ATOM     21  C   UNL     1       1.446   2.677   0.023  0.00  0.00    +0.274 A 
ATOM     22  C   UNL     1       3.042  -1.303  -1.398  0.00  0.00    +0.247 C 
ATOM     23  C   UNL     1       0.255   2.404   0.867  0.00  0.00    +0.112 A 
ATOM     24  C   UNL     1       0.300   1.570   1.906  0.00  0.00    +0.031 A 
ENDROOT
BRANCH  22  25
ATOM     25  C   UNL     1       1.945  -2.145  -0.907  0.00  0.00    +0.037 A 
ATOM     26  C   UNL     1       0.731  -1.563  -0.552  0.00  0.00    +0.016 A 
ATOM     27  C   UNL     1       2.123  -3.522  -0.799  0.00  0.00    +0.016 A 
ATOM     29  C   UNL     1      -0.312  -2.364  -0.086  0.00  0.00    +0.046 A 
ATOM     30  C   UNL     1       1.080  -4.322  -0.334  0.00  0.00    +0.046 A 
ATOM     31  C   UNL     1      -0.138  -3.743   0.024  0.00  0.00    +0.120 A 
BRANCH  31   9
ATOM      9  O   UNL     1      -1.156  -4.524   0.476  0.00  0.00    -0.495 OA
ATOM     38  C   UNL     1      -0.909  -5.927   0.563  0.00  0.00    +0.277 C 
ENDBRANCH  31   9
ENDBRANCH  22  25
BRANCH  23  12
ATOM     12  N   UNL     1      -0.968   3.040   0.591  0.00  0.00    -0.211 N 
ATOM     39  H   UNL     1      -1.627   2.997   1.381  0.00  0.00    +0.174 HD
BRANCH  12   1
ATOM      1  S   UNL     1      -1.664   2.747  -0.924  0.00  0.00    +0.073 S 
ATOM      7  O   UNL     1      -1.965   4.007  -1.576  0.00  0.00    -0.150 OA
ATOM      8  O   UNL     1      -0.903   1.727  -1.622  0.00  0.00    -0.150 OA
BRANCH   1  28
ATOM     28  C   UNL     1      -3.204   2.020  -0.444  0.00  0.00    +0.109 A 
ATOM     32  C   UNL     1      -3.281   0.648  -0.283  0.00  0.00    +0.041 A 
ATOM     33  C   UNL     1      -4.300   2.839  -0.238  0.00  0.00    +0.029 A 
ATOM     34  C   UNL     1      -4.496   0.076   0.095  0.00  0.00    +0.057 A 
ATOM     35  C   UNL     1      -5.514   2.266   0.140  0.00  0.00    +0.002 A 
ATOM     36  C   UNL     1      -5.612   0.885   0.306  0.00  0.00    +0.012 A 
BRANCH  34  37
ATOM      2  F   UNL     1      -5.846  -1.821   0.644  0.00  0.00    -0.166 F 
ATOM      3  F   UNL     1      -4.308  -2.110  -0.857  0.00  0.00    -0.166 F 
ATOM      4  F   UNL     1      -3.753  -1.875   1.233  0.00  0.00    -0.166 F 
ATOM     37  C   UNL     1      -4.600  -1.401   0.273  0.00  0.00    +0.417 C 
ENDBRANCH  34  37
ENDBRANCH   1  28
ENDBRANCH  12   1
ENDBRANCH  23  12
TORSDOF 6
