REMARK  Name = 45784022
REMARK  4 active torsions:
REMARK  status: ('A' for Active; 'I' for Inactive)
REMARK    1  A    between atoms: N_6  and  C_15
REMARK    2  A    between atoms: C_7  and  C_11
REMARK    3  A    between atoms: C_15  and  C_18
REMARK    4  A    between atoms: C_15  and  C_19
REMARK                            x       y       z     vdW  Elec       q    Type
REMARK                         _______ _______ _______ _____ _____    ______ ____
ROOT
ATOM      2  O   UNL     1       3.519  -0.032   1.809  0.00  0.00    -0.253 OA
ATOM      3  N   UNL     1       2.205  -0.978   0.167  0.00  0.00    -0.285 N 
ATOM      6  N   UNL     1       3.997   0.416  -0.402  0.00  0.00    -0.297 N 
ATOM      7  C   UNL     1       0.118  -2.116   0.251  0.00  0.00    +0.074 C 
ATOM      8  C   UNL     1       0.757  -2.322  -1.131  0.00  0.00    +0.032 C 
ATOM      9  C   UNL     1       1.320  -1.675   1.094  0.00  0.00    +0.120 C 
ATOM     10  C   UNL     1       1.814  -1.227  -1.218  0.00  0.00    +0.110 C 
ATOM     12  C   UNL     1       3.261  -0.187   0.612  0.00  0.00    +0.302 C 
ATOM     23  H   UNL     1       3.682   0.340  -1.362  0.00  0.00    +0.150 HD
ENDROOT
BRANCH   7  11
ATOM      1  F   UNL     1      -6.377   1.099  -0.356  0.00  0.00    -0.205 F 
ATOM      4  N   UNL     1      -2.326  -1.599  -0.057  0.00  0.00    -0.341 N 
ATOM      5  N   UNL     1      -1.014   0.150   0.340  0.00  0.00    -0.232 NA
ATOM     11  C   UNL     1      -1.056  -1.154   0.184  0.00  0.00    +0.113 A 
ATOM     13  C   UNL     1      -3.159  -0.510  -0.057  0.00  0.00    +0.069 A 
ATOM     14  C   UNL     1      -2.316   0.570   0.193  0.00  0.00    +0.089 A 
ATOM     16  C   UNL     1      -4.535  -0.380  -0.249  0.00  0.00    +0.066 A 
ATOM     17  C   UNL     1      -2.862   1.863   0.259  0.00  0.00    +0.032 A 
ATOM     20  C   UNL     1      -5.061   0.914  -0.179  0.00  0.00    +0.125 A 
ATOM     21  C   UNL     1      -4.241   2.017   0.070  0.00  0.00    +0.040 A 
ATOM     22  H   UNL     1      -2.604  -2.560  -0.210  0.00  0.00    +0.167 HD
ENDBRANCH   7  11
BRANCH   6  15
ATOM     15  C   UNL     1       5.127   1.275  -0.133  0.00  0.00    +0.068 C 
ATOM     18  C   UNL     1       6.161   1.163  -1.246  0.00  0.00    +0.027 C 
ATOM     19  C   UNL     1       4.666   2.716   0.049  0.00  0.00    +0.027 C 
ENDBRANCH   6  15
TORSDOF 2
