REMARK  Name = 51136607
REMARK  11 active torsions:
REMARK  status: ('A' for Active; 'I' for Inactive)
REMARK    1  A    between atoms: O_2  and  C_18
REMARK    2  A    between atoms: O_4  and  C_26
REMARK    3  A    between atoms: O_4  and  C_33
REMARK    4  A    between atoms: O_5  and  C_27
REMARK    5  A    between atoms: O_5  and  C_34
REMARK    6  A    between atoms: C_8  and  C_13
REMARK    7  A    between atoms: C_9  and  C_14
REMARK    8  A    between atoms: C_13  and  C_15
REMARK    9  A    between atoms: C_14  and  C_18
REMARK   10  A    between atoms: C_16  and  C_19
REMARK   11  A    between atoms: C_19  and  C_25
REMARK                            x       y       z     vdW  Elec       q    Type
REMARK                         _______ _______ _______ _____ _____    ______ ____
ROOT
ATOM      1  O   UNL     1      -0.400  -3.540   0.747  0.00  0.00    -0.275 OA
ATOM      6  N   UNL     1      -1.812  -2.074  -0.373  0.00  0.00    -0.301 N 
ATOM      8  C   UNL     1      -2.720   0.203  -0.777  0.00  0.00    +0.016 C 
ATOM      9  C   UNL     1      -3.995  -0.207   0.003  0.00  0.00    +0.006 C 
ATOM     10  C   UNL     1      -3.701  -1.322   1.021  0.00  0.00    +0.023 C 
ATOM     11  C   UNL     1      -2.058  -1.044  -1.390  0.00  0.00    +0.112 C 
ATOM     12  C   UNL     1      -3.002  -2.507   0.360  0.00  0.00    +0.108 C 
ATOM     16  C   UNL     1      -0.576  -2.656  -0.096  0.00  0.00    +0.220 C 
ENDROOT
BRANCH   8  13
ATOM     13  C   UNL     1      -1.703   0.988   0.060  0.00  0.00    +0.061 C 
BRANCH  13  15
ATOM      7  N   UNL     1      -1.245   2.151  -1.990  0.00  0.00    -0.287 NA
ATOM     15  C   UNL     1      -0.780   1.764  -0.848  0.00  0.00    +0.044 C 
ATOM     17  C   UNL     1       0.607   2.037  -0.395  0.00  0.00    +0.003 A 
ATOM     20  C   UNL     1       1.534   2.400  -1.381  0.00  0.00    -0.033 A 
ATOM     21  C   UNL     1       1.076   2.474  -2.807  0.00  0.00    +0.059 C 
ATOM     22  C   UNL     1      -0.368   2.956  -2.847  0.00  0.00    +0.146 C 
ATOM     23  C   UNL     1       1.000   1.930   0.941  0.00  0.00    +0.059 A 
ATOM     24  C   UNL     1       2.865   2.631  -1.025  0.00  0.00    +0.053 A 
ATOM     26  C   UNL     1       2.328   2.177   1.289  0.00  0.00    +0.162 A 
ATOM     27  C   UNL     1       3.259   2.524   0.309  0.00  0.00    +0.162 A 
BRANCH  26   4
ATOM      4  O   UNL     1       2.707   2.074   2.594  0.00  0.00    -0.491 OA
ATOM     33  C   UNL     1       3.159   0.796   3.038  0.00  0.00    +0.277 C 
ENDBRANCH  26   4
BRANCH  27   5
ATOM      5  O   UNL     1       4.559   2.759   0.643  0.00  0.00    -0.491 OA
ATOM     34  C   UNL     1       4.909   4.100   0.981  0.00  0.00    +0.277 C 
ENDBRANCH  27   5
ENDBRANCH  13  15
ENDBRANCH   8  13
BRANCH   9  14
ATOM     14  C   UNL     1      -4.690   0.973   0.682  0.00  0.00    +0.124 C 
BRANCH  14  18
ATOM      3  O   UNL     1      -6.738  -0.349   0.682  0.00  0.00    -0.251 OA
ATOM     18  C   UNL     1      -6.141   0.683   0.949  0.00  0.00    +0.305 C 
BRANCH  18   2
ATOM      2  O   UNL     1      -6.720   1.757   1.546  0.00  0.00    -0.481 OA
ATOM     35  H   UNL     1      -7.670   1.602   1.736  0.00  0.00    +0.295 HD
ENDBRANCH  18   2
ENDBRANCH  14  18
ENDBRANCH   9  14
BRANCH  16  19
ATOM     19  C   UNL     1       0.602  -2.153  -0.892  0.00  0.00    +0.131 C 
BRANCH  19  25
ATOM     25  C   UNL     1       1.847  -2.896  -0.518  0.00  0.00    -0.039 A 
ATOM     28  C   UNL     1       2.658  -2.423   0.514  0.00  0.00    +0.004 A 
ATOM     29  C   UNL     1       2.197  -4.060  -1.203  0.00  0.00    +0.004 A 
ATOM     30  C   UNL     1       3.818  -3.115   0.862  0.00  0.00    +0.000 A 
ATOM     31  C   UNL     1       3.357  -4.752  -0.855  0.00  0.00    +0.000 A 
ATOM     32  C   UNL     1       4.168  -4.279   0.177  0.00  0.00    +0.000 A 
ENDBRANCH  19  25
ENDBRANCH  16  19
TORSDOF 9
