MODEL 1
REMARK VINA RESULT:      -7.1      0.000      0.000
REMARK  Name = 45784194
REMARK  4 active torsions:
REMARK  status: ('A' for Active; 'I' for Inactive)
REMARK    1  A    between atoms: N_2  and  C_5
REMARK    2  A    between atoms: N_3  and  C_15
REMARK    3  A    between atoms: C_6  and  C_14
REMARK    4  A    between atoms: C_20  and  C_22
REMARK                            x       y       z     vdW  Elec       q    Type
REMARK                         _______ _______ _______ _____ _____    ______ ____
ROOT
ATOM      2  N   UNL     1      12.035   8.712  19.873  0.00  0.00    -0.299 NA
ATOM      6  C   UNL     1      13.948   7.631  19.052  0.00  0.00    +0.090 C 
ATOM      7  C   UNL     1      13.486   8.893  19.792  0.00  0.00    +0.097 C 
ATOM      8  C   UNL     1      11.850   7.306  20.232  0.00  0.00    +0.085 C 
ATOM      9  C   UNL     1      12.849   6.590  19.332  0.00  0.00    +0.029 C 
ENDROOT
BRANCH   6  14
ATOM      1  O   UNL     1      15.958   7.951  20.391  0.00  0.00    -0.439 OA
ATOM      4  N   UNL     1      16.045   6.190  18.969  0.00  0.00    -0.213 NA
ATOM     14  C   UNL     1      15.344   7.199  19.436  0.00  0.00    +0.201 A 
ATOM     16  C   UNL     1      17.225   6.273  19.667  0.00  0.00    +0.110 A 
ATOM     17  C   UNL     1      17.176   7.351  20.539  0.00  0.00    +0.155 A 
ATOM     18  C   UNL     1      18.384   5.485  19.628  0.00  0.00    +0.035 A 
ATOM     19  C   UNL     1      18.203   7.722  21.398  0.00  0.00    +0.049 A 
ATOM     20  C   UNL     1      19.443   5.830  20.482  0.00  0.00    -0.048 A 
ATOM     21  C   UNL     1      19.352   6.926  21.347  0.00  0.00    +0.007 A 
ATOM     22  C   UNL     1      20.692   5.010  20.463  0.00  0.00    +0.044 C 
ENDBRANCH   6  14
BRANCH   2   5
ATOM      3  N   UNL     1      11.552  11.111  23.346  0.00  0.00    -0.305 NA
ATOM      5  C   UNL     1      11.412   9.619  20.833  0.00  0.00    +0.059 C 
ATOM     10  C   UNL     1      11.243   8.942  22.196  0.00  0.00    +0.034 C 
ATOM     11  C   UNL     1      12.253  10.890  20.983  0.00  0.00    +0.034 C 
ATOM     12  C   UNL     1      10.692   9.925  23.233  0.00  0.00    +0.085 C 
ATOM     13  C   UNL     1      11.670  11.809  22.059  0.00  0.00    +0.085 C 
ATOM     15  C   UNL     1      11.042  12.017  24.376  0.00  0.00    +0.104 C 
ENDBRANCH   2   5
TORSDOF 2
ENDMDL
MODEL 2
REMARK VINA RESULT:      -6.5     16.254     18.973
REMARK  Name = 45784194
REMARK  4 active torsions:
REMARK  status: ('A' for Active; 'I' for Inactive)
REMARK    1  A    between atoms: N_2  and  C_5
REMARK    2  A    between atoms: N_3  and  C_15
REMARK    3  A    between atoms: C_6  and  C_14
REMARK    4  A    between atoms: C_20  and  C_22
REMARK                            x       y       z     vdW  Elec       q    Type
REMARK                         _______ _______ _______ _____ _____    ______ ____
ROOT
ATOM      2  N   UNL     1      11.847   5.548   1.417  0.00  0.00    -0.299 NA
ATOM      6  C   UNL     1      10.189   5.325   3.061  0.00  0.00    +0.090 C 
ATOM      7  C   UNL     1      11.576   4.812   2.654  0.00  0.00    +0.097 C 
ATOM      8  C   UNL     1      11.408   6.917   1.689  0.00  0.00    +0.085 C 
ATOM      9  C   UNL     1      10.077   6.712   2.402  0.00  0.00    +0.029 C 
ENDROOT
BRANCH   6  14
ATOM      1  O   UNL     1       9.542   6.484   5.104  0.00  0.00    -0.439 OA
ATOM      4  N   UNL     1      10.141   4.319   5.399  0.00  0.00    -0.213 NA
ATOM     14  C   UNL     1       9.971   5.313   4.556  0.00  0.00    +0.201 A 
ATOM     16  C   UNL     1       9.799   4.868   6.611  0.00  0.00    +0.110 A 
ATOM     17  C   UNL     1       9.432   6.195   6.434  0.00  0.00    +0.155 A 
ATOM     18  C   UNL     1       9.770   4.323   7.902  0.00  0.00    +0.035 A 
ATOM     19  C   UNL     1       9.027   7.046   7.455  0.00  0.00    +0.049 A 
ATOM     20  C   UNL     1       9.366   5.154   8.959  0.00  0.00    -0.048 A 
ATOM     21  C   UNL     1       9.003   6.488   8.737  0.00  0.00    +0.007 A 
ATOM     22  C   UNL     1       9.325   4.603  10.346  0.00  0.00    +0.044 C 
ENDBRANCH   6  14
BRANCH   2   5
ATOM      3  N   UNL     1      15.364   4.251  -0.584  0.00  0.00    -0.305 NA
ATOM      5  C   UNL     1      13.252   5.482   1.025  0.00  0.00    +0.059 C 
ATOM     10  C   UNL     1      13.855   4.118   1.373  0.00  0.00    +0.034 C 
ATOM     11  C   UNL     1      13.396   5.748  -0.476  0.00  0.00    +0.034 C 
ATOM     12  C   UNL     1      15.294   4.008   0.864  0.00  0.00    +0.085 C 
ATOM     13  C   UNL     1      14.850   5.585  -0.925  0.00  0.00    +0.085 C 
ATOM     15  C   UNL     1      16.737   4.093  -1.064  0.00  0.00    +0.104 C 
ENDBRANCH   2   5
TORSDOF 2
ENDMDL
MODEL 3
REMARK VINA RESULT:      -6.4     26.620     29.671
REMARK  Name = 45784194
REMARK  4 active torsions:
REMARK  status: ('A' for Active; 'I' for Inactive)
REMARK    1  A    between atoms: N_2  and  C_5
REMARK    2  A    between atoms: N_3  and  C_15
REMARK    3  A    between atoms: C_6  and  C_14
REMARK    4  A    between atoms: C_20  and  C_22
REMARK                            x       y       z     vdW  Elec       q    Type
REMARK                         _______ _______ _______ _____ _____    ______ ____
ROOT
ATOM      2  N   UNL     1      -4.171 -11.323  17.126  0.00  0.00    -0.299 NA
ATOM      6  C   UNL     1      -5.837 -10.717  18.662  0.00  0.00    +0.090 C 
ATOM      7  C   UNL     1      -5.345 -10.454  17.233  0.00  0.00    +0.097 C 
ATOM      8  C   UNL     1      -4.576 -12.582  17.749  0.00  0.00    +0.085 C 
ATOM      9  C   UNL     1      -5.308 -12.122  19.003  0.00  0.00    +0.029 C 
ENDROOT
BRANCH   6  14
ATOM      1  O   UNL     1      -7.951  -9.835  17.831  0.00  0.00    -0.439 OA
ATOM      4  N   UNL     1      -8.114 -11.002  19.766  0.00  0.00    -0.213 NA
ATOM     14  C   UNL     1      -7.332 -10.549  18.811  0.00  0.00    +0.201 A 
ATOM     16  C   UNL     1      -9.359 -10.555  19.395  0.00  0.00    +0.110 A 
ATOM     17  C   UNL     1      -9.263  -9.840  18.210  0.00  0.00    +0.155 A 
ATOM     18  C   UNL     1     -10.616 -10.706  19.996  0.00  0.00    +0.035 A 
ATOM     19  C   UNL     1     -10.336  -9.248  17.554  0.00  0.00    +0.049 A 
ATOM     20  C   UNL     1     -11.723 -10.122  19.362  0.00  0.00    -0.048 A 
ATOM     21  C   UNL     1     -11.583  -9.408  18.166  0.00  0.00    +0.007 A 
ATOM     22  C   UNL     1     -13.077 -10.265  19.978  0.00  0.00    +0.044 C 
ENDBRANCH   6  14
BRANCH   2   5
ATOM      3  N   UNL     1      -2.673 -10.355  13.269  0.00  0.00    -0.305 NA
ATOM      5  C   UNL     1      -3.732 -11.501  15.744  0.00  0.00    +0.059 C 
ATOM     10  C   UNL     1      -4.602 -10.684  14.784  0.00  0.00    +0.034 C 
ATOM     11  C   UNL     1      -2.265 -11.090  15.597  0.00  0.00    +0.034 C 
ATOM     12  C   UNL     1      -4.077 -10.783  13.349  0.00  0.00    +0.085 C 
ATOM     13  C   UNL     1      -1.816 -11.175  14.137  0.00  0.00    +0.085 C 
ATOM     15  C   UNL     1      -2.200 -10.406  11.886  0.00  0.00    +0.104 C 
ENDBRANCH   2   5
TORSDOF 2
ENDMDL
MODEL 4
REMARK VINA RESULT:      -6.1      1.942      7.911
REMARK  Name = 45784194
REMARK  4 active torsions:
REMARK  status: ('A' for Active; 'I' for Inactive)
REMARK    1  A    between atoms: N_2  and  C_5
REMARK    2  A    between atoms: N_3  and  C_15
REMARK    3  A    between atoms: C_6  and  C_14
REMARK    4  A    between atoms: C_20  and  C_22
REMARK                            x       y       z     vdW  Elec       q    Type
REMARK                         _______ _______ _______ _____ _____    ______ ____
ROOT
ATOM      2  N   UNL     1      17.325   6.012  20.300  0.00  0.00    -0.299 NA
ATOM      6  C   UNL     1      15.068   6.564  20.624  0.00  0.00    +0.090 C 
ATOM      7  C   UNL     1      16.453   6.668  21.277  0.00  0.00    +0.097 C 
ATOM      8  C   UNL     1      16.875   6.509  19.000  0.00  0.00    +0.085 C 
ATOM      9  C   UNL     1      15.357   6.440  19.117  0.00  0.00    +0.029 C 
ENDROOT
BRANCH   6  14
ATOM      1  O   UNL     1      13.043   7.364  21.717  0.00  0.00    -0.439 OA
ATOM      4  N   UNL     1      14.282   8.984  20.731  0.00  0.00    -0.213 NA
ATOM     14  C   UNL     1      14.151   7.704  21.003  0.00  0.00    +0.201 A 
ATOM     16  C   UNL     1      13.172   9.547  21.312  0.00  0.00    +0.110 A 
ATOM     17  C   UNL     1      12.410   8.557  21.917  0.00  0.00    +0.155 A 
ATOM     18  C   UNL     1      12.731  10.876  21.376  0.00  0.00    +0.035 A 
ATOM     19  C   UNL     1      11.219   8.781  22.597  0.00  0.00    +0.049 A 
ATOM     20  C   UNL     1      11.532  11.140  22.055  0.00  0.00    -0.048 A 
ATOM     21  C   UNL     1      10.793  10.111  22.652  0.00  0.00    +0.007 A 
ATOM     22  C   UNL     1      11.035  12.546  22.140  0.00  0.00    +0.044 C 
ENDBRANCH   6  14
BRANCH   2   5
ATOM      3  N   UNL     1      21.204   5.710  22.008  0.00  0.00    -0.305 NA
ATOM      5  C   UNL     1      18.739   6.288  20.541  0.00  0.00    +0.059 C 
ATOM     10  C   UNL     1      18.966   6.767  21.978  0.00  0.00    +0.034 C 
ATOM     11  C   UNL     1      19.576   5.035  20.270  0.00  0.00    +0.034 C 
ATOM     12  C   UNL     1      20.459   6.951  22.265  0.00  0.00    +0.085 C 
ATOM     13  C   UNL     1      21.048   5.275  20.613  0.00  0.00    +0.085 C 
ATOM     15  C   UNL     1      22.619   5.886  22.335  0.00  0.00    +0.104 C 
ENDBRANCH   2   5
TORSDOF 2
ENDMDL
MODEL 5
REMARK VINA RESULT:      -6.1     27.360     28.711
REMARK  Name = 45784194
REMARK  4 active torsions:
REMARK  status: ('A' for Active; 'I' for Inactive)
REMARK    1  A    between atoms: N_2  and  C_5
REMARK    2  A    between atoms: N_3  and  C_15
REMARK    3  A    between atoms: C_6  and  C_14
REMARK    4  A    between atoms: C_20  and  C_22
REMARK                            x       y       z     vdW  Elec       q    Type
REMARK                         _______ _______ _______ _____ _____    ______ ____
ROOT
ATOM      2  N   UNL     1      -3.529 -10.263  10.061  0.00  0.00    -0.299 NA
ATOM      6  C   UNL     1      -2.955 -10.747  12.283  0.00  0.00    +0.090 C 
ATOM      7  C   UNL     1      -3.625  -9.685  11.403  0.00  0.00    +0.097 C 
ATOM      8  C   UNL     1      -3.873 -11.675  10.234  0.00  0.00    +0.085 C 
ATOM      9  C   UNL     1      -3.106 -12.060  11.493  0.00  0.00    +0.029 C 
ENDROOT
BRANCH   6  14
ATOM      1  O   UNL     1      -4.736 -10.217  13.860  0.00  0.00    -0.439 OA
ATOM      4  N   UNL     1      -2.963 -11.297  14.770  0.00  0.00    -0.213 NA
ATOM     14  C   UNL     1      -3.510 -10.786  13.689  0.00  0.00    +0.201 A 
ATOM     16  C   UNL     1      -3.899 -11.050  15.745  0.00  0.00    +0.110 A 
ATOM     17  C   UNL     1      -4.986 -10.389  15.191  0.00  0.00    +0.155 A 
ATOM     18  C   UNL     1      -3.913 -11.349  17.115  0.00  0.00    +0.035 A 
ATOM     19  C   UNL     1      -6.113  -9.989  15.899  0.00  0.00    +0.049 A 
ATOM     20  C   UNL     1      -5.035 -10.960  17.862  0.00  0.00    -0.048 A 
ATOM     21  C   UNL     1      -6.112 -10.294  17.263  0.00  0.00    +0.007 A 
ATOM     22  C   UNL     1      -5.079 -11.263  19.324  0.00  0.00    +0.044 C 
ENDBRANCH   6  14
BRANCH   2   5
ATOM      3  N   UNL     1      -7.002  -9.379   7.778  0.00  0.00    -0.305 NA
ATOM      5  C   UNL     1      -4.401  -9.592   9.100  0.00  0.00    +0.059 C 
ATOM     10  C   UNL     1      -4.833 -10.552   7.988  0.00  0.00    +0.034 C 
ATOM     11  C   UNL     1      -5.634  -9.026   9.810  0.00  0.00    +0.034 C 
ATOM     12  C   UNL     1      -5.833  -9.881   7.042  0.00  0.00    +0.085 C 
ATOM     13  C   UNL     1      -6.608  -8.406   8.805  0.00  0.00    +0.085 C 
ATOM     15  C   UNL     1      -7.971  -8.787   6.856  0.00  0.00    +0.104 C 
ENDBRANCH   2   5
TORSDOF 2
ENDMDL
MODEL 6
REMARK VINA RESULT:      -6.0     16.994     18.776
REMARK  Name = 45784194
REMARK  4 active torsions:
REMARK  status: ('A' for Active; 'I' for Inactive)
REMARK    1  A    between atoms: N_2  and  C_5
REMARK    2  A    between atoms: N_3  and  C_15
REMARK    3  A    between atoms: C_6  and  C_14
REMARK    4  A    between atoms: C_20  and  C_22
REMARK                            x       y       z     vdW  Elec       q    Type
REMARK                         _______ _______ _______ _____ _____    ______ ____
ROOT
ATOM      2  N   UNL     1       9.591   7.042   4.903  0.00  0.00    -0.299 NA
ATOM      6  C   UNL     1      10.557   6.954   2.768  0.00  0.00    +0.090 C 
ATOM      7  C   UNL     1      10.554   6.253   4.132  0.00  0.00    +0.097 C 
ATOM      8  C   UNL     1       8.480   7.284   3.984  0.00  0.00    +0.085 C 
ATOM      9  C   UNL     1       9.187   7.651   2.685  0.00  0.00    +0.029 C 
ENDROOT
BRANCH   6  14
ATOM      1  O   UNL     1      11.974   5.243   1.767  0.00  0.00    -0.439 OA
ATOM      4  N   UNL     1      10.194   5.850   0.503  0.00  0.00    -0.213 NA
ATOM     14  C   UNL     1      10.863   6.017   1.622  0.00  0.00    +0.201 A 
ATOM     16  C   UNL     1      10.917   4.886  -0.157  0.00  0.00    +0.110 A 
ATOM     17  C   UNL     1      12.008   4.511   0.615  0.00  0.00    +0.155 A 
ATOM     18  C   UNL     1      10.726   4.272  -1.403  0.00  0.00    +0.035 A 
ATOM     19  C   UNL     1      12.948   3.557   0.246  0.00  0.00    +0.049 A 
ATOM     20  C   UNL     1      11.655   3.302  -1.809  0.00  0.00    -0.048 A 
ATOM     21  C   UNL     1      12.743   2.953  -0.999  0.00  0.00    +0.007 A 
ATOM     22  C   UNL     1      11.478   2.630  -3.131  0.00  0.00    +0.044 C 
ENDBRANCH   6  14
BRANCH   2   5
ATOM      3  N   UNL     1       9.788   5.374   8.807  0.00  0.00    -0.305 NA
ATOM      5  C   UNL     1       9.165   6.363   6.125  0.00  0.00    +0.059 C 
ATOM     10  C   UNL     1       9.981   5.088   6.356  0.00  0.00    +0.034 C 
ATOM     11  C   UNL     1       9.306   7.299   7.327  0.00  0.00    +0.034 C 
ATOM     12  C   UNL     1       9.611   4.435   7.691  0.00  0.00    +0.085 C 
ATOM     13  C   UNL     1       8.959   6.574   8.630  0.00  0.00    +0.085 C 
ATOM     15  C   UNL     1       9.480   4.722  10.079  0.00  0.00    +0.104 C 
ENDBRANCH   2   5
TORSDOF 2
ENDMDL
MODEL 7
REMARK VINA RESULT:      -6.0     26.734     28.725
REMARK  Name = 45784194
REMARK  4 active torsions:
REMARK  status: ('A' for Active; 'I' for Inactive)
REMARK    1  A    between atoms: N_2  and  C_5
REMARK    2  A    between atoms: N_3  and  C_15
REMARK    3  A    between atoms: C_6  and  C_14
REMARK    4  A    between atoms: C_20  and  C_22
REMARK                            x       y       z     vdW  Elec       q    Type
REMARK                         _______ _______ _______ _____ _____    ______ ____
ROOT
ATOM      2  N   UNL     1      -5.633 -12.195  17.966  0.00  0.00    -0.299 NA
ATOM      6  C   UNL     1      -4.079 -11.773  16.261  0.00  0.00    +0.090 C 
ATOM      7  C   UNL     1      -5.450 -12.408  16.528  0.00  0.00    +0.097 C 
ATOM      8  C   UNL     1      -5.185 -10.823  18.204  0.00  0.00    +0.085 C 
ATOM      9  C   UNL     1      -3.902 -10.738  17.387  0.00  0.00    +0.029 C 
ENDROOT
BRANCH   6  14
ATOM      1  O   UNL     1      -2.680 -11.112  14.379  0.00  0.00    -0.439 OA
ATOM      4  N   UNL     1      -4.903 -10.821  14.047  0.00  0.00    -0.213 NA
ATOM     14  C   UNL     1      -3.949 -11.217  14.861  0.00  0.00    +0.201 A 
ATOM     16  C   UNL     1      -4.216 -10.417  12.928  0.00  0.00    +0.110 A 
ATOM     17  C   UNL     1      -2.854 -10.593  13.127  0.00  0.00    +0.155 A 
ATOM     18  C   UNL     1      -4.660  -9.892  11.706  0.00  0.00    +0.035 A 
ATOM     19  C   UNL     1      -1.872 -10.286  12.194  0.00  0.00    +0.049 A 
ATOM     20  C   UNL     1      -3.697  -9.570  10.739  0.00  0.00    -0.048 A 
ATOM     21  C   UNL     1      -2.331  -9.764  10.981  0.00  0.00    +0.007 A 
ATOM     22  C   UNL     1      -4.138  -9.008   9.427  0.00  0.00    +0.044 C 
ENDBRANCH   6  14
BRANCH   2   5
ATOM      3  N   UNL     1      -9.803 -11.524  18.439  0.00  0.00    -0.305 NA
ATOM      5  C   UNL     1      -7.015 -12.411  18.389  0.00  0.00    +0.059 C 
ATOM     10  C   UNL     1      -7.494 -11.272  19.294  0.00  0.00    +0.034 C 
ATOM     11  C   UNL     1      -7.931 -12.527  17.168  0.00  0.00    +0.034 C 
ATOM     12  C   UNL     1      -8.974 -11.440  19.650  0.00  0.00    +0.085 C 
ATOM     13  C   UNL     1      -9.396 -12.654  17.592  0.00  0.00    +0.085 C 
ATOM     15  C   UNL     1     -11.218 -11.633  18.793  0.00  0.00    +0.104 C 
ENDBRANCH   2   5
TORSDOF 2
ENDMDL
MODEL 8
REMARK VINA RESULT:      -6.0     29.581     32.084
REMARK  Name = 45784194
REMARK  4 active torsions:
REMARK  status: ('A' for Active; 'I' for Inactive)
REMARK    1  A    between atoms: N_2  and  C_5
REMARK    2  A    between atoms: N_3  and  C_15
REMARK    3  A    between atoms: C_6  and  C_14
REMARK    4  A    between atoms: C_20  and  C_22
REMARK                            x       y       z     vdW  Elec       q    Type
REMARK                         _______ _______ _______ _____ _____    ______ ____
ROOT
ATOM      2  N   UNL     1     -17.009   3.576  24.808  0.00  0.00    -0.299 NA
ATOM      6  C   UNL     1     -17.000   2.075  26.612  0.00  0.00    +0.090 C 
ATOM      7  C   UNL     1     -16.076   2.932  25.736  0.00  0.00    +0.097 C 
ATOM      8  C   UNL     1     -18.142   3.986  25.637  0.00  0.00    +0.085 C 
ATOM      9  C   UNL     1     -18.372   2.769  26.525  0.00  0.00    +0.029 C 
ENDROOT
BRANCH   6  14
ATOM      1  O   UNL     1     -16.114   0.613  28.348  0.00  0.00    -0.439 OA
ATOM      4  N   UNL     1     -16.315   2.786  28.959  0.00  0.00    -0.213 NA
ATOM     14  C   UNL     1     -16.473   1.884  28.015  0.00  0.00    +0.201 A 
ATOM     16  C   UNL     1     -15.810   2.059  30.010  0.00  0.00    +0.110 A 
ATOM     17  C   UNL     1     -15.685   0.728  29.639  0.00  0.00    +0.155 A 
ATOM     18  C   UNL     1     -15.431   2.441  31.304  0.00  0.00    +0.035 A 
ATOM     19  C   UNL     1     -15.204  -0.281  30.464  0.00  0.00    +0.049 A 
ATOM     20  C   UNL     1     -14.939   1.448  32.166  0.00  0.00    -0.048 A 
ATOM     21  C   UNL     1     -14.830   0.115  31.751  0.00  0.00    +0.007 A 
ATOM     22  C   UNL     1     -14.528   1.823  33.552  0.00  0.00    +0.044 C 
ENDBRANCH   6  14
BRANCH   2   5
ATOM      3  N   UNL     1     -15.006   5.736  21.746  0.00  0.00    -0.305 NA
ATOM      5  C   UNL     1     -16.403   4.700  24.099  0.00  0.00    +0.059 C 
ATOM     10  C   UNL     1     -14.909   4.458  23.863  0.00  0.00    +0.034 C 
ATOM     11  C   UNL     1     -17.113   4.926  22.761  0.00  0.00    +0.034 C 
ATOM     12  C   UNL     1     -14.297   5.583  23.024  0.00  0.00    +0.085 C 
ATOM     13  C   UNL     1     -16.429   6.035  21.958  0.00  0.00    +0.085 C 
ATOM     15  C   UNL     1     -14.379   6.779  20.934  0.00  0.00    +0.104 C 
ENDBRANCH   2   5
TORSDOF 2
ENDMDL
MODEL 9
REMARK VINA RESULT:      -5.9     28.561     31.261
REMARK  Name = 45784194
REMARK  4 active torsions:
REMARK  status: ('A' for Active; 'I' for Inactive)
REMARK    1  A    between atoms: N_2  and  C_5
REMARK    2  A    between atoms: N_3  and  C_15
REMARK    3  A    between atoms: C_6  and  C_14
REMARK    4  A    between atoms: C_20  and  C_22
REMARK                            x       y       z     vdW  Elec       q    Type
REMARK                         _______ _______ _______ _____ _____    ______ ____
ROOT
ATOM      2  N   UNL     1     -16.193   4.577  31.896  0.00  0.00    -0.299 NA
ATOM      6  C   UNL     1     -15.420   6.544  32.915  0.00  0.00    +0.090 C 
ATOM      7  C   UNL     1     -15.147   5.038  32.811  0.00  0.00    +0.097 C 
ATOM      8  C   UNL     1     -16.239   5.586  30.837  0.00  0.00    +0.085 C 
ATOM      9  C   UNL     1     -16.161   6.895  31.612  0.00  0.00    +0.029 C 
ENDROOT
BRANCH   6  14
ATOM      1  O   UNL     1     -13.409   7.637  32.081  0.00  0.00    -0.439 OA
ATOM      4  N   UNL     1     -13.722   7.822  34.317  0.00  0.00    -0.213 NA
ATOM     14  C   UNL     1     -14.171   7.354  33.173  0.00  0.00    +0.201 A 
ATOM     16  C   UNL     1     -12.565   8.471  33.962  0.00  0.00    +0.110 A 
ATOM     17  C   UNL     1     -12.370   8.360  32.593  0.00  0.00    +0.155 A 
ATOM     18  C   UNL     1     -11.625   9.177  34.726  0.00  0.00    +0.035 A 
ATOM     19  C   UNL     1     -11.294   8.903  31.900  0.00  0.00    +0.049 A 
ATOM     20  C   UNL     1     -10.525   9.740  34.061  0.00  0.00    -0.048 A 
ATOM     21  C   UNL     1     -10.366   9.604  32.676  0.00  0.00    +0.007 A 
ATOM     22  C   UNL     1      -9.506  10.497  34.847  0.00  0.00    +0.044 C 
ENDBRANCH   6  14
BRANCH   2   5
ATOM      3  N   UNL     1     -14.017   1.196  30.522  0.00  0.00    -0.305 NA
ATOM      5  C   UNL     1     -15.931   3.237  31.377  0.00  0.00    +0.059 C 
ATOM     10  C   UNL     1     -15.216   3.304  30.025  0.00  0.00    +0.034 C 
ATOM     11  C   UNL     1     -15.088   2.439  32.375  0.00  0.00    +0.034 C 
ATOM     12  C   UNL     1     -14.842   1.903  29.532  0.00  0.00    +0.085 C 
ATOM     13  C   UNL     1     -14.719   1.067  31.806  0.00  0.00    +0.085 C 
ATOM     15  C   UNL     1     -13.626  -0.120  30.017  0.00  0.00    +0.104 C 
ENDBRANCH   2   5
TORSDOF 2
ENDMDL
MODEL 10
REMARK VINA RESULT:      -5.9     26.548     29.666
REMARK  Name = 45784194
REMARK  4 active torsions:
REMARK  status: ('A' for Active; 'I' for Inactive)
REMARK    1  A    between atoms: N_2  and  C_5
REMARK    2  A    between atoms: N_3  and  C_15
REMARK    3  A    between atoms: C_6  and  C_14
REMARK    4  A    between atoms: C_20  and  C_22
REMARK                            x       y       z     vdW  Elec       q    Type
REMARK                         _______ _______ _______ _____ _____    ______ ____
ROOT
ATOM      2  N   UNL     1      -4.475 -11.536  17.597  0.00  0.00    -0.299 NA
ATOM      6  C   UNL     1      -6.383 -10.470  18.448  0.00  0.00    +0.090 C 
ATOM      7  C   UNL     1      -5.315 -10.361  17.353  0.00  0.00    +0.097 C 
ATOM      8  C   UNL     1      -5.416 -12.622  17.869  0.00  0.00    +0.085 C 
ATOM      9  C   UNL     1      -6.430 -11.969  18.799  0.00  0.00    +0.029 C 
ENDROOT
BRANCH   6  14
ATOM      1  O   UNL     1      -8.814 -10.428  18.613  0.00  0.00    -0.439 OA
ATOM      4  N   UNL     1      -7.939  -8.883  17.205  0.00  0.00    -0.213 NA
ATOM     14  C   UNL     1      -7.710  -9.872  18.041  0.00  0.00    +0.201 A 
ATOM     16  C   UNL     1      -9.307  -8.767  17.218  0.00  0.00    +0.110 A 
ATOM     17  C   UNL     1      -9.847  -9.712  18.079  0.00  0.00    +0.155 A 
ATOM     18  C   UNL     1     -10.172  -7.897  16.538  0.00  0.00    +0.035 A 
ATOM     19  C   UNL     1     -11.205  -9.870  18.329  0.00  0.00    +0.049 A 
ATOM     20  C   UNL     1     -11.550  -8.027  16.765  0.00  0.00    -0.048 A 
ATOM     21  C   UNL     1     -12.053  -8.995  17.643  0.00  0.00    +0.007 A 
ATOM     22  C   UNL     1     -12.496  -7.116  16.055  0.00  0.00    +0.044 C 
ENDBRANCH   6  14
BRANCH   2   5
ATOM      3  N   UNL     1      -2.748 -11.301  13.721  0.00  0.00    -0.305 NA
ATOM      5  C   UNL     1      -3.592 -11.833  16.472  0.00  0.00    +0.059 C 
ATOM     10  C   UNL     1      -4.391 -12.326  15.263  0.00  0.00    +0.034 C 
ATOM     11  C   UNL     1      -2.782 -10.590  16.092  0.00  0.00    +0.034 C 
ATOM     12  C   UNL     1      -3.480 -12.533  14.050  0.00  0.00    +0.085 C 
ATOM     13  C   UNL     1      -1.924 -10.854  14.853  0.00  0.00    +0.085 C 
ATOM     15  C   UNL     1      -1.921 -11.499  12.531  0.00  0.00    +0.104 C 
ENDBRANCH   2   5
TORSDOF 2
ENDMDL
