REMARK  Name = 51136940
REMARK  5 active torsions:
REMARK  status: ('A' for Active; 'I' for Inactive)
REMARK    1  A    between atoms: N_3  and  C_12
REMARK    2  A    between atoms: N_4  and  C_21
REMARK    3  A    between atoms: C_8  and  C_13
REMARK    4  A    between atoms: C_12  and  C_14
REMARK    5  A    between atoms: C_20  and  C_24
REMARK                            x       y       z     vdW  Elec       q    Type
REMARK                         _______ _______ _______ _____ _____    ______ ____
ROOT
ATOM      3  N   UNL     1      -3.196  -0.384  -0.563  0.00  0.00    -0.287 NA
ATOM      8  C   UNL     1      -2.833  -1.570   0.238  0.00  0.00    +0.146 C 
ATOM      9  C   UNL     1      -3.379  -2.765  -0.565  0.00  0.00    +0.030 C 
ATOM     10  C   UNL     1      -4.404  -0.741  -1.308  0.00  0.00    +0.085 C 
ATOM     11  C   UNL     1      -4.084  -2.150  -1.766  0.00  0.00    +0.017 C 
ENDROOT
BRANCH   8  13
ATOM      2  O   UNL     1      -0.964  -2.320   1.621  0.00  0.00    -0.336 OA
ATOM      5  N   UNL     1      -0.348  -1.210  -0.224  0.00  0.00    -0.189 NA
ATOM      6  N   UNL     1       0.436  -2.281   1.639  0.00  0.00    -0.054 NA
ATOM     13  C   UNL     1      -1.344  -1.668   0.492  0.00  0.00    +0.245 A 
ATOM     20  C   UNL     1       0.724  -1.610   0.520  0.00  0.00    +0.220 A 
BRANCH  20  24
ATOM      1  F   UNL     1       5.945  -0.604  -0.883  0.00  0.00    -0.204 F 
ATOM      7  N   UNL     1       3.039  -1.778   0.943  0.00  0.00    -0.249 NA
ATOM     24  C   UNL     1       2.070  -1.325   0.115  0.00  0.00    +0.111 A 
ATOM     25  C   UNL     1       2.315  -0.627  -1.056  0.00  0.00    +0.034 A 
ATOM     26  C   UNL     1       3.639  -0.378  -1.401  0.00  0.00    +0.042 A 
ATOM     27  C   UNL     1       4.313  -1.517   0.575  0.00  0.00    +0.149 A 
ATOM     28  C   UNL     1       4.663  -0.828  -0.576  0.00  0.00    +0.141 A 
ENDBRANCH  20  24
ENDBRANCH   8  13
BRANCH   3  12
ATOM     12  C   UNL     1      -3.384   0.817   0.242  0.00  0.00    +0.122 C 
BRANCH  12  14
ATOM      4  N   UNL     1      -0.391   2.277   1.806  0.00  0.00    -0.349 N 
ATOM     14  C   UNL     1      -2.071   1.454   0.613  0.00  0.00    -0.008 A 
ATOM     15  C   UNL     1      -1.075   1.925  -0.288  0.00  0.00    +0.004 A 
ATOM     16  C   UNL     1      -1.621   1.684   1.892  0.00  0.00    +0.091 A 
ATOM     17  C   UNL     1      -0.031   2.437   0.487  0.00  0.00    +0.049 A 
ATOM     18  C   UNL     1      -0.960   1.966  -1.691  0.00  0.00    +0.010 A 
ATOM     19  C   UNL     1       1.126   2.989  -0.074  0.00  0.00    +0.026 A 
ATOM     21  C   UNL     1       0.406   2.673   2.948  0.00  0.00    +0.149 C 
ATOM     22  C   UNL     1       0.191   2.516  -2.267  0.00  0.00    +0.001 A 
ATOM     23  C   UNL     1       1.217   3.018  -1.469  0.00  0.00    +0.002 A 
ENDBRANCH  12  14
ENDBRANCH   3  12
TORSDOF 4
