REMARK  Name = 45783767
REMARK  6 active torsions:
REMARK  status: ('A' for Active; 'I' for Inactive)
REMARK    1  A    between atoms: N_4  and  C_13
REMARK    2  A    between atoms: N_8  and  C_26
REMARK    3  A    between atoms: N_8  and  C_27
REMARK    4  A    between atoms: C_9  and  C_14
REMARK    5  A    between atoms: C_13  and  C_15
REMARK    6  A    between atoms: C_18  and  C_21
REMARK                            x       y       z     vdW  Elec       q    Type
REMARK                         _______ _______ _______ _____ _____    ______ ____
ROOT
ATOM      4  N   UNL     1      -3.345  -0.985  -0.622  0.00  0.00    -0.287 NA
ATOM      9  C   UNL     1      -2.770  -1.737   0.511  0.00  0.00    +0.146 C 
ATOM     10  C   UNL     1      -2.946  -3.218   0.127  0.00  0.00    +0.030 C 
ATOM     11  C   UNL     1      -3.682  -3.199  -1.205  0.00  0.00    +0.017 C 
ATOM     12  C   UNL     1      -4.368  -1.847  -1.214  0.00  0.00    +0.085 C 
ENDROOT
BRANCH   9  14
ATOM      3  O   UNL     1      -1.038  -0.917   2.027  0.00  0.00    -0.336 OA
ATOM      5  N   UNL     1      -0.292  -1.424  -0.023  0.00  0.00    -0.190 NA
ATOM      6  N   UNL     1       0.337  -0.647   2.035  0.00  0.00    -0.056 NA
ATOM     14  C   UNL     1      -1.325  -1.371   0.779  0.00  0.00    +0.245 A 
ATOM     18  C   UNL     1       0.704  -0.970   0.791  0.00  0.00    +0.204 A 
BRANCH  18  21
ATOM      7  N   UNL     1       4.354  -0.257   0.800  0.00  0.00    -0.240 NA
ATOM     21  C   UNL     1       2.058  -0.854   0.332  0.00  0.00    +0.041 A 
ATOM     23  C   UNL     1       2.406  -1.201  -0.968  0.00  0.00    +0.016 A 
ATOM     24  C   UNL     1       3.060  -0.391   1.170  0.00  0.00    +0.124 A 
ATOM     25  C   UNL     1       3.727  -1.077  -1.385  0.00  0.00    +0.044 A 
ATOM     26  C   UNL     1       4.654  -0.605  -0.471  0.00  0.00    +0.118 A 
BRANCH  26   8
ATOM      8  N   UNL     1       5.996  -0.485  -0.910  0.00  0.00    -0.332 N 
ATOM     27  C   UNL     1       7.044  -0.011  -0.066  0.00  0.00    +0.127 C 
ATOM     28  H   UNL     1       6.160  -0.527  -1.911  0.00  0.00    +0.147 HD
ENDBRANCH  26   8
ENDBRANCH  18  21
ENDBRANCH   9  14
BRANCH   4  13
ATOM     13  C   UNL     1      -3.880   0.315  -0.236  0.00  0.00    +0.120 C 
BRANCH  13  15
ATOM      1  F   UNL     1      -0.162   2.890  -2.072  0.00  0.00    -0.202 F 
ATOM      2  F   UNL     1       0.186   4.176   0.315  0.00  0.00    -0.202 F 
ATOM     15  C   UNL     1      -2.793   1.346  -0.089  0.00  0.00    -0.030 A 
ATOM     16  C   UNL     1      -1.964   1.646  -1.170  0.00  0.00    +0.046 A 
ATOM     17  C   UNL     1      -2.615   2.003   1.129  0.00  0.00    +0.008 A 
ATOM     19  C   UNL     1      -0.958   2.602  -1.034  0.00  0.00    +0.159 A 
ATOM     20  C   UNL     1      -1.609   2.959   1.265  0.00  0.00    +0.041 A 
ATOM     22  C   UNL     1      -0.780   3.259   0.184  0.00  0.00    +0.158 A 
ENDBRANCH  13  15
ENDBRANCH   4  13
TORSDOF 5
