REMARK  Name = 75537065
REMARK  3 active torsions:
REMARK  status: ('A' for Active; 'I' for Inactive)
REMARK    1  A    between atoms: N_2  and  C_6
REMARK    2  A    between atoms: N_4  and  C_16
REMARK    3  A    between atoms: C_16  and  C_17
REMARK                            x       y       z     vdW  Elec       q    Type
REMARK                         _______ _______ _______ _____ _____    ______ ____
ROOT
ATOM      1  O   UNL     1      -1.163   2.675  -0.694  0.00  0.00    -0.252 OA
ATOM      2  N   UNL     1       3.081  -0.012   0.011  0.00  0.00    -0.296 NA
ATOM      3  N   UNL     1       0.689   1.458   0.086  0.00  0.00    -0.278 N 
ATOM      4  N   UNL     1      -1.328   1.004   0.964  0.00  0.00    -0.279 N 
ATOM      7  C   UNL     1       0.958   0.499   1.138  0.00  0.00    +0.109 C 
ATOM      8  C   UNL     1       1.878  -0.608   0.625  0.00  0.00    +0.108 C 
ATOM     12  C   UNL     1       2.718   0.855  -1.128  0.00  0.00    +0.104 C 
ATOM     13  C   UNL     1       1.792   1.992  -0.687  0.00  0.00    +0.125 C 
ATOM     14  C   UNL     1      -0.432   0.032   1.566  0.00  0.00    +0.133 C 
ATOM     15  C   UNL     1      -0.663   1.823   0.030  0.00  0.00    +0.305 C 
ENDROOT
BRANCH   2   6
ATOM      6  C   UNL     1       3.956  -1.076  -0.459  0.00  0.00    +0.057 C 
ATOM      9  C   UNL     1       4.730  -1.665   0.741  0.00  0.00    +0.019 C 
ATOM     10  C   UNL     1       5.294  -0.466  -0.928  0.00  0.00    +0.019 C 
ATOM     11  C   UNL     1       5.987  -1.612  -0.157  0.00  0.00    +0.003 C 
ENDBRANCH   2   6
BRANCH   4  16
ATOM     16  C   UNL     1      -2.752   0.993   1.216  0.00  0.00    +0.146 C 
BRANCH  16  17
ATOM      5  N   UNL     1      -4.556  -2.175   0.211  0.00  0.00    -0.263 NA
ATOM     17  C   UNL     1      -3.464  -0.024   0.371  0.00  0.00    -0.012 A 
ATOM     18  C   UNL     1      -3.695   0.203  -0.981  0.00  0.00    +0.008 A 
ATOM     19  C   UNL     1      -3.910  -1.218   0.914  0.00  0.00    +0.115 A 
ATOM     20  C   UNL     1      -4.357  -0.758  -1.738  0.00  0.00    +0.020 A 
ATOM     21  C   UNL     1      -4.763  -1.919  -1.101  0.00  0.00    +0.111 A 
ENDBRANCH  16  17
ENDBRANCH   4  16
TORSDOF 3
