MODEL 1
REMARK VINA RESULT:      -8.0      0.000      0.000
REMARK  Name = 26743636
REMARK  5 active torsions:
REMARK  status: ('A' for Active; 'I' for Inactive)
REMARK    1  A    between atoms: O_5  and  C_14
REMARK    2  A    between atoms: N_7  and  C_10
REMARK    3  A    between atoms: C_11  and  C_17
REMARK    4  A    between atoms: C_20  and  C_21
REMARK    5  A    between atoms: C_26  and  C_27
REMARK                            x       y       z     vdW  Elec       q    Type
REMARK                         _______ _______ _______ _____ _____    ______ ____
ROOT
ATOM      6  O   UNL     1      15.259  10.391  20.830  0.00  0.00    -0.336 OA
ATOM      8  N   UNL     1      15.189   8.177  20.495  0.00  0.00    -0.190 NA
ATOM      9  N   UNL     1      16.581   9.938  20.939  0.00  0.00    -0.056 NA
ATOM     17  C   UNL     1      14.505   9.291  20.568  0.00  0.00    +0.245 A 
ATOM     20  C   UNL     1      16.457   8.624  20.730  0.00  0.00    +0.202 A 
ENDROOT
BRANCH  20  21
ATOM     21  C   UNL     1      17.579   7.730  20.750  0.00  0.00    +0.022 A 
ATOM     22  C   UNL     1      18.682   8.013  21.555  0.00  0.00    +0.012 A 
ATOM     23  C   UNL     1      17.565   6.579  19.964  0.00  0.00    +0.012 A 
ATOM     24  C   UNL     1      19.773   7.144  21.575  0.00  0.00    +0.013 A 
ATOM     25  C   UNL     1      18.656   5.708  19.983  0.00  0.00    +0.013 A 
ATOM     26  C   UNL     1      19.760   5.991  20.788  0.00  0.00    +0.055 A 
BRANCH  26  27
ATOM      1  F   UNL     1      21.514   4.948  22.035  0.00  0.00    -0.166 F 
ATOM      2  F   UNL     1      21.921   5.450  19.959  0.00  0.00    -0.166 F 
ATOM      3  F   UNL     1      20.612   3.783  20.444  0.00  0.00    -0.166 F 
ATOM     27  C   UNL     1      20.925   5.062  20.808  0.00  0.00    +0.417 C 
ENDBRANCH  26  27
ENDBRANCH  20  21
BRANCH  17  11
ATOM      7  N   UNL     1      12.418   8.630  19.385  0.00  0.00    -0.286 NA
ATOM     11  C   UNL     1      13.017   9.517  20.402  0.00  0.00    +0.149 C 
ATOM     12  C   UNL     1      11.031   8.413  19.791  0.00  0.00    +0.116 C 
ATOM     13  C   UNL     1      12.224   9.232  21.691  0.00  0.00    +0.061 C 
ATOM     14  C   UNL     1      11.172   8.206  21.286  0.00  0.00    +0.130 C 
BRANCH   7  10
ATOM      4  O   UNL     1      12.669   8.674  15.194  0.00  0.00    -0.380 OA
ATOM     10  C   UNL     1      12.516   9.162  18.027  0.00  0.00    +0.062 C 
ATOM     15  C   UNL     1      13.793   8.656  17.349  0.00  0.00    +0.047 C 
ATOM     16  C   UNL     1      11.291   8.773  17.193  0.00  0.00    +0.047 C 
ATOM     18  C   UNL     1      13.835   9.110  15.894  0.00  0.00    +0.161 C 
ATOM     19  C   UNL     1      11.472   9.220  15.747  0.00  0.00    +0.161 C 
ENDBRANCH   7  10
BRANCH  14   5
ATOM      5  O   UNL     1       9.955   8.441  21.967  0.00  0.00    -0.390 OA
ATOM     28  H   UNL     1      10.097   9.190  22.570  0.00  0.00    +0.210 HD
ENDBRANCH  14   5
ENDBRANCH  17  11
TORSDOF 5
ENDMDL
MODEL 2
REMARK VINA RESULT:      -7.9      1.489      3.744
REMARK  Name = 26743636
REMARK  5 active torsions:
REMARK  status: ('A' for Active; 'I' for Inactive)
REMARK    1  A    between atoms: O_5  and  C_14
REMARK    2  A    between atoms: N_7  and  C_10
REMARK    3  A    between atoms: C_11  and  C_17
REMARK    4  A    between atoms: C_20  and  C_21
REMARK    5  A    between atoms: C_26  and  C_27
REMARK                            x       y       z     vdW  Elec       q    Type
REMARK                         _______ _______ _______ _____ _____    ______ ____
ROOT
ATOM      6  O   UNL     1      16.014   8.604  20.089  0.00  0.00    -0.336 OA
ATOM      8  N   UNL     1      16.473   6.441  19.727  0.00  0.00    -0.190 NA
ATOM      9  N   UNL     1      17.285   8.378  20.632  0.00  0.00    -0.056 NA
ATOM     17  C   UNL     1      15.607   7.412  19.577  0.00  0.00    +0.245 A 
ATOM     20  C   UNL     1      17.485   7.082  20.380  0.00  0.00    +0.202 A 
ENDROOT
BRANCH  20  21
ATOM     21  C   UNL     1      18.684   6.396  20.767  0.00  0.00    +0.022 A 
ATOM     22  C   UNL     1      19.174   5.351  19.984  0.00  0.00    +0.012 A 
ATOM     23  C   UNL     1      19.361   6.775  21.926  0.00  0.00    +0.012 A 
ATOM     24  C   UNL     1      20.339   4.684  20.360  0.00  0.00    +0.013 A 
ATOM     25  C   UNL     1      20.527   6.109  22.303  0.00  0.00    +0.013 A 
ATOM     26  C   UNL     1      21.016   5.063  21.520  0.00  0.00    +0.055 A 
BRANCH  26  27
ATOM      1  F   UNL     1      22.036   3.215  22.645  0.00  0.00    -0.166 F 
ATOM      2  F   UNL     1      23.080   5.121  22.698  0.00  0.00    -0.166 F 
ATOM      3  F   UNL     1      23.032   3.953  20.866  0.00  0.00    -0.166 F 
ATOM     27  C   UNL     1      22.263   4.351  21.922  0.00  0.00    +0.417 C 
ENDBRANCH  26  27
ENDBRANCH  20  21
BRANCH  17  11
ATOM      7  N   UNL     1      13.341   8.433  19.452  0.00  0.00    -0.286 NA
ATOM     11  C   UNL     1      14.242   7.390  18.922  0.00  0.00    +0.149 C 
ATOM     12  C   UNL     1      12.430   8.785  18.365  0.00  0.00    +0.116 C 
ATOM     13  C   UNL     1      14.304   7.656  17.406  0.00  0.00    +0.061 C 
ATOM     14  C   UNL     1      13.371   8.838  17.176  0.00  0.00    +0.130 C 
BRANCH   7  10
ATOM      4  O   UNL     1      10.160   7.193  21.897  0.00  0.00    -0.380 OA
ATOM     10  C   UNL     1      12.624   8.016  20.656  0.00  0.00    +0.062 C 
ATOM     15  C   UNL     1      11.495   9.001  20.971  0.00  0.00    +0.047 C 
ATOM     16  C   UNL     1      12.057   6.602  20.497  0.00  0.00    +0.047 C 
ATOM     18  C   UNL     1      10.670   8.502  22.152  0.00  0.00    +0.161 C 
ATOM     19  C   UNL     1      11.202   6.236  21.705  0.00  0.00    +0.161 C 
ENDBRANCH   7  10
BRANCH  14   5
ATOM      5  O   UNL     1      12.677   8.698  15.951  0.00  0.00    -0.390 OA
ATOM     28  H   UNL     1      12.838   9.503  15.430  0.00  0.00    +0.210 HD
ENDBRANCH  14   5
ENDBRANCH  17  11
TORSDOF 5
ENDMDL
MODEL 3
REMARK VINA RESULT:      -7.3      1.577      2.162
REMARK  Name = 26743636
REMARK  5 active torsions:
REMARK  status: ('A' for Active; 'I' for Inactive)
REMARK    1  A    between atoms: O_5  and  C_14
REMARK    2  A    between atoms: N_7  and  C_10
REMARK    3  A    between atoms: C_11  and  C_17
REMARK    4  A    between atoms: C_20  and  C_21
REMARK    5  A    between atoms: C_26  and  C_27
REMARK                            x       y       z     vdW  Elec       q    Type
REMARK                         _______ _______ _______ _____ _____    ______ ____
ROOT
ATOM      6  O   UNL     1      14.408   6.651  19.461  0.00  0.00    -0.336 OA
ATOM      8  N   UNL     1      15.630   7.840  20.914  0.00  0.00    -0.190 NA
ATOM      9  N   UNL     1      15.705   6.123  19.404  0.00  0.00    -0.056 NA
ATOM     17  C   UNL     1      14.451   7.658  20.374  0.00  0.00    +0.245 A 
ATOM     20  C   UNL     1      16.365   6.876  20.288  0.00  0.00    +0.202 A 
ENDROOT
BRANCH  20  21
ATOM     21  C   UNL     1      17.760   6.693  20.568  0.00  0.00    +0.022 A 
ATOM     22  C   UNL     1      18.469   5.670  19.941  0.00  0.00    +0.012 A 
ATOM     23  C   UNL     1      18.407   7.540  21.468  0.00  0.00    +0.012 A 
ATOM     24  C   UNL     1      19.825   5.491  20.213  0.00  0.00    +0.013 A 
ATOM     25  C   UNL     1      19.764   7.363  21.741  0.00  0.00    +0.013 A 
ATOM     26  C   UNL     1      20.473   6.338  21.113  0.00  0.00    +0.055 A 
BRANCH  26  27
ATOM      1  F   UNL     1      22.431   7.068  22.277  0.00  0.00    -0.166 F 
ATOM      2  F   UNL     1      22.699   6.239  20.286  0.00  0.00    -0.166 F 
ATOM      3  F   UNL     1      22.216   4.934  21.957  0.00  0.00    -0.166 F 
ATOM     27  C   UNL     1      21.923   6.149  21.405  0.00  0.00    +0.417 C 
ENDBRANCH  26  27
ENDBRANCH  20  21
BRANCH  17  11
ATOM      7  N   UNL     1      12.251   8.371  19.454  0.00  0.00    -0.286 NA
ATOM     11  C   UNL     1      13.155   8.398  20.623  0.00  0.00    +0.149 C 
ATOM     12  C   UNL     1      10.890   8.439  19.982  0.00  0.00    +0.116 C 
ATOM     13  C   UNL     1      12.331   7.788  21.772  0.00  0.00    +0.061 C 
ATOM     14  C   UNL     1      10.966   7.492  21.164  0.00  0.00    +0.130 C 
BRANCH   7  10
ATOM      4  O   UNL     1      14.440  10.999  17.020  0.00  0.00    -0.380 OA
ATOM     10  C   UNL     1      12.522   9.437  18.492  0.00  0.00    +0.062 C 
ATOM     15  C   UNL     1      13.352  10.545  19.145  0.00  0.00    +0.047 C 
ATOM     16  C   UNL     1      13.252   8.893  17.259  0.00  0.00    +0.047 C 
ATOM     18  C   UNL     1      13.740  11.597  18.112  0.00  0.00    +0.161 C 
ATOM     19  C   UNL     1      13.644  10.036  16.330  0.00  0.00    +0.161 C 
ENDBRANCH   7  10
BRANCH  14   5
ATOM      5  O   UNL     1       9.935   7.738  22.101  0.00  0.00    -0.390 OA
ATOM     28  H   UNL     1      10.267   8.396  22.735  0.00  0.00    +0.210 HD
ENDBRANCH  14   5
ENDBRANCH  17  11
TORSDOF 5
ENDMDL
MODEL 4
REMARK VINA RESULT:      -7.2      5.053      8.862
REMARK  Name = 26743636
REMARK  5 active torsions:
REMARK  status: ('A' for Active; 'I' for Inactive)
REMARK    1  A    between atoms: O_5  and  C_14
REMARK    2  A    between atoms: N_7  and  C_10
REMARK    3  A    between atoms: C_11  and  C_17
REMARK    4  A    between atoms: C_20  and  C_21
REMARK    5  A    between atoms: C_26  and  C_27
REMARK                            x       y       z     vdW  Elec       q    Type
REMARK                         _______ _______ _______ _____ _____    ______ ____
ROOT
ATOM      6  O   UNL     1      18.172   5.511  19.242  0.00  0.00    -0.336 OA
ATOM      8  N   UNL     1      17.440   6.933  20.810  0.00  0.00    -0.190 NA
ATOM      9  N   UNL     1      16.797   5.661  19.021  0.00  0.00    -0.056 NA
ATOM     17  C   UNL     1      18.469   6.293  20.313  0.00  0.00    +0.245 A 
ATOM     20  C   UNL     1      16.437   6.514  19.985  0.00  0.00    +0.202 A 
ENDROOT
BRANCH  20  21
ATOM     21  C   UNL     1      15.086   6.966  20.153  0.00  0.00    +0.022 A 
ATOM     22  C   UNL     1      14.635   7.365  21.410  0.00  0.00    +0.012 A 
ATOM     23  C   UNL     1      14.225   7.006  19.056  0.00  0.00    +0.012 A 
ATOM     24  C   UNL     1      13.321   7.804  21.573  0.00  0.00    +0.013 A 
ATOM     25  C   UNL     1      12.910   7.445  19.218  0.00  0.00    +0.013 A 
ATOM     26  C   UNL     1      12.459   7.844  20.476  0.00  0.00    +0.055 A 
BRANCH  26  27
ATOM      1  F   UNL     1      10.247   7.409  21.276  0.00  0.00    -0.166 F 
ATOM      2  F   UNL     1      10.442   8.587  19.460  0.00  0.00    -0.166 F 
ATOM      3  F   UNL     1      10.947   9.459  21.387  0.00  0.00    -0.166 F 
ATOM     27  C   UNL     1      11.054   8.314  20.649  0.00  0.00    +0.417 C 
ENDBRANCH  26  27
ENDBRANCH  20  21
BRANCH  17  11
ATOM      7  N   UNL     1      20.058   6.266  22.229  0.00  0.00    -0.286 NA
ATOM     11  C   UNL     1      19.915   6.306  20.759  0.00  0.00    +0.149 C 
ATOM     12  C   UNL     1      21.325   5.591  22.503  0.00  0.00    +0.116 C 
ATOM     13  C   UNL     1      20.705   5.085  20.253  0.00  0.00    +0.061 C 
ATOM     14  C   UNL     1      21.292   4.448  21.507  0.00  0.00    +0.130 C 
BRANCH   7  10
ATOM      4  O   UNL     1      21.365   9.835  24.012  0.00  0.00    -0.380 OA
ATOM     10  C   UNL     1      19.992   7.587  22.850  0.00  0.00    +0.062 C 
ATOM     15  C   UNL     1      20.592   7.543  24.258  0.00  0.00    +0.047 C 
ATOM     16  C   UNL     1      20.724   8.631  22.001  0.00  0.00    +0.047 C 
ATOM     18  C   UNL     1      20.637   8.944  24.859  0.00  0.00    +0.161 C 
ATOM     19  C   UNL     1      20.762   9.971  22.726  0.00  0.00    +0.161 C 
ENDBRANCH   7  10
BRANCH  14   5
ATOM      5  O   UNL     1      22.586   3.937  21.252  0.00  0.00    -0.390 OA
ATOM     28  H   UNL     1      22.502   3.266  20.552  0.00  0.00    +0.210 HD
ENDBRANCH  14   5
ENDBRANCH  17  11
TORSDOF 5
ENDMDL
MODEL 5
REMARK VINA RESULT:      -7.0     29.289     32.292
REMARK  Name = 26743636
REMARK  5 active torsions:
REMARK  status: ('A' for Active; 'I' for Inactive)
REMARK    1  A    between atoms: O_5  and  C_14
REMARK    2  A    between atoms: N_7  and  C_10
REMARK    3  A    between atoms: C_11  and  C_17
REMARK    4  A    between atoms: C_20  and  C_21
REMARK    5  A    between atoms: C_26  and  C_27
REMARK                            x       y       z     vdW  Elec       q    Type
REMARK                         _______ _______ _______ _____ _____    ______ ____
ROOT
ATOM      6  O   UNL     1     -17.312   3.827  25.623  0.00  0.00    -0.336 OA
ATOM      8  N   UNL     1     -15.307   3.264  24.798  0.00  0.00    -0.190 NA
ATOM      9  N   UNL     1     -16.931   4.875  24.774  0.00  0.00    -0.056 NA
ATOM     17  C   UNL     1     -16.299   2.921  25.580  0.00  0.00    +0.245 A 
ATOM     20  C   UNL     1     -15.739   4.470  24.326  0.00  0.00    +0.202 A 
ENDROOT
BRANCH  20  21
ATOM     21  C   UNL     1     -14.955   5.245  23.409  0.00  0.00    +0.022 A 
ATOM     22  C   UNL     1     -15.353   6.537  23.071  0.00  0.00    +0.012 A 
ATOM     23  C   UNL     1     -13.794   4.704  22.856  0.00  0.00    +0.012 A 
ATOM     24  C   UNL     1     -14.590   7.291  22.178  0.00  0.00    +0.013 A 
ATOM     25  C   UNL     1     -13.031   5.458  21.964  0.00  0.00    +0.013 A 
ATOM     26  C   UNL     1     -13.429   6.751  21.625  0.00  0.00    +0.055 A 
BRANCH  26  27
ATOM      1  F   UNL     1     -12.731   8.904  20.852  0.00  0.00    -0.166 F 
ATOM      2  F   UNL     1     -12.953   7.330  19.369  0.00  0.00    -0.166 F 
ATOM      3  F   UNL     1     -11.273   7.303  20.748  0.00  0.00    -0.166 F 
ATOM     27  C   UNL     1     -12.613   7.556  20.672  0.00  0.00    +0.417 C 
ENDBRANCH  26  27
ENDBRANCH  20  21
BRANCH  17  11
ATOM      7  N   UNL     1     -16.774   1.986  27.837  0.00  0.00    -0.286 NA
ATOM     11  C   UNL     1     -16.471   1.676  26.424  0.00  0.00    +0.149 C 
ATOM     12  C   UNL     1     -17.578   0.874  28.340  0.00  0.00    +0.116 C 
ATOM     13  C   UNL     1     -17.643   0.795  25.954  0.00  0.00    +0.061 C 
ATOM     14  C   UNL     1     -18.527   0.627  27.184  0.00  0.00    +0.130 C 
BRANCH   7  10
ATOM      4  O   UNL     1     -14.349   2.340  31.246  0.00  0.00    -0.380 OA
ATOM     10  C   UNL     1     -15.577   2.210  28.646  0.00  0.00    +0.062 C 
ATOM     15  C   UNL     1     -15.790   3.392  29.595  0.00  0.00    +0.047 C 
ATOM     16  C   UNL     1     -15.210   0.955  29.445  0.00  0.00    +0.047 C 
ATOM     18  C   UNL     1     -14.591   3.548  30.524  0.00  0.00    +0.161 C 
ATOM     19  C   UNL     1     -14.043   1.247  30.382  0.00  0.00    +0.161 C 
ENDBRANCH   7  10
BRANCH  14   5
ATOM      5  O   UNL     1     -19.082  -0.673  27.229  0.00  0.00    -0.390 OA
ATOM     28  H   UNL     1     -18.433  -1.282  26.838  0.00  0.00    +0.210 HD
ENDBRANCH  14   5
ENDBRANCH  17  11
TORSDOF 5
ENDMDL
MODEL 6
REMARK VINA RESULT:      -6.9     26.906     28.851
REMARK  Name = 26743636
REMARK  5 active torsions:
REMARK  status: ('A' for Active; 'I' for Inactive)
REMARK    1  A    between atoms: O_5  and  C_14
REMARK    2  A    between atoms: N_7  and  C_10
REMARK    3  A    between atoms: C_11  and  C_17
REMARK    4  A    between atoms: C_20  and  C_21
REMARK    5  A    between atoms: C_26  and  C_27
REMARK                            x       y       z     vdW  Elec       q    Type
REMARK                         _______ _______ _______ _____ _____    ______ ____
ROOT
ATOM      6  O   UNL     1      -2.419 -10.161  11.174  0.00  0.00    -0.336 OA
ATOM      8  N   UNL     1      -4.385  -9.998  12.236  0.00  0.00    -0.190 NA
ATOM      9  N   UNL     1      -2.182 -10.560  12.496  0.00  0.00    -0.056 NA
ATOM     17  C   UNL     1      -3.740  -9.847  11.107  0.00  0.00    +0.245 A 
ATOM     20  C   UNL     1      -3.388 -10.437  13.059  0.00  0.00    +0.202 A 
ENDROOT
BRANCH  20  21
ATOM     21  C   UNL     1      -3.630 -10.742  14.439  0.00  0.00    +0.022 A 
ATOM     22  C   UNL     1      -4.921 -11.045  14.870  0.00  0.00    +0.012 A 
ATOM     23  C   UNL     1      -2.574 -10.736  15.349  0.00  0.00    +0.012 A 
ATOM     24  C   UNL     1      -5.157 -11.341  16.213  0.00  0.00    +0.013 A 
ATOM     25  C   UNL     1      -2.808 -11.033  16.693  0.00  0.00    +0.013 A 
ATOM     26  C   UNL     1      -4.100 -11.336  17.124  0.00  0.00    +0.055 A 
BRANCH  26  27
ATOM      1  F   UNL     1      -5.071 -10.695  19.214  0.00  0.00    -0.166 F 
ATOM      2  F   UNL     1      -3.197 -11.796  19.274  0.00  0.00    -0.166 F 
ATOM      3  F   UNL     1      -5.046 -12.813  18.750  0.00  0.00    -0.166 F 
ATOM     27  C   UNL     1      -4.351 -11.653  18.559  0.00  0.00    +0.417 C 
ENDBRANCH  26  27
ENDBRANCH  20  21
BRANCH  17  11
ATOM      7  N   UNL     1      -5.163 -10.360   9.130  0.00  0.00    -0.286 NA
ATOM     11  C   UNL     1      -4.255  -9.381   9.762  0.00  0.00    +0.149 C 
ATOM     12  C   UNL     1      -6.093  -9.591   8.305  0.00  0.00    +0.116 C 
ATOM     13  C   UNL     1      -5.080  -8.084   9.857  0.00  0.00    +0.061 C 
ATOM     14  C   UNL     1      -6.419  -8.420   9.212  0.00  0.00    +0.130 C 
BRANCH   7  10
ATOM      4  O   UNL     1      -4.576 -13.714   6.673  0.00  0.00    -0.380 OA
ATOM     10  C   UNL     1      -4.460 -11.383   8.358  0.00  0.00    +0.062 C 
ATOM     15  C   UNL     1      -4.778 -12.776   8.907  0.00  0.00    +0.047 C 
ATOM     16  C   UNL     1      -4.832 -11.306   6.874  0.00  0.00    +0.047 C 
ATOM     18  C   UNL     1      -4.144 -13.849   8.028  0.00  0.00    +0.161 C 
ATOM     19  C   UNL     1      -4.196 -12.460   6.108  0.00  0.00    +0.161 C 
ENDBRANCH   7  10
BRANCH  14   5
ATOM      5  O   UNL     1      -6.917  -7.315   8.484  0.00  0.00    -0.390 OA
ATOM     28  H   UNL     1      -6.721  -7.471   7.544  0.00  0.00    +0.210 HD
ENDBRANCH  14   5
ENDBRANCH  17  11
TORSDOF 5
ENDMDL
MODEL 7
REMARK VINA RESULT:      -6.9     15.020     18.740
REMARK  Name = 26743636
REMARK  5 active torsions:
REMARK  status: ('A' for Active; 'I' for Inactive)
REMARK    1  A    between atoms: O_5  and  C_14
REMARK    2  A    between atoms: N_7  and  C_10
REMARK    3  A    between atoms: C_11  and  C_17
REMARK    4  A    between atoms: C_20  and  C_21
REMARK    5  A    between atoms: C_26  and  C_27
REMARK                            x       y       z     vdW  Elec       q    Type
REMARK                         _______ _______ _______ _____ _____    ______ ____
ROOT
ATOM      6  O   UNL     1       9.553   7.255   1.547  0.00  0.00    -0.336 OA
ATOM      8  N   UNL     1      10.721   5.677   2.626  0.00  0.00    -0.190 NA
ATOM      9  N   UNL     1       9.135   7.305   2.883  0.00  0.00    -0.056 NA
ATOM     17  C   UNL     1      10.488   6.269   1.482  0.00  0.00    +0.245 A 
ATOM     20  C   UNL     1       9.868   6.345   3.455  0.00  0.00    +0.202 A 
ENDROOT
BRANCH  20  21
ATOM     21  C   UNL     1       9.772   6.029   4.851  0.00  0.00    +0.022 A 
ATOM     22  C   UNL     1       9.890   4.706   5.276  0.00  0.00    +0.012 A 
ATOM     23  C   UNL     1       9.563   7.045   5.783  0.00  0.00    +0.012 A 
ATOM     24  C   UNL     1       9.797   4.398   6.633  0.00  0.00    +0.013 A 
ATOM     25  C   UNL     1       9.470   6.738   7.141  0.00  0.00    +0.013 A 
ATOM     26  C   UNL     1       9.587   5.414   7.565  0.00  0.00    +0.055 A 
BRANCH  26  27
ATOM      1  F   UNL     1       9.272   3.761   9.265  0.00  0.00    -0.166 F 
ATOM      2  F   UNL     1       8.464   5.745   9.635  0.00  0.00    -0.166 F 
ATOM      3  F   UNL     1      10.609   5.404   9.728  0.00  0.00    -0.166 F 
ATOM     27  C   UNL     1       9.487   5.086   9.017  0.00  0.00    +0.417 C 
ENDBRANCH  26  27
ENDBRANCH  20  21
BRANCH  17  11
ATOM      7  N   UNL     1      11.797   4.711   0.050  0.00  0.00    -0.286 NA
ATOM     11  C   UNL     1      11.105   6.014   0.124  0.00  0.00    +0.149 C 
ATOM     12  C   UNL     1      11.707   4.273  -1.342  0.00  0.00    +0.116 C 
ATOM     13  C   UNL     1      10.060   5.969  -1.007  0.00  0.00    +0.061 C 
ATOM     14  C   UNL     1      10.272   4.622  -1.686  0.00  0.00    +0.130 C 
BRANCH   7  10
ATOM      4  O   UNL     1      15.803   3.584   0.606  0.00  0.00    -0.380 OA
ATOM     10  C   UNL     1      13.179   4.766   0.521  0.00  0.00    +0.062 C 
ATOM     15  C   UNL     1      13.499   3.538   1.378  0.00  0.00    +0.047 C 
ATOM     16  C   UNL     1      14.158   4.853  -0.654  0.00  0.00    +0.047 C 
ATOM     18  C   UNL     1      14.973   3.532   1.767  0.00  0.00    +0.161 C 
ATOM     19  C   UNL     1      15.596   4.775  -0.153  0.00  0.00    +0.161 C 
ENDBRANCH   7  10
BRANCH  14   5
ATOM      5  O   UNL     1      10.079   4.730  -3.083  0.00  0.00    -0.390 OA
ATOM     28  H   UNL     1       9.316   5.314  -3.229  0.00  0.00    +0.210 HD
ENDBRANCH  14   5
ENDBRANCH  17  11
TORSDOF 5
ENDMDL
MODEL 8
REMARK VINA RESULT:      -6.9      2.490      3.593
REMARK  Name = 26743636
REMARK  5 active torsions:
REMARK  status: ('A' for Active; 'I' for Inactive)
REMARK    1  A    between atoms: O_5  and  C_14
REMARK    2  A    between atoms: N_7  and  C_10
REMARK    3  A    between atoms: C_11  and  C_17
REMARK    4  A    between atoms: C_20  and  C_21
REMARK    5  A    between atoms: C_26  and  C_27
REMARK                            x       y       z     vdW  Elec       q    Type
REMARK                         _______ _______ _______ _____ _____    ______ ____
ROOT
ATOM      6  O   UNL     1      14.609   7.878  19.699  0.00  0.00    -0.336 OA
ATOM      8  N   UNL     1      15.674   7.415  21.615  0.00  0.00    -0.190 NA
ATOM      9  N   UNL     1      15.897   7.460  19.339  0.00  0.00    -0.056 NA
ATOM     17  C   UNL     1      14.562   7.823  21.057  0.00  0.00    +0.245 A 
ATOM     20  C   UNL     1      16.463   7.205  20.522  0.00  0.00    +0.202 A 
ENDROOT
BRANCH  20  21
ATOM     21  C   UNL     1      17.815   6.741  20.647  0.00  0.00    +0.022 A 
ATOM     22  C   UNL     1      18.243   5.636  19.914  0.00  0.00    +0.012 A 
ATOM     23  C   UNL     1      18.700   7.397  21.502  0.00  0.00    +0.012 A 
ATOM     24  C   UNL     1      19.557   5.184  20.035  0.00  0.00    +0.013 A 
ATOM     25  C   UNL     1      20.015   6.946  21.625  0.00  0.00    +0.013 A 
ATOM     26  C   UNL     1      20.443   5.840  20.891  0.00  0.00    +0.055 A 
BRANCH  26  27
ATOM      1  F   UNL     1      22.269   5.239  22.315  0.00  0.00    -0.166 F 
ATOM      2  F   UNL     1      22.747   6.192  20.421  0.00  0.00    -0.166 F 
ATOM      3  F   UNL     1      22.060   4.130  20.463  0.00  0.00    -0.166 F 
ATOM     27  C   UNL     1      21.848   5.358  21.021  0.00  0.00    +0.417 C 
ENDBRANCH  26  27
ENDBRANCH  20  21
BRANCH  17  11
ATOM      7  N   UNL     1      12.605   9.360  21.007  0.00  0.00    -0.286 NA
ATOM     11  C   UNL     1      13.256   8.231  21.703  0.00  0.00    +0.149 C 
ATOM     12  C   UNL     1      11.167   9.200  21.213  0.00  0.00    +0.116 C 
ATOM     13  C   UNL     1      12.207   7.104  21.691  0.00  0.00    +0.061 C 
ATOM     14  C   UNL     1      10.987   7.708  21.008  0.00  0.00    +0.130 C 
BRANCH   7  10
ATOM      4  O   UNL     1      12.562  13.145  22.823  0.00  0.00    -0.380 OA
ATOM     10  C   UNL     1      13.083  10.666  21.455  0.00  0.00    +0.062 C 
ATOM     15  C   UNL     1      12.240  11.783  20.835  0.00  0.00    +0.047 C 
ATOM     16  C   UNL     1      13.049  10.770  22.984  0.00  0.00    +0.047 C 
ATOM     18  C   UNL     1      12.658  13.137  21.398  0.00  0.00    +0.161 C 
ATOM     19  C   UNL     1      13.422  12.179  23.427  0.00  0.00    +0.161 C 
ENDBRANCH   7  10
BRANCH  14   5
ATOM      5  O   UNL     1       9.793   7.237  21.603  0.00  0.00    -0.390 OA
ATOM     28  H   UNL     1      10.003   6.985  22.519  0.00  0.00    +0.210 HD
ENDBRANCH  14   5
ENDBRANCH  17  11
TORSDOF 5
ENDMDL
MODEL 9
REMARK VINA RESULT:      -6.9     31.236     32.825
REMARK  Name = 26743636
REMARK  5 active torsions:
REMARK  status: ('A' for Active; 'I' for Inactive)
REMARK    1  A    between atoms: O_5  and  C_14
REMARK    2  A    between atoms: N_7  and  C_10
REMARK    3  A    between atoms: C_11  and  C_17
REMARK    4  A    between atoms: C_20  and  C_21
REMARK    5  A    between atoms: C_26  and  C_27
REMARK                            x       y       z     vdW  Elec       q    Type
REMARK                         _______ _______ _______ _____ _____    ______ ____
ROOT
ATOM      6  O   UNL     1     -14.072   5.913  35.238  0.00  0.00    -0.336 OA
ATOM      8  N   UNL     1     -13.817   5.824  33.014  0.00  0.00    -0.190 NA
ATOM      9  N   UNL     1     -14.232   4.568  34.880  0.00  0.00    -0.056 NA
ATOM     17  C   UNL     1     -13.831   6.584  34.081  0.00  0.00    +0.245 A 
ATOM     20  C   UNL     1     -14.068   4.597  33.555  0.00  0.00    +0.202 A 
ENDROOT
BRANCH  20  21
ATOM     21  C   UNL     1     -14.150   3.418  32.741  0.00  0.00    +0.022 A 
ATOM     22  C   UNL     1     -13.646   3.432  31.441  0.00  0.00    +0.012 A 
ATOM     23  C   UNL     1     -14.733   2.259  33.251  0.00  0.00    +0.012 A 
ATOM     24  C   UNL     1     -13.725   2.287  30.649  0.00  0.00    +0.013 A 
ATOM     25  C   UNL     1     -14.813   1.112  32.460  0.00  0.00    +0.013 A 
ATOM     26  C   UNL     1     -14.309   1.126  31.159  0.00  0.00    +0.055 A 
BRANCH  26  27
ATOM      1  F   UNL     1     -13.205  -0.758  30.184  0.00  0.00    -0.166 F 
ATOM      2  F   UNL     1     -14.804   0.169  29.040  0.00  0.00    -0.166 F 
ATOM      3  F   UNL     1     -15.269  -1.033  30.790  0.00  0.00    -0.166 F 
ATOM     27  C   UNL     1     -14.394  -0.099  30.314  0.00  0.00    +0.417 C 
ENDBRANCH  26  27
ENDBRANCH  20  21
BRANCH  17  11
ATOM      7  N   UNL     1     -12.282   8.422  34.728  0.00  0.00    -0.286 NA
ATOM     11  C   UNL     1     -13.618   8.078  34.199  0.00  0.00    +0.149 C 
ATOM     12  C   UNL     1     -11.932   9.720  34.156  0.00  0.00    +0.116 C 
ATOM     13  C   UNL     1     -13.702   8.801  32.842  0.00  0.00    +0.061 C 
ATOM     14  C   UNL     1     -12.387   9.560  32.718  0.00  0.00    +0.130 C 
BRANCH   7  10
ATOM      4  O   UNL     1     -11.327   9.697  38.612  0.00  0.00    -0.380 OA
ATOM     10  C   UNL     1     -12.227   8.431  36.189  0.00  0.00    +0.062 C 
ATOM     15  C   UNL     1     -10.774   8.350  36.666  0.00  0.00    +0.047 C 
ATOM     16  C   UNL     1     -12.896   9.687  36.757  0.00  0.00    +0.047 C 
ATOM     18  C   UNL     1     -10.707   8.484  38.184  0.00  0.00    +0.161 C 
ATOM     19  C   UNL     1     -12.712   9.747  38.269  0.00  0.00    +0.161 C 
ENDBRANCH   7  10
BRANCH  14   5
ATOM      5  O   UNL     1     -12.586  10.810  32.088  0.00  0.00    -0.390 OA
ATOM     28  H   UNL     1     -13.465  10.791  31.672  0.00  0.00    +0.210 HD
ENDBRANCH  14   5
ENDBRANCH  17  11
TORSDOF 5
ENDMDL
MODEL 10
REMARK VINA RESULT:      -6.8      5.980     10.787
REMARK  Name = 26743636
REMARK  5 active torsions:
REMARK  status: ('A' for Active; 'I' for Inactive)
REMARK    1  A    between atoms: O_5  and  C_14
REMARK    2  A    between atoms: N_7  and  C_10
REMARK    3  A    between atoms: C_11  and  C_17
REMARK    4  A    between atoms: C_20  and  C_21
REMARK    5  A    between atoms: C_26  and  C_27
REMARK                            x       y       z     vdW  Elec       q    Type
REMARK                         _______ _______ _______ _____ _____    ______ ____
ROOT
ATOM      6  O   UNL     1      22.469   5.918  22.563  0.00  0.00    -0.336 OA
ATOM      8  N   UNL     1      21.589   5.150  20.651  0.00  0.00    -0.190 NA
ATOM      9  N   UNL     1      21.172   6.444  22.490  0.00  0.00    -0.056 NA
ATOM     17  C   UNL     1      22.633   5.168  21.440  0.00  0.00    +0.245 A 
ATOM     20  C   UNL     1      20.719   5.946  21.336  0.00  0.00    +0.202 A 
ENDROOT
BRANCH  20  21
ATOM     21  C   UNL     1      19.403   6.226  20.839  0.00  0.00    +0.022 A 
ATOM     22  C   UNL     1      18.889   5.489  19.773  0.00  0.00    +0.012 A 
ATOM     23  C   UNL     1      18.637   7.235  21.423  0.00  0.00    +0.012 A 
ATOM     24  C   UNL     1      17.609   5.760  19.289  0.00  0.00    +0.013 A 
ATOM     25  C   UNL     1      17.357   7.507  20.940  0.00  0.00    +0.013 A 
ATOM     26  C   UNL     1      16.843   6.770  19.873  0.00  0.00    +0.055 A 
BRANCH  26  27
ATOM      1  F   UNL     1      15.103   8.367  19.497  0.00  0.00    -0.166 F 
ATOM      2  F   UNL     1      14.509   6.336  19.994  0.00  0.00    -0.166 F 
ATOM      3  F   UNL     1      15.321   6.786  18.028  0.00  0.00    -0.166 F 
ATOM     27  C   UNL     1      15.475   7.061  19.357  0.00  0.00    +0.417 C 
ENDBRANCH  26  27
ENDBRANCH  20  21
BRANCH  17  11
ATOM      7  N   UNL     1      23.869   3.009  21.349  0.00  0.00    -0.286 NA
ATOM     11  C   UNL     1      23.973   4.481  21.279  0.00  0.00    +0.149 C 
ATOM     12  C   UNL     1      24.950   2.478  20.521  0.00  0.00    +0.116 C 
ATOM     13  C   UNL     1      24.627   4.765  19.913  0.00  0.00    +0.061 C 
ATOM     14  C   UNL     1      24.894   3.391  19.312  0.00  0.00    +0.130 C 
BRANCH   7  10
ATOM      4  O   UNL     1      23.109   0.499  24.627  0.00  0.00    -0.380 OA
ATOM     10  C   UNL     1      23.918   2.493  22.715  0.00  0.00    +0.062 C 
ATOM     15  C   UNL     1      22.512   2.461  23.323  0.00  0.00    +0.047 C 
ATOM     16  C   UNL     1      24.537   1.093  22.753  0.00  0.00    +0.047 C 
ATOM     18  C   UNL     1      22.545   1.809  24.700  0.00  0.00    +0.161 C 
ATOM     19  C   UNL     1      24.458   0.517  24.163  0.00  0.00    +0.161 C 
ENDBRANCH   7  10
BRANCH  14   5
ATOM      5  O   UNL     1      26.113   3.386  18.594  0.00  0.00    -0.390 OA
ATOM     28  H   UNL     1      26.800   3.746  19.181  0.00  0.00    +0.210 HD
ENDBRANCH  14   5
ENDBRANCH  17  11
TORSDOF 5
ENDMDL
