MODEL 1
REMARK VINA RESULT:      -6.6      0.000      0.000
REMARK  Name = 40777150
REMARK  11 active torsions:
REMARK  status: ('A' for Active; 'I' for Inactive)
REMARK    1  A    between atoms: S_1  and  C_26
REMARK    2  A    between atoms: S_1  and  C_33
REMARK    3  A    between atoms: O_6  and  C_35
REMARK    4  A    between atoms: N_9  and  C_19
REMARK    5  A    between atoms: C_13  and  C_20
REMARK    6  A    between atoms: C_14  and  C_19
REMARK    7  A    between atoms: C_22  and  C_25
REMARK    8  A    between atoms: C_23  and  C_26
REMARK    9  A    between atoms: C_24  and  C_27
REMARK   10  A    between atoms: C_32  and  C_34
REMARK   11  A    between atoms: C_33  and  C_35
REMARK                            x       y       z     vdW  Elec       q    Type
REMARK                         _______ _______ _______ _____ _____    ______ ____
ROOT
ATOM      8  N   UNL     1      -7.552 -11.589  17.908  0.00  0.00    -0.297 NA
ATOM     12  C   UNL     1      -5.092 -11.106  18.616  0.00  0.00    +0.002 C 
ATOM     13  C   UNL     1      -5.419 -10.400  17.271  0.00  0.00    +0.055 C 
ATOM     14  C   UNL     1      -6.863 -12.860  18.253  0.00  0.00    +0.074 C 
ATOM     15  C   UNL     1      -5.353 -12.620  18.474  0.00  0.00    +0.024 C 
ATOM     16  C   UNL     1      -6.097 -10.567  19.657  0.00  0.00    +0.019 C 
ATOM     17  C   UNL     1      -6.822 -10.896  16.817  0.00  0.00    +0.094 C 
ATOM     18  C   UNL     1      -7.526 -10.718  19.108  0.00  0.00    +0.085 C 
ENDROOT
BRANCH  13  20
ATOM     10  N   UNL     1      -3.094 -10.511  16.523  0.00  0.00    -0.237 NA
ATOM     11  N   UNL     1      -2.499 -10.601  14.189  0.00  0.00    -0.232 NA
ATOM     20  C   UNL     1      -4.391 -10.472  16.152  0.00  0.00    +0.050 A 
ATOM     21  C   UNL     1      -4.813 -10.495  14.839  0.00  0.00    +0.052 A 
ATOM     22  C   UNL     1      -3.813 -10.561  13.890  0.00  0.00    +0.075 A 
ATOM     24  C   UNL     1      -2.214 -10.574  15.505  0.00  0.00    +0.127 A 
ATOM     27  C   UNL     1      -0.770 -10.615  15.875  0.00  0.00    +0.088 C 
BRANCH  22  25
ATOM     25  C   UNL     1      -4.123 -10.588  12.481  0.00  0.00    +0.000 A 
ATOM     28  C   UNL     1      -3.158 -10.212  11.547  0.00  0.00    +0.010 A 
ATOM     29  C   UNL     1      -5.388 -10.992  12.052  0.00  0.00    +0.010 A 
ATOM     30  C   UNL     1      -3.457 -10.238  10.184  0.00  0.00    +0.013 A 
ATOM     31  C   UNL     1      -5.687 -11.019  10.691  0.00  0.00    +0.013 A 
ATOM     32  C   UNL     1      -4.722 -10.642   9.757  0.00  0.00    +0.055 A 
BRANCH  32  34
ATOM      2  F   UNL     1      -4.212 -11.494   7.596  0.00  0.00    -0.166 F 
ATOM      3  F   UNL     1      -6.307 -11.105   8.026  0.00  0.00    -0.166 F 
ATOM      4  F   UNL     1      -4.946  -9.450   7.695  0.00  0.00    -0.166 F 
ATOM     34  C   UNL     1      -5.042 -10.670   8.301  0.00  0.00    +0.417 C 
ENDBRANCH  32  34
ENDBRANCH  22  25
ENDBRANCH  13  20
BRANCH  14  19
ATOM     19  C   UNL     1      -7.119 -13.960  17.221  0.00  0.00    +0.123 C 
BRANCH  19   9
ATOM      5  O   UNL     1      -5.501 -14.000  14.821  0.00  0.00    -0.275 OA
ATOM      9  N   UNL     1      -5.934 -14.728  16.988  0.00  0.00    -0.313 N 
ATOM     23  C   UNL     1      -5.210 -14.689  15.798  0.00  0.00    +0.223 C 
ATOM     36  H   UNL     1      -5.617 -15.337  17.736  0.00  0.00    +0.149 HD
BRANCH  23  26
ATOM     26  C   UNL     1      -4.009 -15.604  15.794  0.00  0.00    +0.165 C 
BRANCH  26   1
ATOM      1  S   UNL     1      -3.539 -15.949  14.082  0.00  0.00    -0.140 S 
BRANCH   1  33
ATOM     33  C   UNL     1      -2.037 -14.944  14.006  0.00  0.00    +0.189 C 
BRANCH  33  35
ATOM      7  O   UNL     1      -3.078 -13.914  12.092  0.00  0.00    -0.250 OA
ATOM     35  C   UNL     1      -2.183 -13.909  12.927  0.00  0.00    +0.315 C 
BRANCH  35   6
ATOM      6  O   UNL     1      -1.221 -12.953  12.985  0.00  0.00    -0.480 OA
ATOM     37  H   UNL     1      -1.380 -12.235  12.336  0.00  0.00    +0.295 HD
ENDBRANCH  35   6
ENDBRANCH  33  35
ENDBRANCH   1  33
ENDBRANCH  26   1
ENDBRANCH  23  26
ENDBRANCH  19   9
ENDBRANCH  14  19
TORSDOF 10
ENDMDL
MODEL 2
REMARK VINA RESULT:      -6.1     23.784     26.904
REMARK  Name = 40777150
REMARK  11 active torsions:
REMARK  status: ('A' for Active; 'I' for Inactive)
REMARK    1  A    between atoms: S_1  and  C_26
REMARK    2  A    between atoms: S_1  and  C_33
REMARK    3  A    between atoms: O_6  and  C_35
REMARK    4  A    between atoms: N_9  and  C_19
REMARK    5  A    between atoms: C_13  and  C_20
REMARK    6  A    between atoms: C_14  and  C_19
REMARK    7  A    between atoms: C_22  and  C_25
REMARK    8  A    between atoms: C_23  and  C_26
REMARK    9  A    between atoms: C_24  and  C_27
REMARK   10  A    between atoms: C_32  and  C_34
REMARK   11  A    between atoms: C_33  and  C_35
REMARK                            x       y       z     vdW  Elec       q    Type
REMARK                         _______ _______ _______ _____ _____    ______ ____
ROOT
ATOM      8  N   UNL     1       6.882  11.126   3.107  0.00  0.00    -0.297 NA
ATOM     12  C   UNL     1       8.960  10.372   1.729  0.00  0.00    +0.002 C 
ATOM     13  C   UNL     1       8.116   9.140   2.158  0.00  0.00    +0.055 C 
ATOM     14  C   UNL     1       8.111  11.762   3.651  0.00  0.00    +0.074 C 
ATOM     15  C   UNL     1       9.372  11.170   2.984  0.00  0.00    +0.024 C 
ATOM     16  C   UNL     1       8.029  11.282   0.898  0.00  0.00    +0.019 C 
ATOM     17  C   UNL     1       7.019   9.648   3.137  0.00  0.00    +0.094 C 
ATOM     18  C   UNL     1       6.740  11.549   1.693  0.00  0.00    +0.085 C 
ENDROOT
BRANCH  13  20
ATOM     10  N   UNL     1       9.550   7.192   1.801  0.00  0.00    -0.237 NA
ATOM     11  N   UNL     1      10.180   5.714   3.598  0.00  0.00    -0.232 NA
ATOM     20  C   UNL     1       8.848   7.919   2.695  0.00  0.00    +0.050 A 
ATOM     21  C   UNL     1       8.767   7.612   4.037  0.00  0.00    +0.052 A 
ATOM     22  C   UNL     1       9.460   6.487   4.436  0.00  0.00    +0.075 A 
ATOM     24  C   UNL     1      10.182   6.119   2.313  0.00  0.00    +0.127 A 
ATOM     27  C   UNL     1      10.967   5.288   1.355  0.00  0.00    +0.088 C 
BRANCH  22  25
ATOM     25  C   UNL     1       9.454   6.057   5.814  0.00  0.00    +0.000 A 
ATOM     28  C   UNL     1       9.892   4.775   6.147  0.00  0.00    +0.010 A 
ATOM     29  C   UNL     1       9.012   6.924   6.814  0.00  0.00    +0.010 A 
ATOM     30  C   UNL     1       9.886   4.359   7.478  0.00  0.00    +0.013 A 
ATOM     31  C   UNL     1       9.007   6.509   8.145  0.00  0.00    +0.013 A 
ATOM     32  C   UNL     1       9.443   5.226   8.477  0.00  0.00    +0.055 A 
BRANCH  32  34
ATOM      2  F   UNL     1       9.678   3.444  10.034  0.00  0.00    -0.166 F 
ATOM      3  F   UNL     1      10.379   5.401  10.672  0.00  0.00    -0.166 F 
ATOM      4  F   UNL     1       8.251   5.006  10.539  0.00  0.00    -0.166 F 
ATOM     34  C   UNL     1       9.438   4.782   9.900  0.00  0.00    +0.417 C 
ENDBRANCH  32  34
ENDBRANCH  22  25
ENDBRANCH  13  20
BRANCH  14  19
ATOM     19  C   UNL     1       8.182  11.680   5.177  0.00  0.00    +0.123 C 
BRANCH  19   9
ATOM      5  O   UNL     1       9.079  11.238   7.894  0.00  0.00    -0.275 OA
ATOM      9  N   UNL     1       9.372  11.005   5.598  0.00  0.00    -0.313 N 
ATOM     23  C   UNL     1       9.732  10.834   6.932  0.00  0.00    +0.223 C 
ATOM     36  H   UNL     1       9.983  10.641   4.873  0.00  0.00    +0.149 HD
BRANCH  23  26
ATOM     26  C   UNL     1      11.042  10.103   7.113  0.00  0.00    +0.165 C 
BRANCH  26   1
ATOM      1  S   UNL     1      11.595   9.485   5.505  0.00  0.00    -0.140 S 
BRANCH   1  33
ATOM     33  C   UNL     1      13.136   8.698   6.034  0.00  0.00    +0.189 C 
BRANCH  33  35
ATOM      7  O   UNL     1      12.909   6.550   7.103  0.00  0.00    -0.250 OA
ATOM     35  C   UNL     1      12.948   7.208   6.072  0.00  0.00    +0.315 C 
BRANCH  35   6
ATOM      6  O   UNL     1      12.811   6.666   4.835  0.00  0.00    -0.480 OA
ATOM     37  H   UNL     1      13.065   5.719   4.821  0.00  0.00    +0.295 HD
ENDBRANCH  35   6
ENDBRANCH  33  35
ENDBRANCH   1  33
ENDBRANCH  26   1
ENDBRANCH  23  26
ENDBRANCH  19   9
ENDBRANCH  14  19
TORSDOF 10
ENDMDL
MODEL 3
REMARK VINA RESULT:      -6.1      5.119      6.780
REMARK  Name = 40777150
REMARK  11 active torsions:
REMARK  status: ('A' for Active; 'I' for Inactive)
REMARK    1  A    between atoms: S_1  and  C_26
REMARK    2  A    between atoms: S_1  and  C_33
REMARK    3  A    between atoms: O_6  and  C_35
REMARK    4  A    between atoms: N_9  and  C_19
REMARK    5  A    between atoms: C_13  and  C_20
REMARK    6  A    between atoms: C_14  and  C_19
REMARK    7  A    between atoms: C_22  and  C_25
REMARK    8  A    between atoms: C_23  and  C_26
REMARK    9  A    between atoms: C_24  and  C_27
REMARK   10  A    between atoms: C_32  and  C_34
REMARK   11  A    between atoms: C_33  and  C_35
REMARK                            x       y       z     vdW  Elec       q    Type
REMARK                         _______ _______ _______ _____ _____    ______ ____
ROOT
ATOM      8  N   UNL     1     -10.165  -9.770  17.773  0.00  0.00    -0.297 NA
ATOM     12  C   UNL     1      -8.947 -11.813  18.836  0.00  0.00    +0.002 C 
ATOM     13  C   UNL     1      -7.966 -10.620  18.674  0.00  0.00    +0.055 C 
ATOM     14  C   UNL     1     -10.427 -10.993  16.970  0.00  0.00    +0.074 C 
ATOM     15  C   UNL     1      -9.552 -12.167  17.461  0.00  0.00    +0.024 C 
ATOM     16  C   UNL     1     -10.107 -11.318  19.728  0.00  0.00    +0.019 C 
ATOM     17  C   UNL     1      -8.703  -9.521  17.856  0.00  0.00    +0.094 C 
ATOM     18  C   UNL     1     -10.671 -10.011  19.145  0.00  0.00    +0.085 C 
ENDROOT
BRANCH  13  20
ATOM     10  N   UNL     1      -5.674 -11.404  19.007  0.00  0.00    -0.237 NA
ATOM     11  N   UNL     1      -4.053 -11.430  17.223  0.00  0.00    -0.232 NA
ATOM     20  C   UNL     1      -6.572 -10.903  18.133  0.00  0.00    +0.050 A 
ATOM     21  C   UNL     1      -6.289 -10.644  16.808  0.00  0.00    +0.052 A 
ATOM     22  C   UNL     1      -5.001 -10.930  16.404  0.00  0.00    +0.075 A 
ATOM     24  C   UNL     1      -4.452 -11.641  18.492  0.00  0.00    +0.127 A 
ATOM     27  C   UNL     1      -3.430 -12.192  19.428  0.00  0.00    +0.088 C 
BRANCH  22  25
ATOM     25  C   UNL     1      -4.578 -10.702  15.043  0.00  0.00    +0.000 A 
ATOM     28  C   UNL     1      -5.516 -10.359  14.069  0.00  0.00    +0.010 A 
ATOM     29  C   UNL     1      -3.231 -10.824  14.701  0.00  0.00    +0.010 A 
ATOM     30  C   UNL     1      -5.108 -10.138  12.754  0.00  0.00    +0.013 A 
ATOM     31  C   UNL     1      -2.823 -10.603  13.386  0.00  0.00    +0.013 A 
ATOM     32  C   UNL     1      -3.761 -10.260  12.412  0.00  0.00    +0.055 A 
BRANCH  32  34
ATOM      2  F   UNL     1      -4.069  -9.067  10.379  0.00  0.00    -0.166 F 
ATOM      3  F   UNL     1      -2.028  -9.609  10.897  0.00  0.00    -0.166 F 
ATOM      4  F   UNL     1      -3.411 -11.133  10.213  0.00  0.00    -0.166 F 
ATOM     34  C   UNL     1      -3.325 -10.024  11.006  0.00  0.00    +0.417 C 
ENDBRANCH  32  34
ENDBRANCH  22  25
ENDBRANCH  13  20
BRANCH  14  19
ATOM     19  C   UNL     1     -10.264 -10.750  15.468  0.00  0.00    +0.123 C 
BRANCH  19   9
ATOM      5  O   UNL     1      -9.775  -7.947  14.933  0.00  0.00    -0.275 OA
ATOM      9  N   UNL     1     -11.207  -9.780  15.002  0.00  0.00    -0.313 N 
ATOM     23  C   UNL     1     -10.889  -8.443  14.768  0.00  0.00    +0.223 C 
ATOM     36  H   UNL     1     -12.160 -10.092  14.844  0.00  0.00    +0.149 HD
BRANCH  23  26
ATOM     26  C   UNL     1     -12.064  -7.619  14.297  0.00  0.00    +0.165 C 
BRANCH  26   1
ATOM      1  S   UNL     1     -11.832  -5.907  14.833  0.00  0.00    -0.140 S 
BRANCH   1  33
ATOM     33  C   UNL     1     -13.034  -5.116  13.738  0.00  0.00    +0.189 C 
BRANCH  33  35
ATOM      7  O   UNL     1     -12.070  -4.975  11.534  0.00  0.00    -0.250 OA
ATOM     35  C   UNL     1     -12.312  -4.440  12.608  0.00  0.00    +0.315 C 
BRANCH  35   6
ATOM      6  O   UNL     1     -11.968  -3.159  12.897  0.00  0.00    -0.480 OA
ATOM     37  H   UNL     1     -12.184  -2.923  13.824  0.00  0.00    +0.295 HD
ENDBRANCH  35   6
ENDBRANCH  33  35
ENDBRANCH   1  33
ENDBRANCH  26   1
ENDBRANCH  23  26
ENDBRANCH  19   9
ENDBRANCH  14  19
TORSDOF 10
ENDMDL
MODEL 4
REMARK VINA RESULT:      -6.0     24.009     27.380
REMARK  Name = 40777150
REMARK  11 active torsions:
REMARK  status: ('A' for Active; 'I' for Inactive)
REMARK    1  A    between atoms: S_1  and  C_26
REMARK    2  A    between atoms: S_1  and  C_33
REMARK    3  A    between atoms: O_6  and  C_35
REMARK    4  A    between atoms: N_9  and  C_19
REMARK    5  A    between atoms: C_13  and  C_20
REMARK    6  A    between atoms: C_14  and  C_19
REMARK    7  A    between atoms: C_22  and  C_25
REMARK    8  A    between atoms: C_23  and  C_26
REMARK    9  A    between atoms: C_24  and  C_27
REMARK   10  A    between atoms: C_32  and  C_34
REMARK   11  A    between atoms: C_33  and  C_35
REMARK                            x       y       z     vdW  Elec       q    Type
REMARK                         _______ _______ _______ _____ _____    ______ ____
ROOT
ATOM      8  N   UNL     1      11.463   7.686  -0.227  0.00  0.00    -0.297 NA
ATOM     12  C   UNL     1       9.466   9.359  -0.224  0.00  0.00    +0.002 C 
ATOM     13  C   UNL     1      10.071   9.232   1.202  0.00  0.00    +0.055 C 
ATOM     14  C   UNL     1      10.284   7.073  -0.895  0.00  0.00    +0.074 C 
ATOM     15  C   UNL     1       9.035   7.964  -0.721  0.00  0.00    +0.024 C 
ATOM     16  C   UNL     1      10.605   9.839  -1.149  0.00  0.00    +0.019 C 
ATOM     17  C   UNL     1      11.113   8.077   1.162  0.00  0.00    +0.094 C 
ATOM     18  C   UNL     1      11.822   8.914  -0.977  0.00  0.00    +0.085 C 
ENDROOT
BRANCH  13  20
ATOM     10  N   UNL     1       7.962   9.803   2.300  0.00  0.00    -0.237 NA
ATOM     11  N   UNL     1       7.363   8.926   4.464  0.00  0.00    -0.232 NA
ATOM     20  C   UNL     1       9.116   9.107   2.380  0.00  0.00    +0.050 A 
ATOM     21  C   UNL     1       9.459   8.311   3.453  0.00  0.00    +0.052 A 
ATOM     22  C   UNL     1       8.535   8.257   4.476  0.00  0.00    +0.075 A 
ATOM     24  C   UNL     1       7.144   9.668   3.361  0.00  0.00    +0.127 A 
ATOM     27  C   UNL     1       5.860  10.424   3.312  0.00  0.00    +0.088 C 
BRANCH  22  25
ATOM     25  C   UNL     1       8.775   7.461   5.656  0.00  0.00    +0.000 A 
ATOM     28  C   UNL     1       8.583   8.016   6.922  0.00  0.00    +0.010 A 
ATOM     29  C   UNL     1       9.197   6.137   5.532  0.00  0.00    +0.010 A 
ATOM     30  C   UNL     1       8.815   7.247   8.063  0.00  0.00    +0.013 A 
ATOM     31  C   UNL     1       9.428   5.369   6.672  0.00  0.00    +0.013 A 
ATOM     32  C   UNL     1       9.237   5.923   7.938  0.00  0.00    +0.055 A 
BRANCH  32  34
ATOM      2  F   UNL     1      10.620   5.471   9.819  0.00  0.00    -0.166 F 
ATOM      3  F   UNL     1       8.482   5.177  10.081  0.00  0.00    -0.166 F 
ATOM      4  F   UNL     1       9.630   3.768   8.898  0.00  0.00    -0.166 F 
ATOM     34  C   UNL     1       9.485   5.101   9.157  0.00  0.00    +0.417 C 
ENDBRANCH  32  34
ENDBRANCH  22  25
ENDBRANCH  13  20
BRANCH  14  19
ATOM     19  C   UNL     1      10.031   5.639  -0.428  0.00  0.00    +0.123 C 
BRANCH  19   9
ATOM      5  O   UNL     1      10.841   3.147  -1.658  0.00  0.00    -0.275 OA
ATOM      9  N   UNL     1      11.265   4.939  -0.236  0.00  0.00    -0.313 N 
ATOM     23  C   UNL     1      11.578   3.738  -0.870  0.00  0.00    +0.223 C 
ATOM     36  H   UNL     1      11.939   5.346   0.405  0.00  0.00    +0.149 HD
BRANCH  23  26
ATOM     26  C   UNL     1      12.934   3.192  -0.488  0.00  0.00    +0.165 C 
BRANCH  26   1
ATOM      1  S   UNL     1      13.064   3.157   1.316  0.00  0.00    -0.140 S 
BRANCH   1  33
ATOM     33  C   UNL     1      14.730   3.843   1.479  0.00  0.00    +0.189 C 
BRANCH  33  35
ATOM      7  O   UNL     1      14.221   6.120   0.874  0.00  0.00    -0.250 OA
ATOM     35  C   UNL     1      14.640   5.326   1.706  0.00  0.00    +0.315 C 
BRANCH  35   6
ATOM      6  O   UNL     1      15.059   5.693   2.943  0.00  0.00    -0.480 OA
ATOM     37  H   UNL     1      14.571   6.474   3.278  0.00  0.00    +0.295 HD
ENDBRANCH  35   6
ENDBRANCH  33  35
ENDBRANCH   1  33
ENDBRANCH  26   1
ENDBRANCH  23  26
ENDBRANCH  19   9
ENDBRANCH  14  19
TORSDOF 10
ENDMDL
MODEL 5
REMARK VINA RESULT:      -6.0     23.989     26.665
REMARK  Name = 40777150
REMARK  11 active torsions:
REMARK  status: ('A' for Active; 'I' for Inactive)
REMARK    1  A    between atoms: S_1  and  C_26
REMARK    2  A    between atoms: S_1  and  C_33
REMARK    3  A    between atoms: O_6  and  C_35
REMARK    4  A    between atoms: N_9  and  C_19
REMARK    5  A    between atoms: C_13  and  C_20
REMARK    6  A    between atoms: C_14  and  C_19
REMARK    7  A    between atoms: C_22  and  C_25
REMARK    8  A    between atoms: C_23  and  C_26
REMARK    9  A    between atoms: C_24  and  C_27
REMARK   10  A    between atoms: C_32  and  C_34
REMARK   11  A    between atoms: C_33  and  C_35
REMARK                            x       y       z     vdW  Elec       q    Type
REMARK                         _______ _______ _______ _____ _____    ______ ____
ROOT
ATOM      8  N   UNL     1      10.456   6.899   8.085  0.00  0.00    -0.297 NA
ATOM     12  C   UNL     1       9.499   5.430   6.158  0.00  0.00    +0.002 C 
ATOM     13  C   UNL     1      10.964   5.844   5.850  0.00  0.00    +0.055 C 
ATOM     14  C   UNL     1       9.133   7.423   7.654  0.00  0.00    +0.074 C 
ATOM     15  C   UNL     1       8.647   6.696   6.381  0.00  0.00    +0.024 C 
ATOM     16  C   UNL     1       9.527   4.660   7.497  0.00  0.00    +0.019 C 
ATOM     17  C   UNL     1      11.392   6.875   6.934  0.00  0.00    +0.094 C 
ATOM     18  C   UNL     1      10.261   5.505   8.552  0.00  0.00    +0.085 C 
ENDROOT
BRANCH  13  20
ATOM     10  N   UNL     1      11.536   7.635   4.286  0.00  0.00    -0.237 NA
ATOM     11  N   UNL     1      11.897   7.224   1.939  0.00  0.00    -0.232 NA
ATOM     20  C   UNL     1      11.297   6.316   4.442  0.00  0.00    +0.050 A 
ATOM     21  C   UNL     1      11.339   5.403   3.409  0.00  0.00    +0.052 A 
ATOM     22  C   UNL     1      11.648   5.918   2.167  0.00  0.00    +0.075 A 
ATOM     24  C   UNL     1      11.826   8.015   3.027  0.00  0.00    +0.127 A 
ATOM     27  C   UNL     1      12.093   9.466   2.813  0.00  0.00    +0.088 C 
BRANCH  22  25
ATOM     25  C   UNL     1      11.722   5.067   1.004  0.00  0.00    +0.000 A 
ATOM     28  C   UNL     1      10.772   5.188  -0.011  0.00  0.00    +0.010 A 
ATOM     29  C   UNL     1      12.743   4.123   0.893  0.00  0.00    +0.010 A 
ATOM     30  C   UNL     1      10.843   4.366  -1.135  0.00  0.00    +0.013 A 
ATOM     31  C   UNL     1      12.815   3.301  -0.231  0.00  0.00    +0.013 A 
ATOM     32  C   UNL     1      11.865   3.422  -1.245  0.00  0.00    +0.055 A 
BRANCH  32  34
ATOM      2  F   UNL     1      12.074   1.223  -2.125  0.00  0.00    -0.166 F 
ATOM      3  F   UNL     1      10.838   2.614  -3.249  0.00  0.00    -0.166 F 
ATOM      4  F   UNL     1      12.996   2.828  -3.267  0.00  0.00    -0.166 F 
ATOM     34  C   UNL     1      11.941   2.543  -2.447  0.00  0.00    +0.417 C 
ENDBRANCH  32  34
ENDBRANCH  22  25
ENDBRANCH  13  20
BRANCH  14  19
ATOM     19  C   UNL     1       9.140   8.943   7.475  0.00  0.00    +0.123 C 
BRANCH  19   9
ATOM      5  O   UNL     1      10.393  10.833   5.676  0.00  0.00    -0.275 OA
ATOM      9  N   UNL     1       8.708   9.304   6.159  0.00  0.00    -0.313 N 
ATOM     23  C   UNL     1       9.372  10.227   5.354  0.00  0.00    +0.223 C 
ATOM     36  H   UNL     1       7.865   8.861   5.805  0.00  0.00    +0.149 HD
BRANCH  23  26
ATOM     26  C   UNL     1       8.707  10.447   4.016  0.00  0.00    +0.165 C 
BRANCH  26   1
ATOM      1  S   UNL     1       7.461   9.160   3.761  0.00  0.00    -0.140 S 
BRANCH   1  33
ATOM     33  C   UNL     1       5.980  10.190   3.888  0.00  0.00    +0.189 C 
BRANCH  33  35
ATOM      7  O   UNL     1       4.119   9.779   2.412  0.00  0.00    -0.250 OA
ATOM     35  C   UNL     1       5.260  10.194   2.569  0.00  0.00    +0.315 C 
BRANCH  35   6
ATOM      6  O   UNL     1       6.006  10.723   1.566  0.00  0.00    -0.480 OA
ATOM     37  H   UNL     1       6.848  11.100   1.897  0.00  0.00    +0.295 HD
ENDBRANCH  35   6
ENDBRANCH  33  35
ENDBRANCH   1  33
ENDBRANCH  26   1
ENDBRANCH  23  26
ENDBRANCH  19   9
ENDBRANCH  14  19
TORSDOF 10
ENDMDL
MODEL 6
REMARK VINA RESULT:      -5.9      4.026      5.457
REMARK  Name = 40777150
REMARK  11 active torsions:
REMARK  status: ('A' for Active; 'I' for Inactive)
REMARK    1  A    between atoms: S_1  and  C_26
REMARK    2  A    between atoms: S_1  and  C_33
REMARK    3  A    between atoms: O_6  and  C_35
REMARK    4  A    between atoms: N_9  and  C_19
REMARK    5  A    between atoms: C_13  and  C_20
REMARK    6  A    between atoms: C_14  and  C_19
REMARK    7  A    between atoms: C_22  and  C_25
REMARK    8  A    between atoms: C_23  and  C_26
REMARK    9  A    between atoms: C_24  and  C_27
REMARK   10  A    between atoms: C_32  and  C_34
REMARK   11  A    between atoms: C_33  and  C_35
REMARK                            x       y       z     vdW  Elec       q    Type
REMARK                         _______ _______ _______ _____ _____    ______ ____
ROOT
ATOM      8  N   UNL     1      -7.838 -10.491  17.550  0.00  0.00    -0.297 NA
ATOM     12  C   UNL     1      -5.753 -12.017  17.879  0.00  0.00    +0.002 C 
ATOM     13  C   UNL     1      -5.329 -10.632  17.319  0.00  0.00    +0.055 C 
ATOM     14  C   UNL     1      -8.074 -11.817  16.923  0.00  0.00    +0.074 C 
ATOM     15  C   UNL     1      -6.781 -12.661  16.926  0.00  0.00    +0.024 C 
ATOM     16  C   UNL     1      -6.478 -11.753  19.217  0.00  0.00    +0.019 C 
ATOM     17  C   UNL     1      -6.630  -9.859  16.961  0.00  0.00    +0.094 C 
ATOM     18  C   UNL     1      -7.587 -10.710  18.995  0.00  0.00    +0.085 C 
ENDROOT
BRANCH  13  20
ATOM     10  N   UNL     1      -3.007 -10.554  16.554  0.00  0.00    -0.237 NA
ATOM     11  N   UNL     1      -2.426 -10.522  14.215  0.00  0.00    -0.232 NA
ATOM     20  C   UNL     1      -4.307 -10.594  16.192  0.00  0.00    +0.050 A 
ATOM     21  C   UNL     1      -4.737 -10.601  14.882  0.00  0.00    +0.052 A 
ATOM     22  C   UNL     1      -3.743 -10.564  13.925  0.00  0.00    +0.075 A 
ATOM     24  C   UNL     1      -2.134 -10.521  15.530  0.00  0.00    +0.127 A 
ATOM     27  C   UNL     1      -0.687 -10.473  15.889  0.00  0.00    +0.088 C 
BRANCH  22  25
ATOM     25  C   UNL     1      -4.062 -10.564  12.518  0.00  0.00    +0.000 A 
ATOM     28  C   UNL     1      -3.207 -11.187  11.609  0.00  0.00    +0.010 A 
ATOM     29  C   UNL     1      -5.227  -9.943  12.065  0.00  0.00    +0.010 A 
ATOM     30  C   UNL     1      -3.514 -11.188  10.248  0.00  0.00    +0.013 A 
ATOM     31  C   UNL     1      -5.535  -9.945  10.706  0.00  0.00    +0.013 A 
ATOM     32  C   UNL     1      -4.679 -10.567   9.797  0.00  0.00    +0.055 A 
BRANCH  32  34
ATOM      2  F   UNL     1      -4.268 -11.473   7.637  0.00  0.00    -0.166 F 
ATOM      3  F   UNL     1      -6.312 -10.875   8.076  0.00  0.00    -0.166 F 
ATOM      4  F   UNL     1      -4.794  -9.365   7.732  0.00  0.00    -0.166 F 
ATOM     34  C   UNL     1      -5.008 -10.568   8.342  0.00  0.00    +0.417 C 
ENDBRANCH  32  34
ENDBRANCH  22  25
ENDBRANCH  13  20
BRANCH  14  19
ATOM     19  C   UNL     1      -8.675 -11.700  15.521  0.00  0.00    +0.123 C 
BRANCH  19   9
ATOM      5  O   UNL     1      -9.574  -9.055  14.762  0.00  0.00    -0.275 OA
ATOM      9  N   UNL     1     -10.011 -11.189  15.579  0.00  0.00    -0.313 N 
ATOM     23  C   UNL     1     -10.361  -9.898  15.192  0.00  0.00    +0.223 C 
ATOM     36  H   UNL     1     -10.734 -11.810  15.930  0.00  0.00    +0.149 HD
BRANCH  23  26
ATOM     26  C   UNL     1     -11.831  -9.596  15.365  0.00  0.00    +0.165 C 
BRANCH  26   1
ATOM      1  S   UNL     1     -12.041  -8.496  16.786  0.00  0.00    -0.140 S 
BRANCH   1  33
ATOM     33  C   UNL     1     -12.870  -7.125  15.946  0.00  0.00    +0.189 C 
BRANCH  33  35
ATOM      7  O   UNL     1     -11.867  -5.426  14.562  0.00  0.00    -0.250 OA
ATOM     35  C   UNL     1     -11.863  -6.063  15.608  0.00  0.00    +0.315 C 
BRANCH  35   6
ATOM      6  O   UNL     1     -10.952  -5.872  16.595  0.00  0.00    -0.480 OA
ATOM     37  H   UNL     1     -10.034  -5.867  16.249  0.00  0.00    +0.295 HD
ENDBRANCH  35   6
ENDBRANCH  33  35
ENDBRANCH   1  33
ENDBRANCH  26   1
ENDBRANCH  23  26
ENDBRANCH  19   9
ENDBRANCH  14  19
TORSDOF 10
ENDMDL
MODEL 7
REMARK VINA RESULT:      -5.9      3.986      5.470
REMARK  Name = 40777150
REMARK  11 active torsions:
REMARK  status: ('A' for Active; 'I' for Inactive)
REMARK    1  A    between atoms: S_1  and  C_26
REMARK    2  A    between atoms: S_1  and  C_33
REMARK    3  A    between atoms: O_6  and  C_35
REMARK    4  A    between atoms: N_9  and  C_19
REMARK    5  A    between atoms: C_13  and  C_20
REMARK    6  A    between atoms: C_14  and  C_19
REMARK    7  A    between atoms: C_22  and  C_25
REMARK    8  A    between atoms: C_23  and  C_26
REMARK    9  A    between atoms: C_24  and  C_27
REMARK   10  A    between atoms: C_32  and  C_34
REMARK   11  A    between atoms: C_33  and  C_35
REMARK                            x       y       z     vdW  Elec       q    Type
REMARK                         _______ _______ _______ _____ _____    ______ ____
ROOT
ATOM      8  N   UNL     1      -6.829 -10.512  18.322  0.00  0.00    -0.297 NA
ATOM     12  C   UNL     1      -4.814 -12.108  17.898  0.00  0.00    +0.002 C 
ATOM     13  C   UNL     1      -4.676 -10.818  17.042  0.00  0.00    +0.055 C 
ATOM     14  C   UNL     1      -7.319 -11.884  18.029  0.00  0.00    +0.074 C 
ATOM     15  C   UNL     1      -6.158 -12.794  17.574  0.00  0.00    +0.024 C 
ATOM     16  C   UNL     1      -4.879 -11.657  19.373  0.00  0.00    +0.019 C 
ATOM     17  C   UNL     1      -6.001 -10.018  17.193  0.00  0.00    +0.094 C 
ATOM     18  C   UNL     1      -5.970 -10.584  19.528  0.00  0.00    +0.085 C 
ENDROOT
BRANCH  13  20
ATOM     10  N   UNL     1      -3.154 -11.710  15.348  0.00  0.00    -0.237 NA
ATOM     11  N   UNL     1      -3.440 -11.257  12.998  0.00  0.00    -0.232 NA
ATOM     20  C   UNL     1      -4.252 -10.963  15.587  0.00  0.00    +0.050 A 
ATOM     21  C   UNL     1      -4.986 -10.341  14.599  0.00  0.00    +0.052 A 
ATOM     22  C   UNL     1      -4.529 -10.524  13.310  0.00  0.00    +0.075 A 
ATOM     24  C   UNL     1      -2.810 -11.814  14.050  0.00  0.00    +0.127 A 
ATOM     27  C   UNL     1      -1.599 -12.630  13.745  0.00  0.00    +0.088 C 
BRANCH  22  25
ATOM     25  C   UNL     1      -5.207  -9.924  12.186  0.00  0.00    +0.000 A 
ATOM     28  C   UNL     1      -4.483  -9.548  11.054  0.00  0.00    +0.010 A 
ATOM     29  C   UNL     1      -6.587  -9.722  12.229  0.00  0.00    +0.010 A 
ATOM     30  C   UNL     1      -5.138  -8.968   9.967  0.00  0.00    +0.013 A 
ATOM     31  C   UNL     1      -7.242  -9.143  11.143  0.00  0.00    +0.013 A 
ATOM     32  C   UNL     1      -6.517  -8.765  10.012  0.00  0.00    +0.055 A 
BRANCH  32  34
ATOM      2  F   UNL     1      -8.577  -8.203   8.965  0.00  0.00    -0.166 F 
ATOM      3  F   UNL     1      -6.921  -6.824   8.673  0.00  0.00    -0.166 F 
ATOM      4  F   UNL     1      -6.925  -8.739   7.656  0.00  0.00    -0.166 F 
ATOM     34  C   UNL     1      -7.217  -8.146   8.851  0.00  0.00    +0.417 C 
ENDBRANCH  32  34
ENDBRANCH  22  25
ENDBRANCH  13  20
BRANCH  14  19
ATOM     19  C   UNL     1      -8.474 -11.889  17.025  0.00  0.00    +0.123 C 
BRANCH  19   9
ATOM      5  O   UNL     1     -10.832 -11.390  18.628  0.00  0.00    -0.275 OA
ATOM      9  N   UNL     1      -9.225 -10.673  17.106  0.00  0.00    -0.313 N 
ATOM     23  C   UNL     1     -10.355 -10.515  17.907  0.00  0.00    +0.223 C 
ATOM     36  H   UNL     1      -8.913  -9.892  16.538  0.00  0.00    +0.149 HD
BRANCH  23  26
ATOM     26  C   UNL     1     -10.978  -9.143  17.803  0.00  0.00    +0.165 C 
BRANCH  26   1
ATOM      1  S   UNL     1      -9.751  -7.989  17.146  0.00  0.00    -0.140 S 
BRANCH   1  33
ATOM     33  C   UNL     1     -10.542  -7.626  15.560  0.00  0.00    +0.189 C 
BRANCH  33  35
ATOM      7  O   UNL     1     -11.494  -5.635  14.591  0.00  0.00    -0.250 OA
ATOM     35  C   UNL     1     -11.087  -6.226  15.583  0.00  0.00    +0.315 C 
BRANCH  35   6
ATOM      6  O   UNL     1     -11.096  -5.687  16.828  0.00  0.00    -0.480 OA
ATOM     37  H   UNL     1     -11.931  -5.881  17.305  0.00  0.00    +0.295 HD
ENDBRANCH  35   6
ENDBRANCH  33  35
ENDBRANCH   1  33
ENDBRANCH  26   1
ENDBRANCH  23  26
ENDBRANCH  19   9
ENDBRANCH  14  19
TORSDOF 10
ENDMDL
MODEL 8
REMARK VINA RESULT:      -5.9      4.420      6.001
REMARK  Name = 40777150
REMARK  11 active torsions:
REMARK  status: ('A' for Active; 'I' for Inactive)
REMARK    1  A    between atoms: S_1  and  C_26
REMARK    2  A    between atoms: S_1  and  C_33
REMARK    3  A    between atoms: O_6  and  C_35
REMARK    4  A    between atoms: N_9  and  C_19
REMARK    5  A    between atoms: C_13  and  C_20
REMARK    6  A    between atoms: C_14  and  C_19
REMARK    7  A    between atoms: C_22  and  C_25
REMARK    8  A    between atoms: C_23  and  C_26
REMARK    9  A    between atoms: C_24  and  C_27
REMARK   10  A    between atoms: C_32  and  C_34
REMARK   11  A    between atoms: C_33  and  C_35
REMARK                            x       y       z     vdW  Elec       q    Type
REMARK                         _______ _______ _______ _____ _____    ______ ____
ROOT
ATOM      8  N   UNL     1      -6.872 -10.689  18.846  0.00  0.00    -0.297 NA
ATOM     12  C   UNL     1      -6.519 -12.381  16.897  0.00  0.00    +0.002 C 
ATOM     13  C   UNL     1      -5.163 -11.759  17.329  0.00  0.00    +0.055 C 
ATOM     14  C   UNL     1      -7.824 -10.399  17.742  0.00  0.00    +0.074 C 
ATOM     15  C   UNL     1      -7.495 -11.254  16.499  0.00  0.00    +0.024 C 
ATOM     16  C   UNL     1      -7.109 -13.072  18.147  0.00  0.00    +0.019 C 
ATOM     17  C   UNL     1      -5.476 -10.623  18.344  0.00  0.00    +0.094 C 
ATOM     18  C   UNL     1      -7.129 -12.072  19.316  0.00  0.00    +0.085 C 
ENDROOT
BRANCH  13  20
ATOM     10  N   UNL     1      -2.941 -11.013  16.629  0.00  0.00    -0.237 NA
ATOM     11  N   UNL     1      -2.425 -10.495  14.332  0.00  0.00    -0.232 NA
ATOM     20  C   UNL     1      -4.199 -11.309  16.240  0.00  0.00    +0.050 A 
ATOM     21  C   UNL     1      -4.637 -11.224  14.935  0.00  0.00    +0.052 A 
ATOM     22  C   UNL     1      -3.698 -10.808  14.014  0.00  0.00    +0.075 A 
ATOM     24  C   UNL     1      -2.119 -10.619  15.638  0.00  0.00    +0.127 A 
ATOM     27  C   UNL     1      -0.720 -10.279  16.029  0.00  0.00    +0.088 C 
BRANCH  22  25
ATOM     25  C   UNL     1      -4.031 -10.676  12.616  0.00  0.00    +0.000 A 
ATOM     28  C   UNL     1      -5.331 -10.339  12.237  0.00  0.00    +0.010 A 
ATOM     29  C   UNL     1      -3.053 -10.883  11.642  0.00  0.00    +0.010 A 
ATOM     30  C   UNL     1      -5.654 -10.211  10.886  0.00  0.00    +0.013 A 
ATOM     31  C   UNL     1      -3.375 -10.755  10.292  0.00  0.00    +0.013 A 
ATOM     32  C   UNL     1      -4.675 -10.419   9.914  0.00  0.00    +0.055 A 
BRANCH  32  34
ATOM      2  F   UNL     1      -4.680  -9.061   7.961  0.00  0.00    -0.166 F 
ATOM      3  F   UNL     1      -4.398 -11.197   7.668  0.00  0.00    -0.166 F 
ATOM      4  F   UNL     1      -6.353 -10.429   8.209  0.00  0.00    -0.166 F 
ATOM     34  C   UNL     1      -5.020 -10.282   8.469  0.00  0.00    +0.417 C 
ENDBRANCH  32  34
ENDBRANCH  22  25
ENDBRANCH  13  20
BRANCH  14  19
ATOM     19  C   UNL     1      -7.890  -8.908  17.407  0.00  0.00    +0.123 C 
BRANCH  19   9
ATOM      5  O   UNL     1      -9.612  -8.471  15.122  0.00  0.00    -0.275 OA
ATOM      9  N   UNL     1      -9.243  -8.442  17.419  0.00  0.00    -0.313 N 
ATOM     23  C   UNL     1     -10.006  -8.257  16.268  0.00  0.00    +0.223 C 
ATOM     36  H   UNL     1      -9.657  -8.230  18.322  0.00  0.00    +0.149 HD
BRANCH  23  26
ATOM     26  C   UNL     1     -11.398  -7.741  16.546  0.00  0.00    +0.165 C 
BRANCH  26   1
ATOM      1  S   UNL     1     -12.231  -7.424  14.972  0.00  0.00    -0.140 S 
BRANCH   1  33
ATOM     33  C   UNL     1     -11.854  -5.662  14.817  0.00  0.00    +0.189 C 
BRANCH  33  35
ATOM      7  O   UNL     1     -12.781  -5.892  12.604  0.00  0.00    -0.250 OA
ATOM     35  C   UNL     1     -12.309  -5.170  13.472  0.00  0.00    +0.315 C 
BRANCH  35   6
ATOM      6  O   UNL     1     -12.156  -3.829  13.325  0.00  0.00    -0.480 OA
ATOM     37  H   UNL     1     -11.555  -3.453  14.003  0.00  0.00    +0.295 HD
ENDBRANCH  35   6
ENDBRANCH  33  35
ENDBRANCH   1  33
ENDBRANCH  26   1
ENDBRANCH  23  26
ENDBRANCH  19   9
ENDBRANCH  14  19
TORSDOF 10
ENDMDL
MODEL 9
REMARK VINA RESULT:      -5.7      5.925      7.589
REMARK  Name = 40777150
REMARK  11 active torsions:
REMARK  status: ('A' for Active; 'I' for Inactive)
REMARK    1  A    between atoms: S_1  and  C_26
REMARK    2  A    between atoms: S_1  and  C_33
REMARK    3  A    between atoms: O_6  and  C_35
REMARK    4  A    between atoms: N_9  and  C_19
REMARK    5  A    between atoms: C_13  and  C_20
REMARK    6  A    between atoms: C_14  and  C_19
REMARK    7  A    between atoms: C_22  and  C_25
REMARK    8  A    between atoms: C_23  and  C_26
REMARK    9  A    between atoms: C_24  and  C_27
REMARK   10  A    between atoms: C_32  and  C_34
REMARK   11  A    between atoms: C_33  and  C_35
REMARK                            x       y       z     vdW  Elec       q    Type
REMARK                         _______ _______ _______ _____ _____    ______ ____
ROOT
ATOM      8  N   UNL     1     -10.923  -8.292  16.044  0.00  0.00    -0.297 NA
ATOM     12  C   UNL     1     -10.408 -10.337  17.574  0.00  0.00    +0.002 C 
ATOM     13  C   UNL     1      -9.217  -9.339  17.581  0.00  0.00    +0.055 C 
ATOM     14  C   UNL     1     -11.192  -9.557  15.311  0.00  0.00    +0.074 C 
ATOM     15  C   UNL     1     -10.699 -10.774  16.123  0.00  0.00    +0.024 C 
ATOM     16  C   UNL     1     -11.645  -9.556  18.070  0.00  0.00    +0.019 C 
ATOM     17  C   UNL     1      -9.510  -8.260  16.499  0.00  0.00    +0.094 C 
ATOM     18  C   UNL     1     -11.796  -8.268  17.243  0.00  0.00    +0.085 C 
ENDROOT
BRANCH  13  20
ATOM     10  N   UNL     1      -7.268 -10.416  18.592  0.00  0.00    -0.237 NA
ATOM     11  N   UNL     1      -5.279 -10.921  17.327  0.00  0.00    -0.232 NA
ATOM     20  C   UNL     1      -7.807  -9.900  17.467  0.00  0.00    +0.050 A 
ATOM     21  C   UNL     1      -7.153  -9.860  16.253  0.00  0.00    +0.052 A 
ATOM     22  C   UNL     1      -5.880 -10.391  16.242  0.00  0.00    +0.075 A 
ATOM     24  C   UNL     1      -6.020 -10.903  18.452  0.00  0.00    +0.127 A 
ATOM     27  C   UNL     1      -5.389 -11.479  19.674  0.00  0.00    +0.088 C 
BRANCH  22  25
ATOM     25  C   UNL     1      -5.089 -10.407  15.034  0.00  0.00    +0.000 A 
ATOM     28  C   UNL     1      -3.708 -10.588  15.107  0.00  0.00    +0.010 A 
ATOM     29  C   UNL     1      -5.706 -10.243  13.793  0.00  0.00    +0.010 A 
ATOM     30  C   UNL     1      -2.943 -10.604  13.940  0.00  0.00    +0.013 A 
ATOM     31  C   UNL     1      -4.943 -10.260  12.627  0.00  0.00    +0.013 A 
ATOM     32  C   UNL     1      -3.561 -10.440  12.700  0.00  0.00    +0.055 A 
BRANCH  32  34
ATOM      2  F   UNL     1      -2.917 -11.601  10.727  0.00  0.00    -0.166 F 
ATOM      3  F   UNL     1      -3.032  -9.434  10.595  0.00  0.00    -0.166 F 
ATOM      4  F   UNL     1      -1.401 -10.366  11.678  0.00  0.00    -0.166 F 
ATOM     34  C   UNL     1      -2.745 -10.457  11.453  0.00  0.00    +0.417 C 
ENDBRANCH  32  34
ENDBRANCH  22  25
ENDBRANCH  13  20
BRANCH  14  19
ATOM     19  C   UNL     1     -10.612  -9.543  13.895  0.00  0.00    +0.123 C 
BRANCH  19   9
ATOM      5  O   UNL     1     -13.223  -9.176  12.701  0.00  0.00    -0.275 OA
ATOM      9  N   UNL     1     -11.077  -8.405  13.163  0.00  0.00    -0.313 N 
ATOM     23  C   UNL     1     -12.356  -8.307  12.619  0.00  0.00    +0.223 C 
ATOM     36  H   UNL     1     -10.428  -7.635  13.034  0.00  0.00    +0.149 HD
BRANCH  23  26
ATOM     26  C   UNL     1     -12.597  -7.013  11.878  0.00  0.00    +0.165 C 
BRANCH  26   1
ATOM      1  S   UNL     1     -13.233  -5.782  13.040  0.00  0.00    -0.140 S 
BRANCH   1  33
ATOM     33  C   UNL     1     -13.563  -4.447  11.865  0.00  0.00    +0.189 C 
BRANCH  33  35
ATOM      7  O   UNL     1     -11.719  -3.506  10.632  0.00  0.00    -0.250 OA
ATOM     35  C   UNL     1     -12.323  -3.617  11.690  0.00  0.00    +0.315 C 
BRANCH  35   6
ATOM      6  O   UNL     1     -11.948  -2.988  12.833  0.00  0.00    -0.480 OA
ATOM     37  H   UNL     1     -12.633  -3.057  13.531  0.00  0.00    +0.295 HD
ENDBRANCH  35   6
ENDBRANCH  33  35
ENDBRANCH   1  33
ENDBRANCH  26   1
ENDBRANCH  23  26
ENDBRANCH  19   9
ENDBRANCH  14  19
TORSDOF 10
ENDMDL
MODEL 10
REMARK VINA RESULT:      -5.7      4.793      7.104
REMARK  Name = 40777150
REMARK  11 active torsions:
REMARK  status: ('A' for Active; 'I' for Inactive)
REMARK    1  A    between atoms: S_1  and  C_26
REMARK    2  A    between atoms: S_1  and  C_33
REMARK    3  A    between atoms: O_6  and  C_35
REMARK    4  A    between atoms: N_9  and  C_19
REMARK    5  A    between atoms: C_13  and  C_20
REMARK    6  A    between atoms: C_14  and  C_19
REMARK    7  A    between atoms: C_22  and  C_25
REMARK    8  A    between atoms: C_23  and  C_26
REMARK    9  A    between atoms: C_24  and  C_27
REMARK   10  A    between atoms: C_32  and  C_34
REMARK   11  A    between atoms: C_33  and  C_35
REMARK                            x       y       z     vdW  Elec       q    Type
REMARK                         _______ _______ _______ _____ _____    ______ ____
ROOT
ATOM      8  N   UNL     1      -6.082 -11.946  17.156  0.00  0.00    -0.297 NA
ATOM     12  C   UNL     1      -6.732 -10.697  19.348  0.00  0.00    +0.002 C 
ATOM     13  C   UNL     1      -7.969 -11.423  18.748  0.00  0.00    +0.055 C 
ATOM     14  C   UNL     1      -5.597 -10.542  17.104  0.00  0.00    +0.074 C 
ATOM     15  C   UNL     1      -6.149  -9.730  18.296  0.00  0.00    +0.024 C 
ATOM     16  C   UNL     1      -5.664 -11.781  19.609  0.00  0.00    +0.019 C 
ATOM     17  C   UNL     1      -7.554 -11.968  17.352  0.00  0.00    +0.094 C 
ATOM     18  C   UNL     1      -5.450 -12.602  18.326  0.00  0.00    +0.085 C 
ENDROOT
BRANCH  13  20
ATOM     10  N   UNL     1     -10.136 -10.872  19.738  0.00  0.00    -0.237 NA
ATOM     11  N   UNL     1     -11.682  -9.354  18.682  0.00  0.00    -0.232 NA
ATOM     20  C   UNL     1      -9.292 -10.672  18.704  0.00  0.00    +0.050 A 
ATOM     21  C   UNL     1      -9.568  -9.840  17.639  0.00  0.00    +0.052 A 
ATOM     22  C   UNL     1     -10.790  -9.200  17.682  0.00  0.00    +0.075 A 
ATOM     24  C   UNL     1     -11.296 -10.192  19.664  0.00  0.00    +0.127 A 
ATOM     27  C   UNL     1     -12.257 -10.389  20.786  0.00  0.00    +0.088 C 
BRANCH  22  25
ATOM     25  C   UNL     1     -11.200  -8.305  16.626  0.00  0.00    +0.000 A 
ATOM     28  C   UNL     1     -11.885  -8.801  15.517  0.00  0.00    +0.010 A 
ATOM     29  C   UNL     1     -10.912  -6.943  16.715  0.00  0.00    +0.010 A 
ATOM     30  C   UNL     1     -12.281  -7.936  14.497  0.00  0.00    +0.013 A 
ATOM     31  C   UNL     1     -11.308  -6.078  15.696  0.00  0.00    +0.013 A 
ATOM     32  C   UNL     1     -11.992  -6.574  14.587  0.00  0.00    +0.055 A 
BRANCH  32  34
ATOM      2  F   UNL     1     -11.582  -4.577  13.364  0.00  0.00    -0.166 F 
ATOM      3  F   UNL     1     -12.455  -6.237  12.264  0.00  0.00    -0.166 F 
ATOM      4  F   UNL     1     -13.663  -5.124  13.679  0.00  0.00    -0.166 F 
ATOM     34  C   UNL     1     -12.416  -5.650  13.496  0.00  0.00    +0.417 C 
ENDBRANCH  32  34
ENDBRANCH  22  25
ENDBRANCH  13  20
BRANCH  14  19
ATOM     19  C   UNL     1      -5.905  -9.869  15.765  0.00  0.00    +0.123 C 
BRANCH  19   9
ATOM      5  O   UNL     1      -6.319  -9.455  12.930  0.00  0.00    -0.275 OA
ATOM      9  N   UNL     1      -5.272 -10.565  14.687  0.00  0.00    -0.313 N 
ATOM     23  C   UNL     1      -5.528 -10.303  13.343  0.00  0.00    +0.223 C 
ATOM     36  H   UNL     1      -4.605 -11.292  14.927  0.00  0.00    +0.149 HD
BRANCH  23  26
ATOM     26  C   UNL     1      -4.745 -11.185  12.398  0.00  0.00    +0.165 C 
BRANCH  26   1
ATOM      1  S   UNL     1      -3.265 -10.297  11.858  0.00  0.00    -0.140 S 
BRANCH   1  33
ATOM     33  C   UNL     1      -2.016 -11.406  12.554  0.00  0.00    +0.189 C 
BRANCH  33  35
ATOM      7  O   UNL     1      -1.741 -12.119  14.839  0.00  0.00    -0.250 OA
ATOM     35  C   UNL     1      -1.952 -11.214  14.042  0.00  0.00    +0.315 C 
BRANCH  35   6
ATOM      6  O   UNL     1      -2.138  -9.922  14.413  0.00  0.00    -0.480 OA
ATOM     37  H   UNL     1      -2.974  -9.802  14.911  0.00  0.00    +0.295 HD
ENDBRANCH  35   6
ENDBRANCH  33  35
ENDBRANCH   1  33
ENDBRANCH  26   1
ENDBRANCH  23  26
ENDBRANCH  19   9
ENDBRANCH  14  19
TORSDOF 10
ENDMDL
