MODEL 1
REMARK VINA RESULT:      -6.9      0.000      0.000
REMARK  Name = 25390041
REMARK  8 active torsions:
REMARK  status: ('A' for Active; 'I' for Inactive)
REMARK    1  A    between atoms: N_3  and  C_9
REMARK    2  A    between atoms: N_4  and  C_18
REMARK    3  A    between atoms: N_6  and  C_19
REMARK    4  A    between atoms: C_7  and  C_10
REMARK    5  A    between atoms: C_13  and  C_15
REMARK    6  A    between atoms: C_14  and  C_16
REMARK    7  A    between atoms: C_19  and  C_22
REMARK    8  A    between atoms: C_19  and  C_23
REMARK                            x       y       z     vdW  Elec       q    Type
REMARK                         _______ _______ _______ _____ _____    ______ ____
ROOT
ATOM      7  C   UNL     1      18.877   5.706  20.704  0.00  0.00    +0.047 C 
ATOM      8  C   UNL     1      18.159   7.046  20.969  0.00  0.00    +0.039 C 
ATOM      9  C   UNL     1      16.923   7.046  20.061  0.00  0.00    +0.098 C 
ATOM     11  C   UNL     1      18.351   5.321  19.352  0.00  0.00    -0.021 C 
ATOM     12  C   UNL     1      17.285   6.051  19.008  0.00  0.00    -0.009 C 
ENDROOT
BRANCH   7  10
ATOM      4  N   UNL     1      22.516   5.364  20.943  0.00  0.00    -0.236 N 
ATOM      5  N   UNL     1      22.479   6.706  20.880  0.00  0.00    -0.171 NA
ATOM     10  C   UNL     1      20.382   5.806  20.793  0.00  0.00    +0.003 A 
ATOM     13  C   UNL     1      21.286   4.776  20.894  0.00  0.00    +0.046 A 
ATOM     14  C   UNL     1      21.173   6.970  20.788  0.00  0.00    +0.064 A 
ATOM     15  C   UNL     1      21.084   3.315  20.945  0.00  0.00    +0.066 C 
ATOM     16  C   UNL     1      20.721   8.369  20.697  0.00  0.00    +0.068 C 
BRANCH   4  18
ATOM      1  F   UNL     1      27.377   2.773  21.359  0.00  0.00    -0.205 F 
ATOM     18  C   UNL     1      23.743   4.710  21.049  0.00  0.00    +0.066 A 
ATOM     20  C   UNL     1      24.432   4.328  19.896  0.00  0.00    +0.030 A 
ATOM     21  C   UNL     1      24.284   4.438  22.305  0.00  0.00    +0.030 A 
ATOM     24  C   UNL     1      25.659   3.674  20.001  0.00  0.00    +0.040 A 
ATOM     25  C   UNL     1      25.511   3.784  22.410  0.00  0.00    +0.040 A 
ATOM     26  C   UNL     1      26.199   3.402  21.258  0.00  0.00    +0.124 A 
ENDBRANCH   4  18
ENDBRANCH   7  10
BRANCH   9   3
ATOM      2  O   UNL     1      14.213   7.895  19.552  0.00  0.00    -0.253 OA
ATOM      3  N   UNL     1      15.734   6.604  20.739  0.00  0.00    -0.293 N 
ATOM      6  N   UNL     1      13.488   6.477  21.239  0.00  0.00    -0.297 N 
ATOM     17  C   UNL     1      14.454   7.068  20.430  0.00  0.00    +0.300 C 
ATOM     27  H   UNL     1      15.827   5.956  21.518  0.00  0.00    +0.151 HD
ATOM     28  H   UNL     1      13.778   5.748  21.884  0.00  0.00    +0.150 HD
BRANCH   6  19
ATOM     19  C   UNL     1      12.080   6.781  21.127  0.00  0.00    +0.068 C 
ATOM     22  C   UNL     1      11.737   8.015  21.952  0.00  0.00    +0.027 C 
ATOM     23  C   UNL     1      11.239   5.583  21.548  0.00  0.00    +0.027 C 
ENDBRANCH   6  19
ENDBRANCH   9   3
TORSDOF 4
ENDMDL
MODEL 2
REMARK VINA RESULT:      -6.7     31.368     34.220
REMARK  Name = 25390041
REMARK  8 active torsions:
REMARK  status: ('A' for Active; 'I' for Inactive)
REMARK    1  A    between atoms: N_3  and  C_9
REMARK    2  A    between atoms: N_4  and  C_18
REMARK    3  A    between atoms: N_6  and  C_19
REMARK    4  A    between atoms: C_7  and  C_10
REMARK    5  A    between atoms: C_13  and  C_15
REMARK    6  A    between atoms: C_14  and  C_16
REMARK    7  A    between atoms: C_19  and  C_22
REMARK    8  A    between atoms: C_19  and  C_23
REMARK                            x       y       z     vdW  Elec       q    Type
REMARK                         _______ _______ _______ _____ _____    ______ ____
ROOT
ATOM      7  C   UNL     1     -14.556   6.040  21.871  0.00  0.00    +0.047 C 
ATOM      8  C   UNL     1     -15.198   6.669  23.127  0.00  0.00    +0.039 C 
ATOM      9  C   UNL     1     -16.221   5.645  23.631  0.00  0.00    +0.098 C 
ATOM     11  C   UNL     1     -15.587   5.032  21.454  0.00  0.00    -0.021 C 
ATOM     12  C   UNL     1     -16.489   4.817  22.417  0.00  0.00    -0.009 C 
ENDROOT
BRANCH   7  10
ATOM      4  N   UNL     1     -13.134   8.367  19.426  0.00  0.00    -0.236 N 
ATOM      5  N   UNL     1     -14.428   8.633  19.175  0.00  0.00    -0.171 NA
ATOM     10  C   UNL     1     -14.199   7.056  20.810  0.00  0.00    +0.003 A 
ATOM     13  C   UNL     1     -12.943   7.429  20.397  0.00  0.00    +0.046 A 
ATOM     14  C   UNL     1     -15.073   7.829  20.024  0.00  0.00    +0.064 A 
ATOM     15  C   UNL     1     -11.607   6.978  20.836  0.00  0.00    +0.066 C 
ATOM     16  C   UNL     1     -16.546   7.833  20.048  0.00  0.00    +0.068 C 
BRANCH   4  18
ATOM      1  F   UNL     1      -9.195  11.014  16.598  0.00  0.00    -0.205 F 
ATOM     18  C   UNL     1     -12.140   9.036  18.712  0.00  0.00    +0.066 A 
ATOM     20  C   UNL     1     -11.722   8.547  17.473  0.00  0.00    +0.030 A 
ATOM     21  C   UNL     1     -11.563  10.193  19.235  0.00  0.00    +0.030 A 
ATOM     24  C   UNL     1     -10.728   9.216  16.759  0.00  0.00    +0.040 A 
ATOM     25  C   UNL     1     -10.569  10.861  18.521  0.00  0.00    +0.040 A 
ATOM     26  C   UNL     1     -10.150  10.373  17.283  0.00  0.00    +0.124 A 
ENDBRANCH   4  18
ENDBRANCH   7  10
BRANCH   9   3
ATOM      2  O   UNL     1     -17.686   4.483  25.829  0.00  0.00    -0.253 OA
ATOM      3  N   UNL     1     -15.699   4.801  24.672  0.00  0.00    -0.293 N 
ATOM      6  N   UNL     1     -15.722   3.498  26.573  0.00  0.00    -0.297 N 
ATOM     17  C   UNL     1     -16.480   4.279  25.704  0.00  0.00    +0.300 C 
ATOM     27  H   UNL     1     -14.700   4.610  24.691  0.00  0.00    +0.151 HD
ATOM     28  H   UNL     1     -14.747   3.326  26.342  0.00  0.00    +0.150 HD
BRANCH   6  19
ATOM     19  C   UNL     1     -16.286   2.839  27.727  0.00  0.00    +0.068 C 
ATOM     22  C   UNL     1     -15.361   2.991  28.929  0.00  0.00    +0.027 C 
ATOM     23  C   UNL     1     -16.560   1.372  27.424  0.00  0.00    +0.027 C 
ENDBRANCH   6  19
ENDBRANCH   9   3
TORSDOF 4
ENDMDL
MODEL 3
REMARK VINA RESULT:      -6.5     30.323     33.451
REMARK  Name = 25390041
REMARK  8 active torsions:
REMARK  status: ('A' for Active; 'I' for Inactive)
REMARK    1  A    between atoms: N_3  and  C_9
REMARK    2  A    between atoms: N_4  and  C_18
REMARK    3  A    between atoms: N_6  and  C_19
REMARK    4  A    between atoms: C_7  and  C_10
REMARK    5  A    between atoms: C_13  and  C_15
REMARK    6  A    between atoms: C_14  and  C_16
REMARK    7  A    between atoms: C_19  and  C_22
REMARK    8  A    between atoms: C_19  and  C_23
REMARK                            x       y       z     vdW  Elec       q    Type
REMARK                         _______ _______ _______ _____ _____    ______ ____
ROOT
ATOM      7  C   UNL     1      -7.102 -11.220  16.593  0.00  0.00    +0.047 C 
ATOM      8  C   UNL     1      -6.301  -9.934  16.299  0.00  0.00    +0.039 C 
ATOM      9  C   UNL     1      -5.000 -10.396  15.632  0.00  0.00    +0.098 C 
ATOM     11  C   UNL     1      -6.033 -12.273  16.593  0.00  0.00    -0.021 C 
ATOM     12  C   UNL     1      -4.891 -11.821  16.065  0.00  0.00    -0.009 C 
ENDROOT
BRANCH   7  10
ATOM      4  N   UNL     1      -9.532 -11.106  19.331  0.00  0.00    -0.236 N 
ATOM      5  N   UNL     1      -8.429 -10.936  20.081  0.00  0.00    -0.171 NA
ATOM     10  C   UNL     1      -7.913 -11.141  17.866  0.00  0.00    +0.003 A 
ATOM     13  C   UNL     1      -9.278 -11.235  17.998  0.00  0.00    +0.046 A 
ATOM     14  C   UNL     1      -7.443 -10.958  19.180  0.00  0.00    +0.064 A 
ATOM     15  C   UNL     1     -10.335 -11.432  16.986  0.00  0.00    +0.066 C 
ATOM     16  C   UNL     1      -6.049 -10.799  19.628  0.00  0.00    +0.068 C 
BRANCH   4  18
ATOM      1  F   UNL     1     -14.497 -11.227  21.751  0.00  0.00    -0.205 F 
ATOM     18  C   UNL     1     -10.786 -11.136  19.942  0.00  0.00    +0.066 A 
ATOM     20  C   UNL     1     -11.306 -12.345  20.407  0.00  0.00    +0.030 A 
ATOM     21  C   UNL     1     -11.519  -9.959  20.090  0.00  0.00    +0.030 A 
ATOM     24  C   UNL     1     -12.560 -12.375  21.018  0.00  0.00    +0.040 A 
ATOM     25  C   UNL     1     -12.772  -9.990  20.701  0.00  0.00    +0.040 A 
ATOM     26  C   UNL     1     -13.293 -11.198  21.165  0.00  0.00    +0.124 A 
ENDBRANCH   4  18
ENDBRANCH   7  10
BRANCH   9   3
ATOM      2  O   UNL     1      -2.799 -10.663  13.784  0.00  0.00    -0.253 OA
ATOM      3  N   UNL     1      -5.061 -10.342  14.195  0.00  0.00    -0.293 N 
ATOM      6  N   UNL     1      -4.286 -10.388  12.025  0.00  0.00    -0.297 N 
ATOM     17  C   UNL     1      -3.942 -10.481  13.371  0.00  0.00    +0.300 C 
ATOM     27  H   UNL     1      -5.955 -10.146  13.751  0.00  0.00    +0.151 HD
ATOM     28  H   UNL     1      -5.269 -10.314  11.781  0.00  0.00    +0.150 HD
BRANCH   6  19
ATOM     19  C   UNL     1      -3.316 -10.499  10.961  0.00  0.00    +0.068 C 
ATOM     22  C   UNL     1      -3.304  -9.227  10.122  0.00  0.00    +0.027 C 
ATOM     23  C   UNL     1      -3.601 -11.724  10.102  0.00  0.00    +0.027 C 
ENDBRANCH   6  19
ENDBRANCH   9   3
TORSDOF 4
ENDMDL
MODEL 4
REMARK VINA RESULT:      -6.4     28.768     31.339
REMARK  Name = 25390041
REMARK  8 active torsions:
REMARK  status: ('A' for Active; 'I' for Inactive)
REMARK    1  A    between atoms: N_3  and  C_9
REMARK    2  A    between atoms: N_4  and  C_18
REMARK    3  A    between atoms: N_6  and  C_19
REMARK    4  A    between atoms: C_7  and  C_10
REMARK    5  A    between atoms: C_13  and  C_15
REMARK    6  A    between atoms: C_14  and  C_16
REMARK    7  A    between atoms: C_19  and  C_22
REMARK    8  A    between atoms: C_19  and  C_23
REMARK                            x       y       z     vdW  Elec       q    Type
REMARK                         _______ _______ _______ _____ _____    ______ ____
ROOT
ATOM      7  C   UNL     1      -4.720 -10.201  11.012  0.00  0.00    +0.047 C 
ATOM      8  C   UNL     1      -5.675  -8.997  10.873  0.00  0.00    +0.039 C 
ATOM      9  C   UNL     1      -5.351  -8.360   9.517  0.00  0.00    +0.098 C 
ATOM     11  C   UNL     1      -3.617  -9.849  10.058  0.00  0.00    -0.021 C 
ATOM     12  C   UNL     1      -3.967  -8.848   9.243  0.00  0.00    -0.009 C 
ENDROOT
BRANCH   7  10
ATOM      4  N   UNL     1      -4.203 -10.860  14.578  0.00  0.00    -0.236 N 
ATOM      5  N   UNL     1      -2.908 -10.715  14.247  0.00  0.00    -0.171 NA
ATOM     10  C   UNL     1      -4.272 -10.448  12.434  0.00  0.00    +0.003 A 
ATOM     13  C   UNL     1      -5.060 -10.710  13.528  0.00  0.00    +0.046 A 
ATOM     14  C   UNL     1      -2.956 -10.464  12.935  0.00  0.00    +0.064 A 
ATOM     15  C   UNL     1      -6.526 -10.827  13.657  0.00  0.00    +0.066 C 
ATOM     16  C   UNL     1      -1.703 -10.243  12.193  0.00  0.00    +0.068 C 
BRANCH   4  18
ATOM      1  F   UNL     1      -5.584 -11.959  19.813  0.00  0.00    -0.205 F 
ATOM     18  C   UNL     1      -4.551 -11.137  15.899  0.00  0.00    +0.066 A 
ATOM     20  C   UNL     1      -4.533 -12.453  16.365  0.00  0.00    +0.030 A 
ATOM     21  C   UNL     1      -4.918 -10.100  16.757  0.00  0.00    +0.030 A 
ATOM     24  C   UNL     1      -4.882 -12.730  17.686  0.00  0.00    +0.040 A 
ATOM     25  C   UNL     1      -5.267 -10.378  18.079  0.00  0.00    +0.040 A 
ATOM     26  C   UNL     1      -5.249 -11.693  18.544  0.00  0.00    +0.124 A 
ENDBRANCH   4  18
ENDBRANCH   7  10
BRANCH   9   3
ATOM      2  O   UNL     1      -7.918  -7.253   8.799  0.00  0.00    -0.253 OA
ATOM      3  N   UNL     1      -6.227  -8.809   8.467  0.00  0.00    -0.293 N 
ATOM      6  N   UNL     1      -8.098  -8.847   7.123  0.00  0.00    -0.297 N 
ATOM     17  C   UNL     1      -7.458  -8.214   8.185  0.00  0.00    +0.300 C 
ATOM     27  H   UNL     1      -5.964  -9.631   7.929  0.00  0.00    +0.151 HD
ATOM     28  H   UNL     1      -7.603  -9.584   6.630  0.00  0.00    +0.150 HD
BRANCH   6  19
ATOM     19  C   UNL     1      -9.389  -8.430   6.626  0.00  0.00    +0.068 C 
ATOM     22  C   UNL     1     -10.169  -9.631   6.107  0.00  0.00    +0.027 C 
ATOM     23  C   UNL     1      -9.229  -7.367   5.548  0.00  0.00    +0.027 C 
ENDBRANCH   6  19
ENDBRANCH   9   3
TORSDOF 4
ENDMDL
MODEL 5
REMARK VINA RESULT:      -6.4     28.069     33.336
REMARK  Name = 25390041
REMARK  8 active torsions:
REMARK  status: ('A' for Active; 'I' for Inactive)
REMARK    1  A    between atoms: N_3  and  C_9
REMARK    2  A    between atoms: N_4  and  C_18
REMARK    3  A    between atoms: N_6  and  C_19
REMARK    4  A    between atoms: C_7  and  C_10
REMARK    5  A    between atoms: C_13  and  C_15
REMARK    6  A    between atoms: C_14  and  C_16
REMARK    7  A    between atoms: C_19  and  C_22
REMARK    8  A    between atoms: C_19  and  C_23
REMARK                            x       y       z     vdW  Elec       q    Type
REMARK                         _______ _______ _______ _____ _____    ______ ____
ROOT
ATOM      7  C   UNL     1      -5.432  -9.264   9.531  0.00  0.00    +0.047 C 
ATOM      8  C   UNL     1      -5.091 -10.651  10.116  0.00  0.00    +0.039 C 
ATOM      9  C   UNL     1      -3.682 -10.522  10.706  0.00  0.00    +0.098 C 
ATOM     11  C   UNL     1      -4.074  -8.655   9.336  0.00  0.00    -0.021 C 
ATOM     12  C   UNL     1      -3.125  -9.342   9.981  0.00  0.00    -0.009 C 
ENDROOT
BRANCH   7  10
ATOM      4  N   UNL     1      -7.835  -9.050   6.774  0.00  0.00    -0.236 N 
ATOM      5  N   UNL     1      -6.996  -9.927   6.195  0.00  0.00    -0.171 NA
ATOM     10  C   UNL     1      -6.279  -9.334   8.281  0.00  0.00    +0.003 A 
ATOM     13  C   UNL     1      -7.451  -8.663   8.024  0.00  0.00    +0.046 A 
ATOM     14  C   UNL     1      -6.047 -10.096   7.121  0.00  0.00    +0.064 A 
ATOM     15  C   UNL     1      -8.217  -7.707   8.847  0.00  0.00    +0.066 C 
ATOM     16  C   UNL     1      -4.923 -11.008   6.848  0.00  0.00    +0.068 C 
BRANCH   4  18
ATOM      1  F   UNL     1     -12.343  -7.370   4.059  0.00  0.00    -0.205 F 
ATOM     18  C   UNL     1      -8.973  -8.626   6.089  0.00  0.00    +0.066 A 
ATOM     20  C   UNL     1      -8.919  -7.488   5.284  0.00  0.00    +0.030 A 
ATOM     21  C   UNL     1     -10.165  -9.340   6.206  0.00  0.00    +0.030 A 
ATOM     24  C   UNL     1     -10.057  -7.064   4.598  0.00  0.00    +0.040 A 
ATOM     25  C   UNL     1     -11.303  -8.916   5.521  0.00  0.00    +0.040 A 
ATOM     26  C   UNL     1     -11.250  -7.778   4.717  0.00  0.00    +0.124 A 
ENDBRANCH   4  18
ENDBRANCH   7  10
BRANCH   9   3
ATOM      2  O   UNL     1      -2.036 -11.755  12.731  0.00  0.00    -0.253 OA
ATOM      3  N   UNL     1      -3.693 -10.248  12.118  0.00  0.00    -0.293 N 
ATOM      6  N   UNL     1      -3.078 -10.437  14.331  0.00  0.00    -0.297 N 
ATOM     17  C   UNL     1      -2.860 -10.893  13.034  0.00  0.00    +0.300 C 
ATOM     27  H   UNL     1      -4.373  -9.585  12.482  0.00  0.00    +0.151 HD
ATOM     28  H   UNL     1      -3.726  -9.667  14.470  0.00  0.00    +0.150 HD
BRANCH   6  19
ATOM     19  C   UNL     1      -2.347 -10.940  15.471  0.00  0.00    +0.068 C 
ATOM     22  C   UNL     1      -3.221 -10.903  16.718  0.00  0.00    +0.027 C 
ATOM     23  C   UNL     1      -1.062 -10.148  15.673  0.00  0.00    +0.027 C 
ENDBRANCH   6  19
ENDBRANCH   9   3
TORSDOF 4
ENDMDL
MODEL 6
REMARK VINA RESULT:      -6.3     28.365     31.547
REMARK  Name = 25390041
REMARK  8 active torsions:
REMARK  status: ('A' for Active; 'I' for Inactive)
REMARK    1  A    between atoms: N_3  and  C_9
REMARK    2  A    between atoms: N_4  and  C_18
REMARK    3  A    between atoms: N_6  and  C_19
REMARK    4  A    between atoms: C_7  and  C_10
REMARK    5  A    between atoms: C_13  and  C_15
REMARK    6  A    between atoms: C_14  and  C_16
REMARK    7  A    between atoms: C_19  and  C_22
REMARK    8  A    between atoms: C_19  and  C_23
REMARK                            x       y       z     vdW  Elec       q    Type
REMARK                         _______ _______ _______ _____ _____    ______ ____
ROOT
ATOM      7  C   UNL     1      -3.940 -10.109  10.600  0.00  0.00    +0.047 C 
ATOM      8  C   UNL     1      -4.771 -11.235   9.949  0.00  0.00    +0.039 C 
ATOM      9  C   UNL     1      -5.672 -10.547   8.917  0.00  0.00    +0.098 C 
ATOM     11  C   UNL     1      -4.771  -8.891  10.319  0.00  0.00    -0.021 C 
ATOM     12  C   UNL     1      -5.711  -9.134   9.399  0.00  0.00    -0.009 C 
ENDROOT
BRANCH   7  10
ATOM      4  N   UNL     1      -3.801 -10.804  14.194  0.00  0.00    -0.236 N 
ATOM      5  N   UNL     1      -2.492 -10.552  14.023  0.00  0.00    -0.171 NA
ATOM     10  C   UNL     1      -3.646 -10.352  12.063  0.00  0.00    +0.003 A 
ATOM     13  C   UNL     1      -4.536 -10.698  13.050  0.00  0.00    +0.046 A 
ATOM     14  C   UNL     1      -2.403 -10.276  12.719  0.00  0.00    +0.064 A 
ATOM     15  C   UNL     1      -5.993 -10.932  12.999  0.00  0.00    +0.066 C 
ATOM     16  C   UNL     1      -1.092  -9.942  12.136  0.00  0.00    +0.068 C 
BRANCH   4  18
ATOM      1  F   UNL     1      -5.705 -12.122  19.209  0.00  0.00    -0.205 F 
ATOM     18  C   UNL     1      -4.282 -11.136  15.460  0.00  0.00    +0.066 A 
ATOM     20  C   UNL     1      -4.355 -12.475  15.849  0.00  0.00    +0.030 A 
ATOM     21  C   UNL     1      -4.688 -10.132  16.339  0.00  0.00    +0.030 A 
ATOM     24  C   UNL     1      -4.836 -12.807  17.115  0.00  0.00    +0.040 A 
ATOM     25  C   UNL     1      -5.168 -10.465  17.605  0.00  0.00    +0.040 A 
ATOM     26  C   UNL     1      -5.243 -11.803  17.994  0.00  0.00    +0.124 A 
ENDBRANCH   4  18
ENDBRANCH   7  10
BRANCH   9   3
ATOM      2  O   UNL     1      -5.891 -12.685   6.991  0.00  0.00    -0.253 OA
ATOM      3  N   UNL     1      -5.121 -10.577   7.589  0.00  0.00    -0.293 N 
ATOM      6  N   UNL     1      -4.641 -11.423   5.499  0.00  0.00    -0.297 N 
ATOM     17  C   UNL     1      -5.274 -11.657   6.717  0.00  0.00    +0.300 C 
ATOM     27  H   UNL     1      -4.549  -9.796   7.278  0.00  0.00    +0.151 HD
ATOM     28  H   UNL     1      -4.223 -10.511   5.339  0.00  0.00    +0.150 HD
BRANCH   6  19
ATOM     19  C   UNL     1      -4.646 -12.380   4.418  0.00  0.00    +0.068 C 
ATOM     22  C   UNL     1      -3.300 -12.378   3.702  0.00  0.00    +0.027 C 
ATOM     23  C   UNL     1      -5.786 -12.089   3.451  0.00  0.00    +0.027 C 
ENDBRANCH   6  19
ENDBRANCH   9   3
TORSDOF 4
ENDMDL
MODEL 7
REMARK VINA RESULT:      -6.3     29.269     31.575
REMARK  Name = 25390041
REMARK  8 active torsions:
REMARK  status: ('A' for Active; 'I' for Inactive)
REMARK    1  A    between atoms: N_3  and  C_9
REMARK    2  A    between atoms: N_4  and  C_18
REMARK    3  A    between atoms: N_6  and  C_19
REMARK    4  A    between atoms: C_7  and  C_10
REMARK    5  A    between atoms: C_13  and  C_15
REMARK    6  A    between atoms: C_14  and  C_16
REMARK    7  A    between atoms: C_19  and  C_22
REMARK    8  A    between atoms: C_19  and  C_23
REMARK                            x       y       z     vdW  Elec       q    Type
REMARK                         _______ _______ _______ _____ _____    ______ ____
ROOT
ATOM      7  C   UNL     1      -5.687 -10.107  16.052  0.00  0.00    +0.047 C 
ATOM      8  C   UNL     1      -6.645 -11.262  16.415  0.00  0.00    +0.039 C 
ATOM      9  C   UNL     1      -6.585 -11.391  17.941  0.00  0.00    +0.098 C 
ATOM     11  C   UNL     1      -4.786 -10.047  17.251  0.00  0.00    -0.021 C 
ATOM     12  C   UNL     1      -5.282 -10.745  18.279  0.00  0.00    -0.009 C 
ENDROOT
BRANCH   7  10
ATOM      4  N   UNL     1      -4.465 -10.446  12.615  0.00  0.00    -0.236 N 
ATOM      5  N   UNL     1      -3.326 -10.804  13.232  0.00  0.00    -0.171 NA
ATOM     10  C   UNL     1      -4.974 -10.313  14.735  0.00  0.00    +0.003 A 
ATOM     13  C   UNL     1      -5.483 -10.142  13.471  0.00  0.00    +0.046 A 
ATOM     14  C   UNL     1      -3.643 -10.721  14.527  0.00  0.00    +0.064 A 
ATOM     15  C   UNL     1      -6.823  -9.722  13.017  0.00  0.00    +0.066 C 
ATOM     16  C   UNL     1      -2.627 -11.045  15.544  0.00  0.00    +0.068 C 
BRANCH   4  18
ATOM      1  F   UNL     1      -4.669 -10.324   7.096  0.00  0.00    -0.205 F 
ATOM     18  C   UNL     1      -4.516 -10.415  11.222  0.00  0.00    +0.066 A 
ATOM     20  C   UNL     1      -4.841 -11.571  10.510  0.00  0.00    +0.030 A 
ATOM     21  C   UNL     1      -4.245  -9.230  10.539  0.00  0.00    +0.030 A 
ATOM     24  C   UNL     1      -4.892 -11.540   9.116  0.00  0.00    +0.040 A 
ATOM     25  C   UNL     1      -4.297  -9.199   9.146  0.00  0.00    +0.040 A 
ATOM     26  C   UNL     1      -4.620 -10.354   8.434  0.00  0.00    +0.124 A 
ENDBRANCH   4  18
ENDBRANCH   7  10
BRANCH   9   3
ATOM      2  O   UNL     1      -9.419 -11.869  17.680  0.00  0.00    -0.253 OA
ATOM      3  N   UNL     1      -7.649 -10.683  18.602  0.00  0.00    -0.293 N 
ATOM      6  N   UNL     1      -9.814 -10.141  19.177  0.00  0.00    -0.297 N 
ATOM     17  C   UNL     1      -9.001 -10.979  18.419  0.00  0.00    +0.300 C 
ATOM     27  H   UNL     1      -7.414  -9.893  19.198  0.00  0.00    +0.151 HD
ATOM     28  H   UNL     1      -9.371  -9.486  19.815  0.00  0.00    +0.150 HD
BRANCH   6  19
ATOM     19  C   UNL     1     -11.255 -10.234  19.172  0.00  0.00    +0.068 C 
ATOM     22  C   UNL     1     -11.845  -9.274  18.146  0.00  0.00    +0.027 C 
ATOM     23  C   UNL     1     -11.813  -9.966  20.564  0.00  0.00    +0.027 C 
ENDBRANCH   6  19
ENDBRANCH   9   3
TORSDOF 4
ENDMDL
MODEL 8
REMARK VINA RESULT:      -6.3     24.296     29.647
REMARK  Name = 25390041
REMARK  8 active torsions:
REMARK  status: ('A' for Active; 'I' for Inactive)
REMARK    1  A    between atoms: N_3  and  C_9
REMARK    2  A    between atoms: N_4  and  C_18
REMARK    3  A    between atoms: N_6  and  C_19
REMARK    4  A    between atoms: C_7  and  C_10
REMARK    5  A    between atoms: C_13  and  C_15
REMARK    6  A    between atoms: C_14  and  C_16
REMARK    7  A    between atoms: C_19  and  C_22
REMARK    8  A    between atoms: C_19  and  C_23
REMARK                            x       y       z     vdW  Elec       q    Type
REMARK                         _______ _______ _______ _____ _____    ______ ____
ROOT
ATOM      7  C   UNL     1      -1.620   9.656   3.422  0.00  0.00    +0.047 C 
ATOM      8  C   UNL     1      -1.072   9.735   1.982  0.00  0.00    +0.039 C 
ATOM      9  C   UNL     1       0.091  10.733   2.030  0.00  0.00    +0.098 C 
ATOM     11  C   UNL     1      -1.137  10.945   4.022  0.00  0.00    -0.021 C 
ATOM     12  C   UNL     1      -0.202  11.526   3.262  0.00  0.00    -0.009 C 
ENDROOT
BRANCH   7  10
ATOM      4  N   UNL     1      -5.131   8.786   4.002  0.00  0.00    -0.236 N 
ATOM      5  N   UNL     1      -5.339   9.662   3.003  0.00  0.00    -0.171 NA
ATOM     10  C   UNL     1      -3.116   9.452   3.483  0.00  0.00    +0.003 A 
ATOM     13  C   UNL     1      -3.816   8.625   4.327  0.00  0.00    +0.046 A 
ATOM     14  C   UNL     1      -4.105  10.066   2.690  0.00  0.00    +0.064 A 
ATOM     15  C   UNL     1      -3.352   7.716   5.394  0.00  0.00    +0.066 C 
ATOM     16  C   UNL     1      -3.917  11.052   1.613  0.00  0.00    +0.068 C 
BRANCH   4  18
ATOM      1  F   UNL     1      -9.431   6.241   6.357  0.00  0.00    -0.205 F 
ATOM     18  C   UNL     1      -6.216   8.144   4.596  0.00  0.00    +0.066 A 
ATOM     20  C   UNL     1      -6.427   6.782   4.377  0.00  0.00    +0.030 A 
ATOM     21  C   UNL     1      -7.091   8.862   5.412  0.00  0.00    +0.030 A 
ATOM     24  C   UNL     1      -7.513   6.139   4.972  0.00  0.00    +0.040 A 
ATOM     25  C   UNL     1      -8.177   8.219   6.006  0.00  0.00    +0.040 A 
ATOM     26  C   UNL     1      -8.388   6.858   5.786  0.00  0.00    +0.124 A 
ENDBRANCH   4  18
ENDBRANCH   7  10
BRANCH   9   3
ATOM      2  O   UNL     1       2.689  11.911   1.592  0.00  0.00    -0.253 OA
ATOM      3  N   UNL     1       1.370  10.091   2.175  0.00  0.00    -0.293 N 
ATOM      6  N   UNL     1       3.665   9.884   2.155  0.00  0.00    -0.297 N 
ATOM     17  C   UNL     1       2.586  10.737   1.942  0.00  0.00    +0.300 C 
ATOM     27  H   UNL     1       1.397   9.103   2.413  0.00  0.00    +0.151 HD
ATOM     28  H   UNL     1       3.481   8.952   2.518  0.00  0.00    +0.150 HD
BRANCH   6  19
ATOM     19  C   UNL     1       5.038  10.300   1.985  0.00  0.00    +0.068 C 
ATOM     22  C   UNL     1       5.665   9.583   0.796  0.00  0.00    +0.027 C 
ATOM     23  C   UNL     1       5.833  10.055   3.260  0.00  0.00    +0.027 C 
ENDBRANCH   6  19
ENDBRANCH   9   3
TORSDOF 4
ENDMDL
MODEL 9
REMARK VINA RESULT:      -6.3      5.013      9.464
REMARK  Name = 25390041
REMARK  8 active torsions:
REMARK  status: ('A' for Active; 'I' for Inactive)
REMARK    1  A    between atoms: N_3  and  C_9
REMARK    2  A    between atoms: N_4  and  C_18
REMARK    3  A    between atoms: N_6  and  C_19
REMARK    4  A    between atoms: C_7  and  C_10
REMARK    5  A    between atoms: C_13  and  C_15
REMARK    6  A    between atoms: C_14  and  C_16
REMARK    7  A    between atoms: C_19  and  C_22
REMARK    8  A    between atoms: C_19  and  C_23
REMARK                            x       y       z     vdW  Elec       q    Type
REMARK                         _______ _______ _______ _____ _____    ______ ____
ROOT
ATOM      7  C   UNL     1      19.345   7.655  21.694  0.00  0.00    +0.047 C 
ATOM      8  C   UNL     1      19.739   6.549  22.696  0.00  0.00    +0.039 C 
ATOM      9  C   UNL     1      21.268   6.595  22.791  0.00  0.00    +0.098 C 
ATOM     11  C   UNL     1      20.614   7.853  20.917  0.00  0.00    -0.021 C 
ATOM     12  C   UNL     1      21.660   7.277  21.521  0.00  0.00    -0.009 C 
ENDROOT
BRANCH   7  10
ATOM      4  N   UNL     1      16.177   7.269  19.897  0.00  0.00    -0.236 N 
ATOM      5  N   UNL     1      16.791   6.190  19.382  0.00  0.00    -0.171 NA
ATOM     10  C   UNL     1      18.139   7.300  20.855  0.00  0.00    +0.003 A 
ATOM     13  C   UNL     1      16.941   7.968  20.784  0.00  0.00    +0.046 A 
ATOM     14  C   UNL     1      17.990   6.214  19.971  0.00  0.00    +0.064 A 
ATOM     15  C   UNL     1      16.473   9.188  21.471  0.00  0.00    +0.066 C 
ATOM     16  C   UNL     1      18.974   5.164  19.654  0.00  0.00    +0.068 C 
BRANCH   4  18
ATOM      1  F   UNL     1      11.015   8.481  18.345  0.00  0.00    -0.205 F 
ATOM     18  C   UNL     1      14.874   7.575  19.505  0.00  0.00    +0.066 A 
ATOM     20  C   UNL     1      14.650   8.508  18.491  0.00  0.00    +0.030 A 
ATOM     21  C   UNL     1      13.793   6.948  20.125  0.00  0.00    +0.030 A 
ATOM     24  C   UNL     1      13.347   8.814  18.100  0.00  0.00    +0.040 A 
ATOM     25  C   UNL     1      12.490   7.253  19.733  0.00  0.00    +0.040 A 
ATOM     26  C   UNL     1      12.266   8.187  18.720  0.00  0.00    +0.124 A 
ENDBRANCH   4  18
ENDBRANCH   7  10
BRANCH   9   3
ATOM      2  O   UNL     1      21.551   5.720  25.526  0.00  0.00    -0.253 OA
ATOM      3  N   UNL     1      21.734   7.374  23.907  0.00  0.00    -0.293 N 
ATOM      6  N   UNL     1      22.315   7.836  26.090  0.00  0.00    -0.297 N 
ATOM     17  C   UNL     1      21.840   6.871  25.205  0.00  0.00    +0.300 C 
ATOM     27  H   UNL     1      21.953   8.357  23.762  0.00  0.00    +0.151 HD
ATOM     28  H   UNL     1      22.599   8.737  25.715  0.00  0.00    +0.150 HD
BRANCH   6  19
ATOM     19  C   UNL     1      22.519   7.577  27.495  0.00  0.00    +0.068 C 
ATOM     22  C   UNL     1      22.146   8.803  28.319  0.00  0.00    +0.027 C 
ATOM     23  C   UNL     1      23.958   7.153  27.758  0.00  0.00    +0.027 C 
ENDBRANCH   6  19
ENDBRANCH   9   3
TORSDOF 4
ENDMDL
MODEL 10
REMARK VINA RESULT:      -6.2      4.198      9.676
REMARK  Name = 25390041
REMARK  8 active torsions:
REMARK  status: ('A' for Active; 'I' for Inactive)
REMARK    1  A    between atoms: N_3  and  C_9
REMARK    2  A    between atoms: N_4  and  C_18
REMARK    3  A    between atoms: N_6  and  C_19
REMARK    4  A    between atoms: C_7  and  C_10
REMARK    5  A    between atoms: C_13  and  C_15
REMARK    6  A    between atoms: C_14  and  C_16
REMARK    7  A    between atoms: C_19  and  C_22
REMARK    8  A    between atoms: C_19  and  C_23
REMARK                            x       y       z     vdW  Elec       q    Type
REMARK                         _______ _______ _______ _____ _____    ______ ____
ROOT
ATOM      7  C   UNL     1      20.326   6.116  20.694  0.00  0.00    +0.047 C 
ATOM      8  C   UNL     1      21.062   5.920  22.036  0.00  0.00    +0.039 C 
ATOM      9  C   UNL     1      21.795   4.579  21.920  0.00  0.00    +0.098 C 
ATOM     11  C   UNL     1      20.235   4.712  20.169  0.00  0.00    -0.021 C 
ATOM     12  C   UNL     1      21.040   3.880  20.838  0.00  0.00    -0.009 C 
ENDROOT
BRANCH   7  10
ATOM      4  N   UNL     1      16.925   7.474  20.621  0.00  0.00    -0.236 N 
ATOM      5  N   UNL     1      17.402   8.275  21.589  0.00  0.00    -0.171 NA
ATOM     10  C   UNL     1      18.999   6.825  20.838  0.00  0.00    +0.003 A 
ATOM     13  C   UNL     1      17.841   6.586  20.138  0.00  0.00    +0.046 A 
ATOM     14  C   UNL     1      18.670   7.874  21.716  0.00  0.00    +0.064 A 
ATOM     15  C   UNL     1      17.538   5.608  19.075  0.00  0.00    +0.066 C 
ATOM     16  C   UNL     1      19.542   8.532  22.705  0.00  0.00    +0.068 C 
BRANCH   4  18
ATOM      1  F   UNL     1      11.674   7.989  18.983  0.00  0.00    -0.205 F 
ATOM     18  C   UNL     1      15.599   7.604  20.208  0.00  0.00    +0.066 A 
ATOM     20  C   UNL     1      15.267   8.514  19.203  0.00  0.00    +0.030 A 
ATOM     21  C   UNL     1      14.604   6.824  20.797  0.00  0.00    +0.030 A 
ATOM     24  C   UNL     1      13.942   8.644  18.789  0.00  0.00    +0.040 A 
ATOM     25  C   UNL     1      13.279   6.953  20.383  0.00  0.00    +0.040 A 
ATOM     26  C   UNL     1      12.947   7.864  19.379  0.00  0.00    +0.124 A 
ENDBRANCH   4  18
ENDBRANCH   7  10
BRANCH   9   3
ATOM      2  O   UNL     1      23.555   2.513  20.938  0.00  0.00    -0.253 OA
ATOM      3  N   UNL     1      23.168   4.727  21.517  0.00  0.00    -0.293 N 
ATOM      6  N   UNL     1      25.241   4.092  20.733  0.00  0.00    -0.297 N 
ATOM     17  C   UNL     1      23.952   3.670  21.052  0.00  0.00    +0.300 C 
ATOM     27  H   UNL     1      23.612   5.637  21.619  0.00  0.00    +0.151 HD
ATOM     28  H   UNL     1      25.451   5.085  20.788  0.00  0.00    +0.150 HD
BRANCH   6  19
ATOM     19  C   UNL     1      26.255   3.197  20.228  0.00  0.00    +0.068 C 
ATOM     22  C   UNL     1      27.466   3.194  21.152  0.00  0.00    +0.027 C 
ATOM     23  C   UNL     1      26.646   3.580  18.806  0.00  0.00    +0.027 C 
ENDBRANCH   6  19
ENDBRANCH   9   3
TORSDOF 4
ENDMDL
