MODEL 1
REMARK VINA RESULT:      -6.9      0.000      0.000
REMARK  Name = 45361636
REMARK  11 active torsions:
REMARK  status: ('A' for Active; 'I' for Inactive)
REMARK    1  A    between atoms: O_1  and  C_12
REMARK    2  A    between atoms: O_4  and  C_29
REMARK    3  A    between atoms: O_4  and  C_33
REMARK    4  A    between atoms: N_5  and  C_16
REMARK    5  A    between atoms: C_9  and  C_19
REMARK    6  A    between atoms: C_11  and  C_21
REMARK    7  A    between atoms: C_14  and  C_20
REMARK    8  A    between atoms: C_20  and  C_22
REMARK    9  A    between atoms: C_20  and  C_23
REMARK   10  A    between atoms: C_24  and  C_29
REMARK   11  A    between atoms: C_25  and  C_30
REMARK                            x       y       z     vdW  Elec       q    Type
REMARK                         _______ _______ _______ _____ _____    ______ ____
ROOT
ATOM      9  C   UNL     1      19.361   9.808  22.054  0.00  0.00    -0.027 C 
ATOM     10  C   UNL     1      18.541   8.536  21.655  0.00  0.00    +0.028 C 
ATOM     11  C   UNL     1      19.473   7.448  21.011  0.00  0.00    +0.012 C 
ATOM     12  C   UNL     1      17.281   8.915  20.823  0.00  0.00    +0.122 C 
ATOM     13  C   UNL     1      18.436  10.810  22.786  0.00  0.00    +0.007 C 
ATOM     14  C   UNL     1      16.415   9.993  21.514  0.00  0.00    +0.029 C 
ATOM     15  C   UNL     1      20.482   9.397  23.036  0.00  0.00    +0.009 C 
ATOM     16  C   UNL     1      20.639   7.098  21.978  0.00  0.00    +0.076 C 
ATOM     17  C   UNL     1      17.224  11.213  21.958  0.00  0.00    +0.007 C 
ATOM     18  C   UNL     1      21.404   8.324  22.476  0.00  0.00    +0.023 C 
ATOM     19  C   UNL     1      19.991  10.516  20.828  0.00  0.00    +0.011 C 
ATOM     21  C   UNL     1      18.735   6.157  20.621  0.00  0.00    +0.010 C 
ENDROOT
BRANCH  16   5
ATOM      3  O   UNL     1      21.648   4.665  23.119  0.00  0.00    -0.270 OA
ATOM      5  N   UNL     1      21.584   6.184  21.369  0.00  0.00    -0.308 N 
ATOM     25  C   UNL     1      22.011   5.031  22.004  0.00  0.00    +0.247 C 
ATOM     35  H   UNL     1      22.006   6.472  20.492  0.00  0.00    +0.149 HD
BRANCH  25  30
ATOM      7  N   UNL     1      24.871   4.066  19.749  0.00  0.00    -0.243 NA
ATOM      8  N   UNL     1      23.908   2.061  20.674  0.00  0.00    -0.243 NA
ATOM     30  C   UNL     1      23.002   4.213  21.258  0.00  0.00    +0.073 A 
ATOM     31  C   UNL     1      23.957   4.780  20.441  0.00  0.00    +0.127 A 
ATOM     32  C   UNL     1      23.024   2.835  21.337  0.00  0.00    +0.127 A 
ATOM     34  C   UNL     1      24.791   2.732  19.910  0.00  0.00    +0.221 A 
ENDBRANCH  25  30
ENDBRANCH  16   5
BRANCH  12   1
ATOM      1  O   UNL     1      16.450   7.764  20.665  0.00  0.00    -0.391 OA
ATOM     36  H   UNL     1      15.977   7.616  21.501  0.00  0.00    +0.210 HD
ENDBRANCH  12   1
BRANCH  14  20
ATOM     20  C   UNL     1      15.253  10.447  20.622  0.00  0.00    +0.078 C 
ATOM     23  C   UNL     1      14.766  11.829  21.016  0.00  0.00    +0.017 C 
BRANCH  20  22
ATOM      2  O   UNL     1      13.813   9.004  21.852  0.00  0.00    -0.275 OA
ATOM      6  N   UNL     1      13.512   9.092  19.559  0.00  0.00    -0.296 N 
ATOM     22  C   UNL     1      14.130   9.447  20.747  0.00  0.00    +0.219 C 
ATOM     24  C   UNL     1      12.471   8.065  19.488  0.00  0.00    +0.102 C 
ATOM     26  C   UNL     1      13.856   9.591  18.230  0.00  0.00    +0.108 C 
ATOM     27  C   UNL     1      12.415   7.706  18.000  0.00  0.00    +0.026 C 
ATOM     28  C   UNL     1      12.793   9.011  17.309  0.00  0.00    +0.021 C 
BRANCH  24  29
ATOM     29  C   UNL     1      11.133   8.588  20.006  0.00  0.00    +0.181 C 
BRANCH  29   4
ATOM      4  O   UNL     1      10.548   7.593  20.823  0.00  0.00    -0.381 OA
ATOM     33  C   UNL     1      10.562   7.961  22.198  0.00  0.00    +0.194 C 
ENDBRANCH  29   4
ENDBRANCH  24  29
ENDBRANCH  20  22
ENDBRANCH  14  20
TORSDOF 7
ENDMDL
MODEL 2
REMARK VINA RESULT:      -6.6     15.375     19.709
REMARK  Name = 45361636
REMARK  11 active torsions:
REMARK  status: ('A' for Active; 'I' for Inactive)
REMARK    1  A    between atoms: O_1  and  C_12
REMARK    2  A    between atoms: O_4  and  C_29
REMARK    3  A    between atoms: O_4  and  C_33
REMARK    4  A    between atoms: N_5  and  C_16
REMARK    5  A    between atoms: C_9  and  C_19
REMARK    6  A    between atoms: C_11  and  C_21
REMARK    7  A    between atoms: C_14  and  C_20
REMARK    8  A    between atoms: C_20  and  C_22
REMARK    9  A    between atoms: C_20  and  C_23
REMARK   10  A    between atoms: C_24  and  C_29
REMARK   11  A    between atoms: C_25  and  C_30
REMARK                            x       y       z     vdW  Elec       q    Type
REMARK                         _______ _______ _______ _____ _____    ______ ____
ROOT
ATOM      9  C   UNL     1       9.491   6.038   5.987  0.00  0.00    -0.027 C 
ATOM     10  C   UNL     1      10.440   7.196   5.530  0.00  0.00    +0.028 C 
ATOM     11  C   UNL     1       9.913   8.585   6.041  0.00  0.00    +0.012 C 
ATOM     12  C   UNL     1      10.737   7.113   4.005  0.00  0.00    +0.122 C 
ATOM     13  C   UNL     1      10.096   4.678   5.566  0.00  0.00    +0.007 C 
ATOM     14  C   UNL     1      11.245   5.717   3.573  0.00  0.00    +0.029 C 
ATOM     15  C   UNL     1       9.387   6.050   7.529  0.00  0.00    +0.009 C 
ATOM     16  C   UNL     1       9.741   8.560   7.586  0.00  0.00    +0.076 C 
ATOM     17  C   UNL     1      10.352   4.579   4.068  0.00  0.00    +0.007 C 
ATOM     18  C   UNL     1       8.906   7.382   8.086  0.00  0.00    +0.023 C 
ATOM     19  C   UNL     1       8.070   6.160   5.379  0.00  0.00    +0.011 C 
ATOM     21  C   UNL     1      10.816   9.767   5.651  0.00  0.00    +0.010 C 
ENDROOT
BRANCH  16   5
ATOM      3  O   UNL     1      11.032  10.574   9.174  0.00  0.00    -0.270 OA
ATOM      5  N   UNL     1       9.147   9.786   8.078  0.00  0.00    -0.308 N 
ATOM     25  C   UNL     1       9.856  10.697   8.841  0.00  0.00    +0.247 C 
ATOM     35  H   UNL     1       8.150   9.909   7.929  0.00  0.00    +0.149 HD
BRANCH  25  30
ATOM      7  N   UNL     1       7.908  13.079  11.015  0.00  0.00    -0.243 NA
ATOM      8  N   UNL     1       8.153  14.057   8.828  0.00  0.00    -0.243 NA
ATOM     30  C   UNL     1       9.097  11.892   9.291  0.00  0.00    +0.073 A 
ATOM     31  C   UNL     1       8.602  12.008  10.574  0.00  0.00    +0.127 A 
ATOM     32  C   UNL     1       8.839  12.958   8.453  0.00  0.00    +0.127 A 
ATOM     34  C   UNL     1       7.724  14.052  10.104  0.00  0.00    +0.221 A 
ENDBRANCH  25  30
ENDBRANCH  16   5
BRANCH  12   1
ATOM      1  O   UNL     1      11.766   8.043   3.668  0.00  0.00    -0.391 OA
ATOM     36  H   UNL     1      12.056   8.483   4.486  0.00  0.00    +0.210 HD
ENDBRANCH  12   1
BRANCH  14  20
ATOM     20  C   UNL     1      11.406   5.617   2.052  0.00  0.00    +0.078 C 
ATOM     23  C   UNL     1      10.282   4.805   1.433  0.00  0.00    +0.017 C 
BRANCH  20  22
ATOM      2  O   UNL     1      12.911   3.773   1.971  0.00  0.00    -0.275 OA
ATOM      6  N   UNL     1      13.700   5.814   1.218  0.00  0.00    -0.296 N 
ATOM     22  C   UNL     1      12.736   4.972   1.750  0.00  0.00    +0.219 C 
ATOM     24  C   UNL     1      15.073   5.376   0.957  0.00  0.00    +0.102 C 
ATOM     26  C   UNL     1      13.537   7.238   0.939  0.00  0.00    +0.108 C 
ATOM     27  C   UNL     1      15.852   6.686   0.815  0.00  0.00    +0.026 C 
ATOM     28  C   UNL     1      14.821   7.648   0.235  0.00  0.00    +0.021 C 
BRANCH  24  29
ATOM     29  C   UNL     1      15.155   4.516  -0.303  0.00  0.00    +0.181 C 
BRANCH  29   4
ATOM      4  O   UNL     1      16.459   3.977  -0.393  0.00  0.00    -0.381 OA
ATOM     33  C   UNL     1      17.119   4.388  -1.586  0.00  0.00    +0.194 C 
ENDBRANCH  29   4
ENDBRANCH  24  29
ENDBRANCH  20  22
ENDBRANCH  14  20
TORSDOF 7
ENDMDL
MODEL 3
REMARK VINA RESULT:      -6.5     14.873     19.732
REMARK  Name = 45361636
REMARK  11 active torsions:
REMARK  status: ('A' for Active; 'I' for Inactive)
REMARK    1  A    between atoms: O_1  and  C_12
REMARK    2  A    between atoms: O_4  and  C_29
REMARK    3  A    between atoms: O_4  and  C_33
REMARK    4  A    between atoms: N_5  and  C_16
REMARK    5  A    between atoms: C_9  and  C_19
REMARK    6  A    between atoms: C_11  and  C_21
REMARK    7  A    between atoms: C_14  and  C_20
REMARK    8  A    between atoms: C_20  and  C_22
REMARK    9  A    between atoms: C_20  and  C_23
REMARK   10  A    between atoms: C_24  and  C_29
REMARK   11  A    between atoms: C_25  and  C_30
REMARK                            x       y       z     vdW  Elec       q    Type
REMARK                         _______ _______ _______ _____ _____    ______ ____
ROOT
ATOM      9  C   UNL     1       9.548   6.324   5.786  0.00  0.00    -0.027 C 
ATOM     10  C   UNL     1      10.360   7.598   5.377  0.00  0.00    +0.028 C 
ATOM     11  C   UNL     1       9.805   8.873   6.106  0.00  0.00    +0.012 C 
ATOM     12  C   UNL     1      10.486   7.713   3.830  0.00  0.00    +0.122 C 
ATOM     13  C   UNL     1      10.189   5.073   5.141  0.00  0.00    +0.007 C 
ATOM     14  C   UNL     1      11.032   6.420   3.180  0.00  0.00    +0.029 C 
ATOM     15  C   UNL     1       9.620   6.152   7.321  0.00  0.00    +0.009 C 
ATOM     16  C   UNL     1       9.813   8.659   7.646  0.00  0.00    +0.076 C 
ATOM     17  C   UNL     1      10.278   5.166   3.624  0.00  0.00    +0.007 C 
ATOM     18  C   UNL     1       9.119   7.370   8.083  0.00  0.00    +0.023 C 
ATOM     19  C   UNL     1       8.062   6.402   5.351  0.00  0.00    +0.011 C 
ATOM     21  C   UNL     1      10.578  10.160   5.770  0.00  0.00    +0.010 C 
ENDROOT
BRANCH  16   5
ATOM      3  O   UNL     1      11.162  10.670   9.189  0.00  0.00    -0.270 OA
ATOM      5  N   UNL     1       9.199   9.770   8.344  0.00  0.00    -0.308 N 
ATOM     25  C   UNL     1       9.940  10.690   9.065  0.00  0.00    +0.247 C 
ATOM     35  H   UNL     1       8.185   9.795   8.372  0.00  0.00    +0.149 HD
BRANCH  25  30
ATOM      7  N   UNL     1       8.348  12.774  11.770  0.00  0.00    -0.243 NA
ATOM      8  N   UNL     1       7.783  13.727   9.631  0.00  0.00    -0.243 NA
ATOM     30  C   UNL     1       9.161  11.756   9.746  0.00  0.00    +0.073 A 
ATOM     31  C   UNL     1       9.048  11.821  11.119  0.00  0.00    +0.127 A 
ATOM     32  C   UNL     1       8.500  12.745   9.045  0.00  0.00    +0.127 A 
ATOM     34  C   UNL     1       7.750  13.682  10.976  0.00  0.00    +0.221 A 
ENDBRANCH  25  30
ENDBRANCH  16   5
BRANCH  12   1
ATOM      1  O   UNL     1      11.407   8.754   3.503  0.00  0.00    -0.391 OA
ATOM     36  H   UNL     1      10.898   9.524   3.199  0.00  0.00    +0.210 HD
ENDBRANCH  12   1
BRANCH  14  20
ATOM     20  C   UNL     1      11.025   6.507   1.649  0.00  0.00    +0.078 C 
ATOM     23  C   UNL     1       9.655   6.905   1.129  0.00  0.00    +0.017 C 
BRANCH  20  22
ATOM      2  O   UNL     1      10.564   4.401   0.637  0.00  0.00    -0.275 OA
ATOM      6  N   UNL     1      12.776   4.880   1.120  0.00  0.00    -0.296 N 
ATOM     22  C   UNL     1      11.420   5.163   1.088  0.00  0.00    +0.219 C 
ATOM     24  C   UNL     1      13.321   3.585   0.706  0.00  0.00    +0.102 C 
ATOM     26  C   UNL     1      13.824   5.752   1.644  0.00  0.00    +0.108 C 
ATOM     27  C   UNL     1      14.727   3.571   1.312  0.00  0.00    +0.026 C 
ATOM     28  C   UNL     1      15.126   5.042   1.307  0.00  0.00    +0.021 C 
BRANCH  24  29
ATOM     29  C   UNL     1      13.347   3.451  -0.815  0.00  0.00    +0.181 C 
BRANCH  29   4
ATOM      4  O   UNL     1      12.473   2.402  -1.188  0.00  0.00    -0.381 OA
ATOM     33  C   UNL     1      11.676   2.754  -2.314  0.00  0.00    +0.194 C 
ENDBRANCH  29   4
ENDBRANCH  24  29
ENDBRANCH  20  22
ENDBRANCH  14  20
TORSDOF 7
ENDMDL
MODEL 4
REMARK VINA RESULT:      -6.2     29.243     32.392
REMARK  Name = 45361636
REMARK  11 active torsions:
REMARK  status: ('A' for Active; 'I' for Inactive)
REMARK    1  A    between atoms: O_1  and  C_12
REMARK    2  A    between atoms: O_4  and  C_29
REMARK    3  A    between atoms: O_4  and  C_33
REMARK    4  A    between atoms: N_5  and  C_16
REMARK    5  A    between atoms: C_9  and  C_19
REMARK    6  A    between atoms: C_11  and  C_21
REMARK    7  A    between atoms: C_14  and  C_20
REMARK    8  A    between atoms: C_20  and  C_22
REMARK    9  A    between atoms: C_20  and  C_23
REMARK   10  A    between atoms: C_24  and  C_29
REMARK   11  A    between atoms: C_25  and  C_30
REMARK                            x       y       z     vdW  Elec       q    Type
REMARK                         _______ _______ _______ _____ _____    ______ ____
ROOT
ATOM      9  C   UNL     1      -3.663 -11.246  11.148  0.00  0.00    -0.027 C 
ATOM     10  C   UNL     1      -5.123 -10.914  11.605  0.00  0.00    +0.028 C 
ATOM     11  C   UNL     1      -5.856 -10.027  10.536  0.00  0.00    +0.012 C 
ATOM     12  C   UNL     1      -5.147 -10.362  13.061  0.00  0.00    +0.122 C 
ATOM     13  C   UNL     1      -3.011 -12.210  12.167  0.00  0.00    +0.007 C 
ATOM     14  C   UNL     1      -4.402 -11.282  14.057  0.00  0.00    +0.029 C 
ATOM     15  C   UNL     1      -3.715 -11.967   9.782  0.00  0.00    +0.009 C 
ATOM     16  C   UNL     1      -5.836 -10.729   9.149  0.00  0.00    +0.076 C 
ATOM     17  C   UNL     1      -2.997 -11.657  13.585  0.00  0.00    +0.007 C 
ATOM     18  C   UNL     1      -4.439 -11.166   8.710  0.00  0.00    +0.023 C 
ATOM     19  C   UNL     1      -2.778  -9.979  11.024  0.00  0.00    +0.011 C 
ATOM     21  C   UNL     1      -7.309  -9.687  10.909  0.00  0.00    +0.010 C 
ENDROOT
BRANCH  16   5
ATOM      3  O   UNL     1      -7.582 -11.560   7.027  0.00  0.00    -0.270 OA
ATOM      5  N   UNL     1      -6.401  -9.888   8.114  0.00  0.00    -0.308 N 
ATOM     25  C   UNL     1      -7.236 -10.386   7.130  0.00  0.00    +0.247 C 
ATOM     35  H   UNL     1      -6.079  -8.926   8.074  0.00  0.00    +0.149 HD
BRANCH  25  30
ATOM      7  N   UNL     1      -8.908  -7.382   5.590  0.00  0.00    -0.243 NA
ATOM      8  N   UNL     1      -7.850  -8.656   3.841  0.00  0.00    -0.243 NA
ATOM     30  C   UNL     1      -7.711  -9.400   6.126  0.00  0.00    +0.073 A 
ATOM     31  C   UNL     1      -8.460  -8.296   6.477  0.00  0.00    +0.127 A 
ATOM     32  C   UNL     1      -7.434  -9.531   4.780  0.00  0.00    +0.127 A 
ATOM     34  C   UNL     1      -8.571  -7.620   4.309  0.00  0.00    +0.221 A 
ENDBRANCH  25  30
ENDBRANCH  16   5
BRANCH  12   1
ATOM      1  O   UNL     1      -6.497 -10.277  13.517  0.00  0.00    -0.391 OA
ATOM     36  H   UNL     1      -7.036 -10.884  12.981  0.00  0.00    +0.210 HD
ENDBRANCH  12   1
BRANCH  14  20
ATOM     20  C   UNL     1      -4.324 -10.659  15.456  0.00  0.00    +0.078 C 
ATOM     23  C   UNL     1      -2.890 -10.607  15.953  0.00  0.00    +0.017 C 
BRANCH  20  22
ATOM      2  O   UNL     1      -4.843 -12.636  16.678  0.00  0.00    -0.275 OA
ATOM      6  N   UNL     1      -6.292 -10.845  16.900  0.00  0.00    -0.296 N 
ATOM     22  C   UNL     1      -5.169 -11.481  16.397  0.00  0.00    +0.219 C 
ATOM     24  C   UNL     1      -7.272 -11.527  17.749  0.00  0.00    +0.102 C 
ATOM     26  C   UNL     1      -6.715  -9.481  16.595  0.00  0.00    +0.108 C 
ATOM     27  C   UNL     1      -8.503 -10.619  17.686  0.00  0.00    +0.026 C 
ATOM     28  C   UNL     1      -7.905  -9.228  17.508  0.00  0.00    +0.021 C 
BRANCH  24  29
ATOM     29  C   UNL     1      -6.752 -11.697  19.175  0.00  0.00    +0.181 C 
BRANCH  29   4
ATOM      4  O   UNL     1      -7.860 -11.845  20.041  0.00  0.00    -0.381 OA
ATOM     33  C   UNL     1      -8.323 -13.191  20.083  0.00  0.00    +0.194 C 
ENDBRANCH  29   4
ENDBRANCH  24  29
ENDBRANCH  20  22
ENDBRANCH  14  20
TORSDOF 7
ENDMDL
MODEL 5
REMARK VINA RESULT:      -6.2     29.270     32.528
REMARK  Name = 45361636
REMARK  11 active torsions:
REMARK  status: ('A' for Active; 'I' for Inactive)
REMARK    1  A    between atoms: O_1  and  C_12
REMARK    2  A    between atoms: O_4  and  C_29
REMARK    3  A    between atoms: O_4  and  C_33
REMARK    4  A    between atoms: N_5  and  C_16
REMARK    5  A    between atoms: C_9  and  C_19
REMARK    6  A    between atoms: C_11  and  C_21
REMARK    7  A    between atoms: C_14  and  C_20
REMARK    8  A    between atoms: C_20  and  C_22
REMARK    9  A    between atoms: C_20  and  C_23
REMARK   10  A    between atoms: C_24  and  C_29
REMARK   11  A    between atoms: C_25  and  C_30
REMARK                            x       y       z     vdW  Elec       q    Type
REMARK                         _______ _______ _______ _____ _____    ______ ____
ROOT
ATOM      9  C   UNL     1      -5.160 -11.076  17.944  0.00  0.00    -0.027 C 
ATOM     10  C   UNL     1      -6.053 -11.992  17.043  0.00  0.00    +0.028 C 
ATOM     11  C   UNL     1      -6.762 -13.101  17.901  0.00  0.00    +0.012 C 
ATOM     12  C   UNL     1      -5.263 -12.508  15.805  0.00  0.00    +0.122 C 
ATOM     13  C   UNL     1      -4.568  -9.931  17.089  0.00  0.00    +0.007 C 
ATOM     14  C   UNL     1      -4.588 -11.364  15.013  0.00  0.00    +0.029 C 
ATOM     15  C   UNL     1      -6.040 -10.438  19.043  0.00  0.00    +0.009 C 
ATOM     16  C   UNL     1      -7.584 -12.450  19.049  0.00  0.00    +0.076 C 
ATOM     17  C   UNL     1      -3.761 -10.432  15.899  0.00  0.00    +0.007 C 
ATOM     18  C   UNL     1      -6.775 -11.465  19.892  0.00  0.00    +0.023 C 
ATOM     19  C   UNL     1      -3.995 -11.853  18.610  0.00  0.00    +0.011 C 
ATOM     21  C   UNL     1      -7.681 -14.021  17.080  0.00  0.00    +0.010 C 
ENDROOT
BRANCH  16   5
ATOM      3  O   UNL     1     -10.189 -12.379  20.253  0.00  0.00    -0.270 OA
ATOM      5  N   UNL     1      -8.157 -13.446  19.929  0.00  0.00    -0.308 N 
ATOM     25  C   UNL     1      -9.428 -13.320  20.462  0.00  0.00    +0.247 C 
ATOM     35  H   UNL     1      -7.549 -14.202  20.229  0.00  0.00    +0.149 HD
BRANCH  25  30
ATOM      7  N   UNL     1     -11.617 -15.705  22.388  0.00  0.00    -0.243 NA
ATOM      8  N   UNL     1      -9.314 -16.191  22.899  0.00  0.00    -0.243 NA
ATOM     30  C   UNL     1      -9.860 -14.414  21.369  0.00  0.00    +0.073 A 
ATOM     31  C   UNL     1     -11.190 -14.719  21.571  0.00  0.00    +0.127 A 
ATOM     32  C   UNL     1      -8.956 -15.190  22.066  0.00  0.00    +0.127 A 
ATOM     34  C   UNL     1     -10.640 -16.391  23.011  0.00  0.00    +0.221 A 
ENDBRANCH  25  30
ENDBRANCH  16   5
BRANCH  12   1
ATOM      1  O   UNL     1      -6.161 -13.154  14.902  0.00  0.00    -0.391 OA
ATOM     36  H   UNL     1      -7.028 -12.720  14.974  0.00  0.00    +0.210 HD
ENDBRANCH  12   1
BRANCH  14  20
ATOM     20  C   UNL     1      -3.709 -11.902  13.876  0.00  0.00    +0.078 C 
ATOM     23  C   UNL     1      -2.392 -12.437  14.408  0.00  0.00    +0.017 C 
BRANCH  20  22
ATOM      2  O   UNL     1      -2.330 -10.296  12.787  0.00  0.00    -0.275 OA
ATOM      6  N   UNL     1      -4.554 -10.383  12.152  0.00  0.00    -0.296 N 
ATOM     22  C   UNL     1      -3.455 -10.786  12.894  0.00  0.00    +0.219 C 
ATOM     24  C   UNL     1      -4.507  -9.251  11.224  0.00  0.00    +0.102 C 
ATOM     26  C   UNL     1      -5.903 -10.934  12.246  0.00  0.00    +0.108 C 
ATOM     27  C   UNL     1      -5.981  -8.909  10.992  0.00  0.00    +0.026 C 
ATOM     28  C   UNL     1      -6.680 -10.257  11.128  0.00  0.00    +0.021 C 
BRANCH  24  29
ATOM     29  C   UNL     1      -3.789  -9.620   9.928  0.00  0.00    +0.181 C 
BRANCH  29   4
ATOM      4  O   UNL     1      -4.458  -8.994   8.850  0.00  0.00    -0.381 OA
ATOM     33  C   UNL     1      -4.834  -9.930   7.845  0.00  0.00    +0.194 C 
ENDBRANCH  29   4
ENDBRANCH  24  29
ENDBRANCH  20  22
ENDBRANCH  14  20
TORSDOF 7
ENDMDL
MODEL 6
REMARK VINA RESULT:      -6.1     23.609     25.939
REMARK  Name = 45361636
REMARK  11 active torsions:
REMARK  status: ('A' for Active; 'I' for Inactive)
REMARK    1  A    between atoms: O_1  and  C_12
REMARK    2  A    between atoms: O_4  and  C_29
REMARK    3  A    between atoms: O_4  and  C_33
REMARK    4  A    between atoms: N_5  and  C_16
REMARK    5  A    between atoms: C_9  and  C_19
REMARK    6  A    between atoms: C_11  and  C_21
REMARK    7  A    between atoms: C_14  and  C_20
REMARK    8  A    between atoms: C_20  and  C_22
REMARK    9  A    between atoms: C_20  and  C_23
REMARK   10  A    between atoms: C_24  and  C_29
REMARK   11  A    between atoms: C_25  and  C_30
REMARK                            x       y       z     vdW  Elec       q    Type
REMARK                         _______ _______ _______ _____ _____    ______ ____
ROOT
ATOM      9  C   UNL     1      21.425  -5.976   0.941  0.00  0.00    -0.027 C 
ATOM     10  C   UNL     1      20.394  -7.154   0.933  0.00  0.00    +0.028 C 
ATOM     11  C   UNL     1      20.972  -8.408   1.682  0.00  0.00    +0.012 C 
ATOM     12  C   UNL     1      19.856  -7.422  -0.503  0.00  0.00    +0.122 C 
ATOM     13  C   UNL     1      20.783  -4.725   0.297  0.00  0.00    +0.007 C 
ATOM     14  C   UNL     1      19.309  -6.144  -1.180  0.00  0.00    +0.029 C 
ATOM     15  C   UNL     1      21.777  -5.625   2.405  0.00  0.00    +0.009 C 
ATOM     16  C   UNL     1      21.392  -8.025   3.129  0.00  0.00    +0.076 C 
ATOM     17  C   UNL     1      20.290  -4.973  -1.122  0.00  0.00    +0.007 C 
ATOM     18  C   UNL     1      22.318  -6.811   3.191  0.00  0.00    +0.023 C 
ATOM     19  C   UNL     1      22.726  -6.321   0.172  0.00  0.00    +0.011 C 
ATOM     21  C   UNL     1      19.997  -9.596   1.737  0.00  0.00    +0.010 C 
ENDROOT
BRANCH  16   5
ATOM      3  O   UNL     1      21.759  -8.312   5.962  0.00  0.00    -0.270 OA
ATOM      5  N   UNL     1      22.036  -9.129   3.810  0.00  0.00    -0.308 N 
ATOM     25  C   UNL     1      22.165  -9.175   5.187  0.00  0.00    +0.247 C 
ATOM     35  H   UNL     1      22.488  -9.829   3.230  0.00  0.00    +0.149 HD
BRANCH  25  30
ATOM      7  N   UNL     1      22.816 -12.502   6.830  0.00  0.00    -0.243 NA
ATOM      8  N   UNL     1      24.924 -11.547   6.161  0.00  0.00    -0.243 NA
ATOM     30  C   UNL     1      22.874 -10.361   5.731  0.00  0.00    +0.073 A 
ATOM     31  C   UNL     1      22.203 -11.410   6.325  0.00  0.00    +0.127 A 
ATOM     32  C   UNL     1      24.248 -10.485   5.676  0.00  0.00    +0.127 A 
ATOM     34  C   UNL     1      24.157 -12.505   6.715  0.00  0.00    +0.221 A 
ENDBRANCH  25  30
ENDBRANCH  16   5
BRANCH  12   1
ATOM      1  O   UNL     1      18.769  -8.346  -0.439  0.00  0.00    -0.391 OA
ATOM     36  H   UNL     1      18.935  -8.960   0.297  0.00  0.00    +0.210 HD
ENDBRANCH  12   1
BRANCH  14  20
ATOM     20  C   UNL     1      18.905  -6.402  -2.637  0.00  0.00    +0.078 C 
ATOM     23  C   UNL     1      19.873  -5.737  -3.600  0.00  0.00    +0.017 C 
BRANCH  20  22
ATOM      2  O   UNL     1      17.267  -4.674  -2.664  0.00  0.00    -0.275 OA
ATOM      6  N   UNL     1      16.573  -6.797  -3.269  0.00  0.00    -0.296 N 
ATOM     22  C   UNL     1      17.511  -5.866  -2.852  0.00  0.00    +0.219 C 
ATOM     24  C   UNL     1      15.155  -6.469  -3.432  0.00  0.00    +0.102 C 
ATOM     26  C   UNL     1      16.818  -8.217  -3.504  0.00  0.00    +0.108 C 
ATOM     27  C   UNL     1      14.466  -7.835  -3.458  0.00  0.00    +0.026 C 
ATOM     28  C   UNL     1      15.515  -8.747  -4.083  0.00  0.00    +0.021 C 
BRANCH  24  29
ATOM     29  C   UNL     1      14.910  -5.674  -4.713  0.00  0.00    +0.181 C 
BRANCH  29   4
ATOM      4  O   UNL     1      13.519  -5.443  -4.839  0.00  0.00    -0.381 OA
ATOM     33  C   UNL     1      13.139  -5.232  -6.195  0.00  0.00    +0.194 C 
ENDBRANCH  29   4
ENDBRANCH  24  29
ENDBRANCH  20  22
ENDBRANCH  14  20
TORSDOF 7
ENDMDL
MODEL 7
REMARK VINA RESULT:      -5.9     29.040     33.993
REMARK  Name = 45361636
REMARK  11 active torsions:
REMARK  status: ('A' for Active; 'I' for Inactive)
REMARK    1  A    between atoms: O_1  and  C_12
REMARK    2  A    between atoms: O_4  and  C_29
REMARK    3  A    between atoms: O_4  and  C_33
REMARK    4  A    between atoms: N_5  and  C_16
REMARK    5  A    between atoms: C_9  and  C_19
REMARK    6  A    between atoms: C_11  and  C_21
REMARK    7  A    between atoms: C_14  and  C_20
REMARK    8  A    between atoms: C_20  and  C_22
REMARK    9  A    between atoms: C_20  and  C_23
REMARK   10  A    between atoms: C_24  and  C_29
REMARK   11  A    between atoms: C_25  and  C_30
REMARK                            x       y       z     vdW  Elec       q    Type
REMARK                         _______ _______ _______ _____ _____    ______ ____
ROOT
ATOM      9  C   UNL     1     -10.194  -9.937  17.772  0.00  0.00    -0.027 C 
ATOM     10  C   UNL     1      -9.450 -11.022  18.620  0.00  0.00    +0.028 C 
ATOM     11  C   UNL     1      -8.170 -11.538  17.870  0.00  0.00    +0.012 C 
ATOM     12  C   UNL     1     -10.431 -12.128  19.107  0.00  0.00    +0.122 C 
ATOM     13  C   UNL     1     -11.382  -9.371  18.586  0.00  0.00    +0.007 C 
ATOM     14  C   UNL     1     -11.669 -11.548  19.830  0.00  0.00    +0.029 C 
ATOM     15  C   UNL     1      -9.223  -8.770  17.482  0.00  0.00    +0.009 C 
ATOM     16  C   UNL     1      -7.236 -10.346  17.518  0.00  0.00    +0.076 C 
ATOM     17  C   UNL     1     -12.365 -10.446  19.030  0.00  0.00    +0.007 C 
ATOM     18  C   UNL     1      -7.948  -9.214  16.778  0.00  0.00    +0.023 C 
ATOM     19  C   UNL     1     -10.732 -10.499  16.431  0.00  0.00    +0.011 C 
ATOM     21  C   UNL     1      -7.373 -12.588  18.662  0.00  0.00    +0.010 C 
ENDROOT
BRANCH  16   5
ATOM      3  O   UNL     1      -4.527 -10.646  18.420  0.00  0.00    -0.270 OA
ATOM      5  N   UNL     1      -6.102 -10.771  16.723  0.00  0.00    -0.308 N 
ATOM     25  C   UNL     1      -4.829 -10.884  17.253  0.00  0.00    +0.247 C 
ATOM     35  H   UNL     1      -6.254 -10.887  15.726  0.00  0.00    +0.149 HD
BRANCH  25  30
ATOM      7  N   UNL     1      -1.530 -11.088  15.445  0.00  0.00    -0.243 NA
ATOM      8  N   UNL     1      -3.034 -12.708  14.488  0.00  0.00    -0.243 NA
ATOM     30  C   UNL     1      -3.768 -11.306  16.302  0.00  0.00    +0.073 A 
ATOM     31  C   UNL     1      -2.515 -10.729  16.295  0.00  0.00    +0.127 A 
ATOM     32  C   UNL     1      -3.974 -12.300  15.367  0.00  0.00    +0.127 A 
ATOM     34  C   UNL     1      -1.853 -12.069  14.582  0.00  0.00    +0.221 A 
ENDBRANCH  25  30
ENDBRANCH  16   5
BRANCH  12   1
ATOM      1  O   UNL     1      -9.768 -12.973  20.048  0.00  0.00    -0.391 OA
ATOM     36  H   UNL     1      -9.826 -12.554  20.924  0.00  0.00    +0.210 HD
ENDBRANCH  12   1
BRANCH  14  20
ATOM     20  C   UNL     1     -12.684 -12.641  20.185  0.00  0.00    +0.078 C 
ATOM     23  C   UNL     1     -13.948 -12.506  19.355  0.00  0.00    +0.017 C 
BRANCH  20  22
ATOM      2  O   UNL     1     -13.610 -11.546  22.085  0.00  0.00    -0.275 OA
ATOM      6  N   UNL     1     -12.612 -13.604  22.434  0.00  0.00    -0.296 N 
ATOM     22  C   UNL     1     -13.015 -12.534  21.653  0.00  0.00    +0.219 C 
ATOM     24  C   UNL     1     -12.767 -13.620  23.891  0.00  0.00    +0.102 C 
ATOM     26  C   UNL     1     -11.906 -14.793  21.965  0.00  0.00    +0.108 C 
ATOM     27  C   UNL     1     -11.819 -14.733  24.346  0.00  0.00    +0.026 C 
ATOM     28  C   UNL     1     -11.837 -15.710  23.177  0.00  0.00    +0.021 C 
BRANCH  24  29
ATOM     29  C   UNL     1     -14.214 -13.892  24.295  0.00  0.00    +0.181 C 
BRANCH  29   4
ATOM      4  O   UNL     1     -14.227 -14.345  25.636  0.00  0.00    -0.381 OA
ATOM     33  C   UNL     1     -15.189 -15.376  25.835  0.00  0.00    +0.194 C 
ENDBRANCH  29   4
ENDBRANCH  24  29
ENDBRANCH  20  22
ENDBRANCH  14  20
TORSDOF 7
ENDMDL
MODEL 8
REMARK VINA RESULT:      -5.9     29.473     32.748
REMARK  Name = 45361636
REMARK  11 active torsions:
REMARK  status: ('A' for Active; 'I' for Inactive)
REMARK    1  A    between atoms: O_1  and  C_12
REMARK    2  A    between atoms: O_4  and  C_29
REMARK    3  A    between atoms: O_4  and  C_33
REMARK    4  A    between atoms: N_5  and  C_16
REMARK    5  A    between atoms: C_9  and  C_19
REMARK    6  A    between atoms: C_11  and  C_21
REMARK    7  A    between atoms: C_14  and  C_20
REMARK    8  A    between atoms: C_20  and  C_22
REMARK    9  A    between atoms: C_20  and  C_23
REMARK   10  A    between atoms: C_24  and  C_29
REMARK   11  A    between atoms: C_25  and  C_30
REMARK                            x       y       z     vdW  Elec       q    Type
REMARK                         _______ _______ _______ _____ _____    ______ ____
ROOT
ATOM      9  C   UNL     1      -5.141 -11.181  17.730  0.00  0.00    -0.027 C 
ATOM     10  C   UNL     1      -6.341 -11.191  16.724  0.00  0.00    +0.028 C 
ATOM     11  C   UNL     1      -7.559 -11.987  17.316  0.00  0.00    +0.012 C 
ATOM     12  C   UNL     1      -5.882 -11.630  15.303  0.00  0.00    +0.122 C 
ATOM     13  C   UNL     1      -4.003 -10.298  17.166  0.00  0.00    +0.007 C 
ATOM     14  C   UNL     1      -4.677 -10.809  14.788  0.00  0.00    +0.029 C 
ATOM     15  C   UNL     1      -5.607 -10.555  19.064  0.00  0.00    +0.009 C 
ATOM     16  C   UNL     1      -7.971 -11.395  18.693  0.00  0.00    +0.076 C 
ATOM     17  C   UNL     1      -3.525 -10.748  15.792  0.00  0.00    +0.007 C 
ATOM     18  C   UNL     1      -6.805 -11.270  19.673  0.00  0.00    +0.023 C 
ATOM     19  C   UNL     1      -4.581 -12.601  18.000  0.00  0.00    +0.011 C 
ATOM     21  C   UNL     1      -8.786 -12.012  16.389  0.00  0.00    +0.010 C 
ENDROOT
BRANCH  16   5
ATOM      3  O   UNL     1     -10.259 -10.382  20.099  0.00  0.00    -0.270 OA
ATOM      5  N   UNL     1      -9.016 -12.177  19.321  0.00  0.00    -0.308 N 
ATOM     25  C   UNL     1     -10.083 -11.591  19.979  0.00  0.00    +0.247 C 
ATOM     35  H   UNL     1      -8.886 -13.183  19.351  0.00  0.00    +0.149 HD
BRANCH  25  30
ATOM      7  N   UNL     1     -13.277 -13.000  21.397  0.00  0.00    -0.243 NA
ATOM      8  N   UNL     1     -11.568 -14.693  21.517  0.00  0.00    -0.243 NA
ATOM     30  C   UNL     1     -11.057 -12.530  20.593  0.00  0.00    +0.073 A 
ATOM     31  C   UNL     1     -12.367 -12.173  20.840  0.00  0.00    +0.127 A 
ATOM     32  C   UNL     1     -10.710 -13.815  20.957  0.00  0.00    +0.127 A 
ATOM     34  C   UNL     1     -12.817 -14.227  21.706  0.00  0.00    +0.221 A 
ENDBRANCH  25  30
ENDBRANCH  16   5
BRANCH  12   1
ATOM      1  O   UNL     1      -6.945 -11.420  14.373  0.00  0.00    -0.391 OA
ATOM     36  H   UNL     1      -7.340 -12.283  14.165  0.00  0.00    +0.210 HD
ENDBRANCH  12   1
BRANCH  14  20
ATOM     20  C   UNL     1      -4.158 -11.342  13.447  0.00  0.00    +0.078 C 
ATOM     23  C   UNL     1      -2.644 -11.264  13.374  0.00  0.00    +0.017 C 
BRANCH  20  22
ATOM      2  O   UNL     1      -5.309  -9.446  12.580  0.00  0.00    -0.275 OA
ATOM      6  N   UNL     1      -4.677 -11.080  11.069  0.00  0.00    -0.296 N 
ATOM     22  C   UNL     1      -4.772 -10.527  12.335  0.00  0.00    +0.219 C 
ATOM     24  C   UNL     1      -5.302 -10.471   9.893  0.00  0.00    +0.102 C 
ATOM     26  C   UNL     1      -4.052 -12.356  10.733  0.00  0.00    +0.108 C 
ATOM     27  C   UNL     1      -5.322 -11.603   8.863  0.00  0.00    +0.026 C 
ATOM     28  C   UNL     1      -4.084 -12.419   9.214  0.00  0.00    +0.021 C 
BRANCH  24  29
ATOM     29  C   UNL     1      -4.511  -9.259   9.404  0.00  0.00    +0.181 C 
BRANCH  29   4
ATOM      4  O   UNL     1      -5.322  -8.108   9.542  0.00  0.00    -0.381 OA
ATOM     33  C   UNL     1      -6.708  -8.432   9.514  0.00  0.00    +0.194 C 
ENDBRANCH  29   4
ENDBRANCH  24  29
ENDBRANCH  20  22
ENDBRANCH  14  20
TORSDOF 7
ENDMDL
MODEL 9
REMARK VINA RESULT:      -5.8     28.317     34.449
REMARK  Name = 45361636
REMARK  11 active torsions:
REMARK  status: ('A' for Active; 'I' for Inactive)
REMARK    1  A    between atoms: O_1  and  C_12
REMARK    2  A    between atoms: O_4  and  C_29
REMARK    3  A    between atoms: O_4  and  C_33
REMARK    4  A    between atoms: N_5  and  C_16
REMARK    5  A    between atoms: C_9  and  C_19
REMARK    6  A    between atoms: C_11  and  C_21
REMARK    7  A    between atoms: C_14  and  C_20
REMARK    8  A    between atoms: C_20  and  C_22
REMARK    9  A    between atoms: C_20  and  C_23
REMARK   10  A    between atoms: C_24  and  C_29
REMARK   11  A    between atoms: C_25  and  C_30
REMARK                            x       y       z     vdW  Elec       q    Type
REMARK                         _______ _______ _______ _____ _____    ______ ____
ROOT
ATOM      9  C   UNL     1     -10.975  -7.764  16.410  0.00  0.00    -0.027 C 
ATOM     10  C   UNL     1     -10.586  -8.217  14.963  0.00  0.00    +0.028 C 
ATOM     11  C   UNL     1     -11.840  -8.210  14.018  0.00  0.00    +0.012 C 
ATOM     12  C   UNL     1      -9.773  -9.545  14.987  0.00  0.00    +0.122 C 
ATOM     13  C   UNL     1      -9.701  -7.673  17.283  0.00  0.00    +0.007 C 
ATOM     14  C   UNL     1      -8.559  -9.480  15.942  0.00  0.00    +0.029 C 
ATOM     15  C   UNL     1     -11.603  -6.353  16.344  0.00  0.00    +0.009 C 
ATOM     16  C   UNL     1     -12.507  -6.806  14.019  0.00  0.00    +0.076 C 
ATOM     17  C   UNL     1      -8.925  -8.982  17.340  0.00  0.00    +0.007 C 
ATOM     18  C   UNL     1     -12.810  -6.278  15.420  0.00  0.00    +0.023 C 
ATOM     19  C   UNL     1     -11.975  -8.736  17.087  0.00  0.00    +0.011 C 
ATOM     21  C   UNL     1     -11.522  -8.619  12.570  0.00  0.00    +0.010 C 
ENDROOT
BRANCH  16   5
ATOM      3  O   UNL     1     -13.133  -5.076  11.814  0.00  0.00    -0.270 OA
ATOM      5  N   UNL     1     -13.734  -6.795  13.249  0.00  0.00    -0.308 N 
ATOM     25  C   UNL     1     -13.941  -5.917  12.199  0.00  0.00    +0.247 C 
ATOM     35  H   UNL     1     -14.488  -7.392  13.573  0.00  0.00    +0.149 HD
BRANCH  25  30
ATOM      7  N   UNL     1     -16.628  -5.736   9.564  0.00  0.00    -0.243 NA
ATOM      8  N   UNL     1     -17.605  -6.560  11.606  0.00  0.00    -0.243 NA
ATOM     30  C   UNL     1     -15.262  -6.014  11.527  0.00  0.00    +0.073 A 
ATOM     31  C   UNL     1     -15.441  -5.662  10.205  0.00  0.00    +0.127 A 
ATOM     32  C   UNL     1     -16.390  -6.460  12.185  0.00  0.00    +0.127 A 
ATOM     34  C   UNL     1     -17.651  -6.188  10.313  0.00  0.00    +0.221 A 
ENDBRANCH  25  30
ENDBRANCH  16   5
BRANCH  12   1
ATOM      1  O   UNL     1      -9.254  -9.809  13.684  0.00  0.00    -0.391 OA
ATOM     36  H   UNL     1      -8.886 -10.709  13.681  0.00  0.00    +0.210 HD
ENDBRANCH  12   1
BRANCH  14  20
ATOM     20  C   UNL     1      -7.850 -10.836  16.051  0.00  0.00    +0.078 C 
ATOM     23  C   UNL     1      -8.285 -11.583  17.300  0.00  0.00    +0.017 C 
BRANCH  20  22
ATOM      2  O   UNL     1      -5.820 -10.170  17.102  0.00  0.00    -0.275 OA
ATOM      6  N   UNL     1      -5.684 -10.903  14.912  0.00  0.00    -0.296 N 
ATOM     22  C   UNL     1      -6.360 -10.600  16.082  0.00  0.00    +0.219 C 
ATOM     24  C   UNL     1      -4.254 -10.643  14.737  0.00  0.00    +0.102 C 
ATOM     26  C   UNL     1      -6.283 -11.414  13.681  0.00  0.00    +0.108 C 
ATOM     27  C   UNL     1      -4.055 -10.706  13.220  0.00  0.00    +0.026 C 
ATOM     28  C   UNL     1      -5.104 -11.715  12.769  0.00  0.00    +0.021 C 
BRANCH  24  29
ATOM     29  C   UNL     1      -3.404 -11.677  15.473  0.00  0.00    +0.181 C 
BRANCH  29   4
ATOM      4  O   UNL     1      -2.613 -11.005  16.434  0.00  0.00    -0.381 OA
ATOM     33  C   UNL     1      -1.448 -10.431  15.851  0.00  0.00    +0.194 C 
ENDBRANCH  29   4
ENDBRANCH  24  29
ENDBRANCH  20  22
ENDBRANCH  14  20
TORSDOF 7
ENDMDL
MODEL 10
REMARK VINA RESULT:      -5.7     30.464     34.064
REMARK  Name = 45361636
REMARK  11 active torsions:
REMARK  status: ('A' for Active; 'I' for Inactive)
REMARK    1  A    between atoms: O_1  and  C_12
REMARK    2  A    between atoms: O_4  and  C_29
REMARK    3  A    between atoms: O_4  and  C_33
REMARK    4  A    between atoms: N_5  and  C_16
REMARK    5  A    between atoms: C_9  and  C_19
REMARK    6  A    between atoms: C_11  and  C_21
REMARK    7  A    between atoms: C_14  and  C_20
REMARK    8  A    between atoms: C_20  and  C_22
REMARK    9  A    between atoms: C_20  and  C_23
REMARK   10  A    between atoms: C_24  and  C_29
REMARK   11  A    between atoms: C_25  and  C_30
REMARK                            x       y       z     vdW  Elec       q    Type
REMARK                         _______ _______ _______ _____ _____    ______ ____
ROOT
ATOM      9  C   UNL     1     -12.423  -9.873  14.584  0.00  0.00    -0.027 C 
ATOM     10  C   UNL     1     -11.649  -8.570  14.975  0.00  0.00    +0.028 C 
ATOM     11  C   UNL     1     -10.623  -8.854  16.131  0.00  0.00    +0.012 C 
ATOM     12  C   UNL     1     -12.628  -7.386  15.227  0.00  0.00    +0.122 C 
ATOM     13  C   UNL     1     -13.340  -9.583  13.371  0.00  0.00    +0.007 C 
ATOM     14  C   UNL     1     -13.611  -7.168  14.053  0.00  0.00    +0.029 C 
ATOM     15  C   UNL     1     -11.405 -10.954  14.157  0.00  0.00    +0.009 C 
ATOM     16  C   UNL     1      -9.652  -9.996  15.719  0.00  0.00    +0.076 C 
ATOM     17  C   UNL     1     -14.326  -8.452  13.628  0.00  0.00    +0.007 C 
ATOM     18  C   UNL     1     -10.367 -11.255  15.229  0.00  0.00    +0.023 C 
ATOM     19  C   UNL     1     -13.292 -10.419  15.746  0.00  0.00    +0.011 C 
ATOM     21  C   UNL     1      -9.806  -7.620  16.546  0.00  0.00    +0.010 C 
ENDROOT
BRANCH  16   5
ATOM      3  O   UNL     1      -6.782  -9.933  15.687  0.00  0.00    -0.270 OA
ATOM      5  N   UNL     1      -8.767 -10.364  16.805  0.00  0.00    -0.308 N 
ATOM     25  C   UNL     1      -7.390 -10.300  16.690  0.00  0.00    +0.247 C 
ATOM     35  H   UNL     1      -9.194 -10.774  17.630  0.00  0.00    +0.149 HD
BRANCH  25  30
ATOM      7  N   UNL     1      -6.517 -11.188  20.246  0.00  0.00    -0.243 NA
ATOM      8  N   UNL     1      -4.566 -11.508  18.870  0.00  0.00    -0.243 NA
ATOM     30  C   UNL     1      -6.621 -10.737  17.884  0.00  0.00    +0.073 A 
ATOM     31  C   UNL     1      -7.186 -10.796  19.141  0.00  0.00    +0.127 A 
ATOM     32  C   UNL     1      -5.294 -11.107  17.807  0.00  0.00    +0.127 A 
ATOM     34  C   UNL     1      -5.230 -11.525  20.042  0.00  0.00    +0.221 A 
ENDBRANCH  25  30
ENDBRANCH  16   5
BRANCH  12   1
ATOM      1  O   UNL     1     -11.885  -6.175  15.366  0.00  0.00    -0.391 OA
ATOM     36  H   UNL     1     -10.940  -6.391  15.305  0.00  0.00    +0.210 HD
ENDBRANCH  12   1
BRANCH  14  20
ATOM     20  C   UNL     1     -14.649  -6.086  14.374  0.00  0.00    +0.078 C 
ATOM     23  C   UNL     1     -15.838  -6.670  15.115  0.00  0.00    +0.017 C 
BRANCH  20  22
ATOM      2  O   UNL     1     -16.234  -5.680  12.644  0.00  0.00    -0.275 OA
ATOM      6  N   UNL     1     -14.179  -4.633  12.461  0.00  0.00    -0.296 N 
ATOM     22  C   UNL     1     -15.104  -5.456  13.081  0.00  0.00    +0.219 C 
ATOM     24  C   UNL     1     -14.420  -4.020  11.153  0.00  0.00    +0.102 C 
ATOM     26  C   UNL     1     -12.831  -4.340  12.942  0.00  0.00    +0.108 C 
ATOM     27  C   UNL     1     -13.024  -3.598  10.685  0.00  0.00    +0.026 C 
ATOM     28  C   UNL     1     -12.297  -3.283  11.987  0.00  0.00    +0.021 C 
BRANCH  24  29
ATOM     29  C   UNL     1     -15.375  -2.833  11.260  0.00  0.00    +0.181 C 
BRANCH  29   4
ATOM      4  O   UNL     1     -16.530  -3.116  10.494  0.00  0.00    -0.381 OA
ATOM     33  C   UNL     1     -16.713  -2.169   9.446  0.00  0.00    +0.194 C 
ENDBRANCH  29   4
ENDBRANCH  24  29
ENDBRANCH  20  22
ENDBRANCH  14  20
TORSDOF 7
ENDMDL
