MODEL 1
REMARK VINA RESULT:      -5.3      0.000      0.000
REMARK  Name = 7673425
REMARK  13 active torsions:
REMARK  status: ('A' for Active; 'I' for Inactive)
REMARK    1  A    between atoms: N_4  and  C_19
REMARK    2  A    between atoms: N_4  and  C_20
REMARK    3  A    between atoms: C_6  and  C_12
REMARK    4  A    between atoms: C_7  and  C_11
REMARK    5  A    between atoms: C_11  and  C_14
REMARK    6  A    between atoms: C_12  and  C_15
REMARK    7  A    between atoms: C_13  and  C_16
REMARK    8  A    between atoms: C_16  and  C_17
REMARK    9  A    between atoms: C_17  and  C_18
REMARK   10  A    between atoms: C_18  and  C_21
REMARK   11  A    between atoms: C_19  and  C_22
REMARK   12  A    between atoms: C_21  and  C_23
REMARK   13  A    between atoms: C_22  and  C_24
REMARK                            x       y       z     vdW  Elec       q    Type
REMARK                         _______ _______ _______ _____ _____    ______ ____
ROOT
ATOM      1  O   UNL     1      -1.668 -11.938  14.867  0.00  0.00    -0.276 OA
ATOM      3  N   UNL     1      -3.849 -11.194  15.173  0.00  0.00    -0.301 N 
ATOM      6  C   UNL     1      -5.831 -10.411  17.179  0.00  0.00    +0.004 C 
ATOM      7  C   UNL     1      -4.592 -11.269  17.535  0.00  0.00    +0.010 C 
ATOM      8  C   UNL     1      -5.518  -9.548  15.944  0.00  0.00    +0.023 C 
ATOM      9  C   UNL     1      -4.086 -12.069  16.323  0.00  0.00    +0.111 C 
ATOM     10  C   UNL     1      -4.995 -10.373  14.768  0.00  0.00    +0.108 C 
ATOM     13  C   UNL     1      -2.621 -11.240  14.511  0.00  0.00    +0.216 C 
ENDROOT
BRANCH   7  11
ATOM     11  C   UNL     1      -4.825 -12.193  18.729  0.00  0.00    +0.002 C 
ATOM     14  C   UNL     1      -3.564 -12.349  19.554  0.00  0.00    +0.004 C 
ENDBRANCH   7  11
BRANCH   6  12
ATOM     12  C   UNL     1      -7.113 -11.224  16.970  0.00  0.00    +0.100 C 
BRANCH  12  15
ATOM      2  O   UNL     1      -8.550 -10.489  18.742  0.00  0.00    -0.276 OA
ATOM      4  N   UNL     1      -9.190  -9.937  16.581  0.00  0.00    -0.304 N 
ATOM     15  C   UNL     1      -8.341 -10.523  17.526  0.00  0.00    +0.216 C 
ATOM     20  C   UNL     1      -8.922  -9.990  15.149  0.00  0.00    +0.132 C 
BRANCH   4  19
ATOM     19  C   UNL     1     -10.409  -9.225  16.959  0.00  0.00    +0.122 C 
BRANCH  19  22
ATOM     22  C   UNL     1     -10.148  -7.763  17.299  0.00  0.00    +0.137 C 
BRANCH  22  24
ATOM      5  N   UNL     1     -11.215  -6.137  15.528  0.00  0.00    -0.197 NA
ATOM     24  C   UNL     1     -10.745  -6.855  16.309  0.00  0.00    +0.064 C 
ENDBRANCH  22  24
ENDBRANCH  19  22
ENDBRANCH   4  19
ENDBRANCH  12  15
ENDBRANCH   6  12
BRANCH  13  16
ATOM     16  C   UNL     1      -2.478 -10.370  13.288  0.00  0.00    +0.096 C 
BRANCH  16  17
ATOM     17  C   UNL     1      -2.218 -11.222  12.056  0.00  0.00    +0.009 C 
BRANCH  17  18
ATOM     18  C   UNL     1      -3.175 -10.904  10.904  0.00  0.00    +0.000 C 
BRANCH  18  21
ATOM     21  C   UNL     1      -2.984  -9.473  10.403  0.00  0.00    -0.003 C 
ATOM     23  C   UNL     1      -4.310  -8.733  10.309  0.00  0.00    +0.004 C 
ENDBRANCH  18  21
ENDBRANCH  17  18
ENDBRANCH  16  17
ENDBRANCH  13  16
TORSDOF 10
ENDMDL
MODEL 2
REMARK VINA RESULT:      -5.3      2.151      2.369
REMARK  Name = 7673425
REMARK  13 active torsions:
REMARK  status: ('A' for Active; 'I' for Inactive)
REMARK    1  A    between atoms: N_4  and  C_19
REMARK    2  A    between atoms: N_4  and  C_20
REMARK    3  A    between atoms: C_6  and  C_12
REMARK    4  A    between atoms: C_7  and  C_11
REMARK    5  A    between atoms: C_11  and  C_14
REMARK    6  A    between atoms: C_12  and  C_15
REMARK    7  A    between atoms: C_13  and  C_16
REMARK    8  A    between atoms: C_16  and  C_17
REMARK    9  A    between atoms: C_17  and  C_18
REMARK   10  A    between atoms: C_18  and  C_21
REMARK   11  A    between atoms: C_19  and  C_22
REMARK   12  A    between atoms: C_21  and  C_23
REMARK   13  A    between atoms: C_22  and  C_24
REMARK                            x       y       z     vdW  Elec       q    Type
REMARK                         _______ _______ _______ _____ _____    ______ ____
ROOT
ATOM      1  O   UNL     1      -1.356 -11.138  15.488  0.00  0.00    -0.276 OA
ATOM      3  N   UNL     1      -3.673 -10.992  15.394  0.00  0.00    -0.301 N 
ATOM      6  C   UNL     1      -6.076 -10.336  16.932  0.00  0.00    +0.004 C 
ATOM      7  C   UNL     1      -4.732 -10.694  17.613  0.00  0.00    +0.010 C 
ATOM      8  C   UNL     1      -5.801  -9.751  15.536  0.00  0.00    +0.023 C 
ATOM      9  C   UNL     1      -3.859 -11.588  16.718  0.00  0.00    +0.111 C 
ATOM     10  C   UNL     1      -4.912 -10.655  14.683  0.00  0.00    +0.108 C 
ATOM     13  C   UNL     1      -2.386 -10.849  14.875  0.00  0.00    +0.216 C 
ENDROOT
BRANCH   7  11
ATOM     11  C   UNL     1      -4.907 -11.324  18.995  0.00  0.00    +0.002 C 
ATOM     14  C   UNL     1      -3.709 -12.172  19.365  0.00  0.00    +0.004 C 
ENDBRANCH   7  11
BRANCH   6  12
ATOM     12  C   UNL     1      -7.064 -11.506  16.852  0.00  0.00    +0.100 C 
BRANCH  12  15
ATOM      2  O   UNL     1      -9.065 -10.208  16.613  0.00  0.00    -0.276 OA
ATOM      4  N   UNL     1      -9.041 -11.787  18.313  0.00  0.00    -0.304 N 
ATOM     15  C   UNL     1      -8.476 -11.098  17.235  0.00  0.00    +0.216 C 
ATOM     20  C   UNL     1      -8.326 -12.834  19.032  0.00  0.00    +0.132 C 
BRANCH   4  19
ATOM     19  C   UNL     1     -10.391 -11.510  18.799  0.00  0.00    +0.122 C 
BRANCH  19  22
ATOM     22  C   UNL     1     -10.440 -10.298  19.722  0.00  0.00    +0.137 C 
BRANCH  22  24
ATOM      5  N   UNL     1     -12.845  -9.925  20.720  0.00  0.00    -0.197 NA
ATOM     24  C   UNL     1     -11.784 -10.090  20.281  0.00  0.00    +0.064 C 
ENDBRANCH  22  24
ENDBRANCH  19  22
ENDBRANCH   4  19
ENDBRANCH  12  15
ENDBRANCH   6  12
BRANCH  13  16
ATOM     16  C   UNL     1      -2.278 -10.301  13.474  0.00  0.00    +0.096 C 
BRANCH  16  17
ATOM     17  C   UNL     1      -2.065 -11.428  12.476  0.00  0.00    +0.009 C 
BRANCH  17  18
ATOM     18  C   UNL     1      -2.964 -11.303  11.242  0.00  0.00    +0.000 C 
BRANCH  18  21
ATOM     21  C   UNL     1      -3.682  -9.954  11.214  0.00  0.00    -0.003 C 
ATOM     23  C   UNL     1      -3.354  -9.174   9.950  0.00  0.00    +0.004 C 
ENDBRANCH  18  21
ENDBRANCH  17  18
ENDBRANCH  16  17
ENDBRANCH  13  16
TORSDOF 10
ENDMDL
MODEL 3
REMARK VINA RESULT:      -5.0     23.694     27.498
REMARK  Name = 7673425
REMARK  13 active torsions:
REMARK  status: ('A' for Active; 'I' for Inactive)
REMARK    1  A    between atoms: N_4  and  C_19
REMARK    2  A    between atoms: N_4  and  C_20
REMARK    3  A    between atoms: C_6  and  C_12
REMARK    4  A    between atoms: C_7  and  C_11
REMARK    5  A    between atoms: C_11  and  C_14
REMARK    6  A    between atoms: C_12  and  C_15
REMARK    7  A    between atoms: C_13  and  C_16
REMARK    8  A    between atoms: C_16  and  C_17
REMARK    9  A    between atoms: C_17  and  C_18
REMARK   10  A    between atoms: C_18  and  C_21
REMARK   11  A    between atoms: C_19  and  C_22
REMARK   12  A    between atoms: C_21  and  C_23
REMARK   13  A    between atoms: C_22  and  C_24
REMARK                            x       y       z     vdW  Elec       q    Type
REMARK                         _______ _______ _______ _____ _____    ______ ____
ROOT
ATOM      1  O   UNL     1      10.173   9.713   5.614  0.00  0.00    -0.276 OA
ATOM      3  N   UNL     1       9.934   7.582   4.717  0.00  0.00    -0.301 N 
ATOM      6  C   UNL     1      11.386   5.298   3.604  0.00  0.00    +0.004 C 
ATOM      7  C   UNL     1      12.006   6.715   3.675  0.00  0.00    +0.010 C 
ATOM      8  C   UNL     1      10.329   5.147   4.711  0.00  0.00    +0.023 C 
ATOM      9  C   UNL     1      10.928   7.810   3.667  0.00  0.00    +0.111 C 
ATOM     10  C   UNL     1       9.288   6.266   4.688  0.00  0.00    +0.108 C 
ATOM     13  C   UNL     1       9.619   8.611   5.605  0.00  0.00    +0.216 C 
ENDROOT
BRANCH   7  11
ATOM     11  C   UNL     1      13.042   6.973   2.581  0.00  0.00    +0.002 C 
ATOM     14  C   UNL     1      14.445   6.996   3.150  0.00  0.00    +0.004 C 
ENDBRANCH   7  11
BRANCH   6  12
ATOM     12  C   UNL     1      10.799   4.943   2.233  0.00  0.00    +0.100 C 
BRANCH  12  15
ATOM      2  O   UNL     1      12.262   3.052   2.057  0.00  0.00    -0.276 OA
ATOM      4  N   UNL     1      11.741   4.157   0.084  0.00  0.00    -0.304 N 
ATOM     15  C   UNL     1      11.668   3.960   1.468  0.00  0.00    +0.216 C 
ATOM     20  C   UNL     1      11.031   5.236  -0.590  0.00  0.00    +0.132 C 
BRANCH   4  19
ATOM     19  C   UNL     1      12.534   3.294  -0.788  0.00  0.00    +0.122 C 
BRANCH  19  22
ATOM     22  C   UNL     1      13.737   4.016  -1.384  0.00  0.00    +0.137 C 
BRANCH  22  24
ATOM      5  N   UNL     1      15.751   4.126   0.305  0.00  0.00    -0.197 NA
ATOM     24  C   UNL     1      14.862   4.077  -0.439  0.00  0.00    +0.064 C 
ENDBRANCH  22  24
ENDBRANCH  19  22
ENDBRANCH   4  19
ENDBRANCH  12  15
ENDBRANCH   6  12
BRANCH  13  16
ATOM     16  C   UNL     1       8.529   8.330   6.609  0.00  0.00    +0.096 C 
BRANCH  16  17
ATOM     17  C   UNL     1       9.128   7.987   7.964  0.00  0.00    +0.009 C 
BRANCH  17  18
ATOM     18  C   UNL     1       8.836   6.547   8.393  0.00  0.00    +0.000 C 
BRANCH  18  21
ATOM     21  C   UNL     1      10.117   5.715   8.449  0.00  0.00    -0.003 C 
ATOM     23  C   UNL     1       9.817   4.225   8.409  0.00  0.00    +0.004 C 
ENDBRANCH  18  21
ENDBRANCH  17  18
ENDBRANCH  16  17
ENDBRANCH  13  16
TORSDOF 10
ENDMDL
MODEL 4
REMARK VINA RESULT:      -5.0     23.090     27.506
REMARK  Name = 7673425
REMARK  13 active torsions:
REMARK  status: ('A' for Active; 'I' for Inactive)
REMARK    1  A    between atoms: N_4  and  C_19
REMARK    2  A    between atoms: N_4  and  C_20
REMARK    3  A    between atoms: C_6  and  C_12
REMARK    4  A    between atoms: C_7  and  C_11
REMARK    5  A    between atoms: C_11  and  C_14
REMARK    6  A    between atoms: C_12  and  C_15
REMARK    7  A    between atoms: C_13  and  C_16
REMARK    8  A    between atoms: C_16  and  C_17
REMARK    9  A    between atoms: C_17  and  C_18
REMARK   10  A    between atoms: C_18  and  C_21
REMARK   11  A    between atoms: C_19  and  C_22
REMARK   12  A    between atoms: C_21  and  C_23
REMARK   13  A    between atoms: C_22  and  C_24
REMARK                            x       y       z     vdW  Elec       q    Type
REMARK                         _______ _______ _______ _____ _____    ______ ____
ROOT
ATOM      1  O   UNL     1      11.430   7.037   5.928  0.00  0.00    -0.276 OA
ATOM      3  N   UNL     1      11.215   5.841   3.947  0.00  0.00    -0.301 N 
ATOM      6  C   UNL     1      12.683   4.745   1.663  0.00  0.00    +0.004 C 
ATOM      7  C   UNL     1      13.259   5.879   2.548  0.00  0.00    +0.010 C 
ATOM      8  C   UNL     1      11.689   3.908   2.488  0.00  0.00    +0.023 C 
ATOM      9  C   UNL     1      12.146   6.702   3.215  0.00  0.00    +0.111 C 
ATOM     10  C   UNL     1      10.613   4.762   3.156  0.00  0.00    +0.108 C 
ATOM     13  C   UNL     1      10.913   6.125   5.279  0.00  0.00    +0.216 C 
ENDROOT
BRANCH   7  11
ATOM     11  C   UNL     1      14.227   6.792   1.797  0.00  0.00    +0.002 C 
ATOM     14  C   UNL     1      15.288   7.345   2.726  0.00  0.00    +0.004 C 
ENDBRANCH   7  11
BRANCH   6  12
ATOM     12  C   UNL     1      12.037   5.237   0.362  0.00  0.00    +0.100 C 
BRANCH  12  15
ATOM      2  O   UNL     1      10.371   3.710  -0.437  0.00  0.00    -0.276 OA
ATOM      4  N   UNL     1      12.489   3.527  -1.368  0.00  0.00    -0.304 N 
ATOM     15  C   UNL     1      11.543   4.094  -0.507  0.00  0.00    +0.216 C 
ATOM     20  C   UNL     1      13.867   3.998  -1.433  0.00  0.00    +0.132 C 
BRANCH   4  19
ATOM     19  C   UNL     1      12.166   2.422  -2.267  0.00  0.00    +0.122 C 
BRANCH  19  22
ATOM     22  C   UNL     1      11.666   2.901  -3.624  0.00  0.00    +0.137 C 
BRANCH  22  24
ATOM      5  N   UNL     1       9.041   2.835  -3.779  0.00  0.00    -0.197 NA
ATOM     24  C   UNL     1      10.199   2.864  -3.712  0.00  0.00    +0.064 C 
ENDBRANCH  22  24
ENDBRANCH  19  22
ENDBRANCH   4  19
ENDBRANCH  12  15
ENDBRANCH   6  12
BRANCH  13  16
ATOM     16  C   UNL     1       9.886   5.242   5.943  0.00  0.00    +0.096 C 
BRANCH  16  17
ATOM     17  C   UNL     1       9.780   5.570   7.424  0.00  0.00    +0.009 C 
BRANCH  17  18
ATOM     18  C   UNL     1       9.764   4.319   8.308  0.00  0.00    +0.000 C 
BRANCH  18  21
ATOM     21  C   UNL     1       9.874   4.686   9.788  0.00  0.00    -0.003 C 
ATOM     23  C   UNL     1       8.513   4.676  10.467  0.00  0.00    +0.004 C 
ENDBRANCH  18  21
ENDBRANCH  17  18
ENDBRANCH  16  17
ENDBRANCH  13  16
TORSDOF 10
ENDMDL
MODEL 5
REMARK VINA RESULT:      -4.8      3.209      5.887
REMARK  Name = 7673425
REMARK  13 active torsions:
REMARK  status: ('A' for Active; 'I' for Inactive)
REMARK    1  A    between atoms: N_4  and  C_19
REMARK    2  A    between atoms: N_4  and  C_20
REMARK    3  A    between atoms: C_6  and  C_12
REMARK    4  A    between atoms: C_7  and  C_11
REMARK    5  A    between atoms: C_11  and  C_14
REMARK    6  A    between atoms: C_12  and  C_15
REMARK    7  A    between atoms: C_13  and  C_16
REMARK    8  A    between atoms: C_16  and  C_17
REMARK    9  A    between atoms: C_17  and  C_18
REMARK   10  A    between atoms: C_18  and  C_21
REMARK   11  A    between atoms: C_19  and  C_22
REMARK   12  A    between atoms: C_21  and  C_23
REMARK   13  A    between atoms: C_22  and  C_24
REMARK                            x       y       z     vdW  Elec       q    Type
REMARK                         _______ _______ _______ _____ _____    ______ ____
ROOT
ATOM      1  O   UNL     1      -7.371 -11.761  20.161  0.00  0.00    -0.276 OA
ATOM      3  N   UNL     1      -8.505 -10.595  18.501  0.00  0.00    -0.301 N 
ATOM      6  C   UNL     1     -10.893  -9.003  17.925  0.00  0.00    +0.004 C 
ATOM      7  C   UNL     1     -10.807  -9.949  19.148  0.00  0.00    +0.010 C 
ATOM      8  C   UNL     1      -9.478  -8.544  17.533  0.00  0.00    +0.023 C 
ATOM      9  C   UNL     1      -9.817 -11.100  18.909  0.00  0.00    +0.111 C 
ATOM     10  C   UNL     1      -8.515  -9.713  17.328  0.00  0.00    +0.108 C 
ATOM     13  C   UNL     1      -7.360 -11.018  19.177  0.00  0.00    +0.216 C 
ENDROOT
BRANCH   7  11
ATOM     11  C   UNL     1     -12.168 -10.492  19.584  0.00  0.00    +0.002 C 
ATOM     14  C   UNL     1     -12.768  -9.643  20.685  0.00  0.00    +0.004 C 
ENDBRANCH   7  11
BRANCH   6  12
ATOM     12  C   UNL     1     -11.627  -9.607  16.721  0.00  0.00    +0.100 C 
BRANCH  12  15
ATOM      2  O   UNL     1     -13.703  -8.410  16.794  0.00  0.00    -0.276 OA
ATOM      4  N   UNL     1     -12.406  -8.136  14.890  0.00  0.00    -0.304 N 
ATOM     15  C   UNL     1     -12.679  -8.669  16.155  0.00  0.00    +0.216 C 
ATOM     20  C   UNL     1     -11.189  -8.455  14.154  0.00  0.00    +0.132 C 
BRANCH   4  19
ATOM     19  C   UNL     1     -13.319  -7.217  14.214  0.00  0.00    +0.122 C 
BRANCH  19  22
ATOM     22  C   UNL     1     -13.107  -5.769  14.636  0.00  0.00    +0.137 C 
BRANCH  22  24
ATOM      5  N   UNL     1     -12.135  -4.307  12.678  0.00  0.00    -0.197 NA
ATOM     24  C   UNL     1     -12.563  -4.952  13.542  0.00  0.00    +0.064 C 
ENDBRANCH  22  24
ENDBRANCH  19  22
ENDBRANCH   4  19
ENDBRANCH  12  15
ENDBRANCH   6  12
BRANCH  13  16
ATOM     16  C   UNL     1      -6.039 -10.518  18.649  0.00  0.00    +0.096 C 
BRANCH  16  17
ATOM     17  C   UNL     1      -4.959 -11.573  18.832  0.00  0.00    +0.009 C 
BRANCH  17  18
ATOM     18  C   UNL     1      -3.756 -11.355  17.908  0.00  0.00    +0.000 C 
BRANCH  18  21
ATOM     21  C   UNL     1      -4.178 -10.692  16.597  0.00  0.00    -0.003 C 
ATOM     23  C   UNL     1      -3.071 -10.759  15.557  0.00  0.00    +0.004 C 
ENDBRANCH  18  21
ENDBRANCH  17  18
ENDBRANCH  16  17
ENDBRANCH  13  16
TORSDOF 10
ENDMDL
MODEL 6
REMARK VINA RESULT:      -4.8      1.872      7.144
REMARK  Name = 7673425
REMARK  13 active torsions:
REMARK  status: ('A' for Active; 'I' for Inactive)
REMARK    1  A    between atoms: N_4  and  C_19
REMARK    2  A    between atoms: N_4  and  C_20
REMARK    3  A    between atoms: C_6  and  C_12
REMARK    4  A    between atoms: C_7  and  C_11
REMARK    5  A    between atoms: C_11  and  C_14
REMARK    6  A    between atoms: C_12  and  C_15
REMARK    7  A    between atoms: C_13  and  C_16
REMARK    8  A    between atoms: C_16  and  C_17
REMARK    9  A    between atoms: C_17  and  C_18
REMARK   10  A    between atoms: C_18  and  C_21
REMARK   11  A    between atoms: C_19  and  C_22
REMARK   12  A    between atoms: C_21  and  C_23
REMARK   13  A    between atoms: C_22  and  C_24
REMARK                            x       y       z     vdW  Elec       q    Type
REMARK                         _______ _______ _______ _____ _____    ______ ____
ROOT
ATOM      1  O   UNL     1      -8.619 -10.749  19.932  0.00  0.00    -0.276 OA
ATOM      3  N   UNL     1      -7.797 -10.662  17.760  0.00  0.00    -0.301 N 
ATOM      6  C   UNL     1      -5.644 -11.573  15.997  0.00  0.00    +0.004 C 
ATOM      7  C   UNL     1      -5.502 -11.568  17.539  0.00  0.00    +0.010 C 
ATOM      8  C   UNL     1      -7.132 -11.699  15.622  0.00  0.00    +0.023 C 
ATOM      9  C   UNL     1      -6.405 -10.510  18.191  0.00  0.00    +0.111 C 
ATOM     10  C   UNL     1      -8.002 -10.647  16.307  0.00  0.00    +0.108 C 
ATOM     13  C   UNL     1      -8.812 -10.738  18.713  0.00  0.00    +0.216 C 
ENDROOT
BRANCH   7  11
ATOM     11  C   UNL     1      -4.056 -11.403  18.008  0.00  0.00    +0.002 C 
ATOM     14  C   UNL     1      -3.810 -12.160  19.296  0.00  0.00    +0.004 C 
ENDBRANCH   7  11
BRANCH   6  12
ATOM     12  C   UNL     1      -5.005 -10.361  15.308  0.00  0.00    +0.100 C 
BRANCH  12  15
ATOM      2  O   UNL     1      -2.762 -11.006  14.764  0.00  0.00    -0.276 OA
ATOM      4  N   UNL     1      -4.254 -10.822  12.996  0.00  0.00    -0.304 N 
ATOM     15  C   UNL     1      -3.898 -10.759  14.348  0.00  0.00    +0.216 C 
ATOM     20  C   UNL     1      -5.602 -10.525  12.529  0.00  0.00    +0.132 C 
BRANCH   4  19
ATOM     19  C   UNL     1      -3.301 -11.190  11.952  0.00  0.00    +0.122 C 
BRANCH  19  22
ATOM     22  C   UNL     1      -2.564  -9.984  11.383  0.00  0.00    +0.137 C 
BRANCH  22  24
ATOM      5  N   UNL     1      -3.850  -8.917   9.351  0.00  0.00    -0.197 NA
ATOM     24  C   UNL     1      -3.283  -9.389  10.247  0.00  0.00    +0.064 C 
ENDBRANCH  22  24
ENDBRANCH  19  22
ENDBRANCH   4  19
ENDBRANCH  12  15
ENDBRANCH   6  12
BRANCH  13  16
ATOM     16  C   UNL     1     -10.225 -10.813  18.193  0.00  0.00    +0.096 C 
BRANCH  16  17
ATOM     17  C   UNL     1     -11.018  -9.589  18.626  0.00  0.00    +0.009 C 
BRANCH  17  18
ATOM     18  C   UNL     1     -11.940  -9.061  17.523  0.00  0.00    +0.000 C 
BRANCH  18  21
ATOM     21  C   UNL     1     -11.136  -8.554  16.325  0.00  0.00    -0.003 C 
ATOM     23  C   UNL     1     -10.655  -7.127  16.541  0.00  0.00    +0.004 C 
ENDBRANCH  18  21
ENDBRANCH  17  18
ENDBRANCH  16  17
ENDBRANCH  13  16
TORSDOF 10
ENDMDL
MODEL 7
REMARK VINA RESULT:      -4.8      5.176      9.145
REMARK  Name = 7673425
REMARK  13 active torsions:
REMARK  status: ('A' for Active; 'I' for Inactive)
REMARK    1  A    between atoms: N_4  and  C_19
REMARK    2  A    between atoms: N_4  and  C_20
REMARK    3  A    between atoms: C_6  and  C_12
REMARK    4  A    between atoms: C_7  and  C_11
REMARK    5  A    between atoms: C_11  and  C_14
REMARK    6  A    between atoms: C_12  and  C_15
REMARK    7  A    between atoms: C_13  and  C_16
REMARK    8  A    between atoms: C_16  and  C_17
REMARK    9  A    between atoms: C_17  and  C_18
REMARK   10  A    between atoms: C_18  and  C_21
REMARK   11  A    between atoms: C_19  and  C_22
REMARK   12  A    between atoms: C_21  and  C_23
REMARK   13  A    between atoms: C_22  and  C_24
REMARK                            x       y       z     vdW  Elec       q    Type
REMARK                         _______ _______ _______ _____ _____    ______ ____
ROOT
ATOM      1  O   UNL     1      -9.114  -9.075   7.297  0.00  0.00    -0.276 OA
ATOM      3  N   UNL     1      -7.293  -9.107   8.742  0.00  0.00    -0.301 N 
ATOM      6  C   UNL     1      -4.412  -9.595   8.920  0.00  0.00    +0.004 C 
ATOM      7  C   UNL     1      -5.271 -10.141   7.753  0.00  0.00    +0.010 C 
ATOM      8  C   UNL     1      -5.076  -8.330   9.495  0.00  0.00    +0.023 C 
ATOM      9  C   UNL     1      -6.738 -10.334   8.167  0.00  0.00    +0.111 C 
ATOM     10  C   UNL     1      -6.539  -8.553   9.872  0.00  0.00    +0.108 C 
ATOM     13  C   UNL     1      -8.494  -8.595   8.250  0.00  0.00    +0.216 C 
ENDROOT
BRANCH   7  11
ATOM     11  C   UNL     1      -4.710 -11.426   7.145  0.00  0.00    +0.002 C 
ATOM     14  C   UNL     1      -4.843 -11.421   5.636  0.00  0.00    +0.004 C 
ENDBRANCH   7  11
BRANCH   6  12
ATOM     12  C   UNL     1      -4.139 -10.621  10.026  0.00  0.00    +0.100 C 
BRANCH  12  15
ATOM      2  O   UNL     1      -2.117  -9.453  10.564  0.00  0.00    -0.276 OA
ATOM      4  N   UNL     1      -3.124 -10.642  12.282  0.00  0.00    -0.304 N 
ATOM     15  C   UNL     1      -3.031 -10.178  10.966  0.00  0.00    +0.216 C 
ATOM     20  C   UNL     1      -4.214 -11.499  12.734  0.00  0.00    +0.132 C 
BRANCH   4  19
ATOM     19  C   UNL     1      -2.137 -10.302  13.304  0.00  0.00    +0.122 C 
BRANCH  19  22
ATOM     22  C   UNL     1      -1.809 -11.481  14.213  0.00  0.00    +0.137 C 
BRANCH  22  24
ATOM      5  N   UNL     1      -1.958 -10.826  16.756  0.00  0.00    -0.197 NA
ATOM     24  C   UNL     1      -1.892 -11.116  15.635  0.00  0.00    +0.064 C 
ENDBRANCH  22  24
ENDBRANCH  19  22
ENDBRANCH   4  19
ENDBRANCH  12  15
ENDBRANCH   6  12
BRANCH  13  16
ATOM     16  C   UNL     1      -9.044  -7.374   8.944  0.00  0.00    +0.096 C 
BRANCH  16  17
ATOM     17  C   UNL     1      -8.720  -6.118   8.150  0.00  0.00    +0.009 C 
BRANCH  17  18
ATOM     18  C   UNL     1      -9.469  -4.885   8.663  0.00  0.00    +0.000 C 
BRANCH  18  21
ATOM     21  C   UNL     1     -10.951  -5.187   8.879  0.00  0.00    -0.003 C 
ATOM     23  C   UNL     1     -11.575  -4.231   9.884  0.00  0.00    +0.004 C 
ENDBRANCH  18  21
ENDBRANCH  17  18
ENDBRANCH  16  17
ENDBRANCH  13  16
TORSDOF 10
ENDMDL
MODEL 8
REMARK VINA RESULT:      -4.7     24.646     27.632
REMARK  Name = 7673425
REMARK  13 active torsions:
REMARK  status: ('A' for Active; 'I' for Inactive)
REMARK    1  A    between atoms: N_4  and  C_19
REMARK    2  A    between atoms: N_4  and  C_20
REMARK    3  A    between atoms: C_6  and  C_12
REMARK    4  A    between atoms: C_7  and  C_11
REMARK    5  A    between atoms: C_11  and  C_14
REMARK    6  A    between atoms: C_12  and  C_15
REMARK    7  A    between atoms: C_13  and  C_16
REMARK    8  A    between atoms: C_16  and  C_17
REMARK    9  A    between atoms: C_17  and  C_18
REMARK   10  A    between atoms: C_18  and  C_21
REMARK   11  A    between atoms: C_19  and  C_22
REMARK   12  A    between atoms: C_21  and  C_23
REMARK   13  A    between atoms: C_22  and  C_24
REMARK                            x       y       z     vdW  Elec       q    Type
REMARK                         _______ _______ _______ _____ _____    ______ ____
ROOT
ATOM      1  O   UNL     1      12.167   6.512   4.982  0.00  0.00    -0.276 OA
ATOM      3  N   UNL     1      11.256   6.015   2.902  0.00  0.00    -0.301 N 
ATOM      6  C   UNL     1      11.059   3.960   0.826  0.00  0.00    +0.004 C 
ATOM      7  C   UNL     1      12.186   3.956   1.887  0.00  0.00    +0.010 C 
ATOM      8  C   UNL     1       9.825   4.685   1.394  0.00  0.00    +0.023 C 
ATOM      9  C   UNL     1      12.477   5.369   2.416  0.00  0.00    +0.111 C 
ATOM     10  C   UNL     1      10.157   6.076   1.933  0.00  0.00    +0.108 C 
ATOM     13  C   UNL     1      11.232   6.574   4.180  0.00  0.00    +0.216 C 
ENDROOT
BRANCH   7  11
ATOM     11  C   UNL     1      13.471   3.291   1.394  0.00  0.00    +0.002 C 
ATOM     14  C   UNL     1      14.676   4.172   1.651  0.00  0.00    +0.004 C 
ENDBRANCH   7  11
BRANCH   6  12
ATOM     12  C   UNL     1      11.474   4.560  -0.522  0.00  0.00    +0.100 C 
BRANCH  12  15
ATOM      2  O   UNL     1       9.484   4.759  -1.843  0.00  0.00    -0.276 OA
ATOM      4  N   UNL     1      10.961   3.069  -2.428  0.00  0.00    -0.304 N 
ATOM     15  C   UNL     1      10.542   4.152  -1.649  0.00  0.00    +0.216 C 
ATOM     20  C   UNL     1      12.215   2.368  -2.181  0.00  0.00    +0.132 C 
BRANCH   4  19
ATOM     19  C   UNL     1      10.175   2.559  -3.549  0.00  0.00    +0.122 C 
BRANCH  19  22
ATOM     22  C   UNL     1      10.567   3.200  -4.875  0.00  0.00    +0.137 C 
BRANCH  22  24
ATOM      5  N   UNL     1       8.633   4.689  -5.856  0.00  0.00    -0.197 NA
ATOM     24  C   UNL     1       9.486   4.032  -5.422  0.00  0.00    +0.064 C 
ENDBRANCH  22  24
ENDBRANCH  19  22
ENDBRANCH   4  19
ENDBRANCH  12  15
ENDBRANCH   6  12
BRANCH  13  16
ATOM     16  C   UNL     1       9.967   7.292   4.581  0.00  0.00    +0.096 C 
BRANCH  16  17
ATOM     17  C   UNL     1       9.161   6.447   5.555  0.00  0.00    +0.009 C 
BRANCH  17  18
ATOM     18  C   UNL     1       8.309   7.292   6.507  0.00  0.00    +0.000 C 
BRANCH  18  21
ATOM     21  C   UNL     1       8.875   7.267   7.927  0.00  0.00    -0.003 C 
ATOM     23  C   UNL     1       9.575   5.950   8.225  0.00  0.00    +0.004 C 
ENDBRANCH  18  21
ENDBRANCH  17  18
ENDBRANCH  16  17
ENDBRANCH  13  16
TORSDOF 10
ENDMDL
MODEL 9
REMARK VINA RESULT:      -4.7      3.826      6.033
REMARK  Name = 7673425
REMARK  13 active torsions:
REMARK  status: ('A' for Active; 'I' for Inactive)
REMARK    1  A    between atoms: N_4  and  C_19
REMARK    2  A    between atoms: N_4  and  C_20
REMARK    3  A    between atoms: C_6  and  C_12
REMARK    4  A    between atoms: C_7  and  C_11
REMARK    5  A    between atoms: C_11  and  C_14
REMARK    6  A    between atoms: C_12  and  C_15
REMARK    7  A    between atoms: C_13  and  C_16
REMARK    8  A    between atoms: C_16  and  C_17
REMARK    9  A    between atoms: C_17  and  C_18
REMARK   10  A    between atoms: C_18  and  C_21
REMARK   11  A    between atoms: C_19  and  C_22
REMARK   12  A    between atoms: C_21  and  C_23
REMARK   13  A    between atoms: C_22  and  C_24
REMARK                            x       y       z     vdW  Elec       q    Type
REMARK                         _______ _______ _______ _____ _____    ______ ____
ROOT
ATOM      1  O   UNL     1      -4.456 -11.487   8.138  0.00  0.00    -0.276 OA
ATOM      3  N   UNL     1      -4.761 -11.634  10.438  0.00  0.00    -0.301 N 
ATOM      6  C   UNL     1      -3.938 -10.523  13.018  0.00  0.00    +0.004 C 
ATOM      7  C   UNL     1      -3.086 -10.352  11.736  0.00  0.00    +0.010 C 
ATOM      8  C   UNL     1      -5.416 -10.707  12.629  0.00  0.00    +0.023 C 
ATOM      9  C   UNL     1      -3.334 -11.488  10.731  0.00  0.00    +0.111 C 
ATOM     10  C   UNL     1      -5.621 -11.827  11.610  0.00  0.00    +0.108 C 
ATOM     13  C   UNL     1      -5.196 -11.651   9.112  0.00  0.00    +0.216 C 
ENDROOT
BRANCH   7  11
ATOM     11  C   UNL     1      -1.592 -10.205  12.024  0.00  0.00    +0.002 C 
ATOM     14  C   UNL     1      -0.978  -9.108  11.181  0.00  0.00    +0.004 C 
ENDBRANCH   7  11
BRANCH   6  12
ATOM     12  C   UNL     1      -3.467 -11.660  13.933  0.00  0.00    +0.100 C 
BRANCH  12  15
ATOM      2  O   UNL     1      -2.200 -10.531  15.625  0.00  0.00    -0.276 OA
ATOM      4  N   UNL     1      -4.170 -11.551  16.302  0.00  0.00    -0.304 N 
ATOM     15  C   UNL     1      -3.207 -11.190  15.353  0.00  0.00    +0.216 C 
ATOM     20  C   UNL     1      -5.353 -12.330  15.958  0.00  0.00    +0.132 C 
BRANCH   4  19
ATOM     19  C   UNL     1      -4.063 -11.173  17.709  0.00  0.00    +0.122 C 
BRANCH  19  22
ATOM     22  C   UNL     1      -4.711 -12.193  18.638  0.00  0.00    +0.137 C 
BRANCH  22  24
ATOM      5  N   UNL     1      -6.285 -11.048  20.407  0.00  0.00    -0.197 NA
ATOM     24  C   UNL     1      -5.592 -11.553  19.626  0.00  0.00    +0.064 C 
ENDBRANCH  22  24
ENDBRANCH  19  22
ENDBRANCH   4  19
ENDBRANCH  12  15
ENDBRANCH   6  12
BRANCH  13  16
ATOM     16  C   UNL     1      -6.668 -11.885   8.885  0.00  0.00    +0.096 C 
BRANCH  16  17
ATOM     17  C   UNL     1      -7.457 -10.614   9.156  0.00  0.00    +0.009 C 
BRANCH  17  18
ATOM     18  C   UNL     1      -7.099  -9.478   8.193  0.00  0.00    +0.000 C 
BRANCH  18  21
ATOM     21  C   UNL     1      -6.855  -8.170   8.946  0.00  0.00    -0.003 C 
ATOM     23  C   UNL     1      -5.570  -8.224   9.758  0.00  0.00    +0.004 C 
ENDBRANCH  18  21
ENDBRANCH  17  18
ENDBRANCH  16  17
ENDBRANCH  13  16
TORSDOF 10
ENDMDL
MODEL 10
REMARK VINA RESULT:      -4.6      3.199      6.901
REMARK  Name = 7673425
REMARK  13 active torsions:
REMARK  status: ('A' for Active; 'I' for Inactive)
REMARK    1  A    between atoms: N_4  and  C_19
REMARK    2  A    between atoms: N_4  and  C_20
REMARK    3  A    between atoms: C_6  and  C_12
REMARK    4  A    between atoms: C_7  and  C_11
REMARK    5  A    between atoms: C_11  and  C_14
REMARK    6  A    between atoms: C_12  and  C_15
REMARK    7  A    between atoms: C_13  and  C_16
REMARK    8  A    between atoms: C_16  and  C_17
REMARK    9  A    between atoms: C_17  and  C_18
REMARK   10  A    between atoms: C_18  and  C_21
REMARK   11  A    between atoms: C_19  and  C_22
REMARK   12  A    between atoms: C_21  and  C_23
REMARK   13  A    between atoms: C_22  and  C_24
REMARK                            x       y       z     vdW  Elec       q    Type
REMARK                         _______ _______ _______ _____ _____    ______ ____
ROOT
ATOM      1  O   UNL     1      -3.921 -11.833  19.302  0.00  0.00    -0.276 OA
ATOM      3  N   UNL     1      -4.727 -10.965  17.302  0.00  0.00    -0.301 N 
ATOM      6  C   UNL     1      -5.029 -11.487  14.438  0.00  0.00    +0.004 C 
ATOM      7  C   UNL     1      -3.995 -12.242  15.310  0.00  0.00    +0.010 C 
ATOM      8  C   UNL     1      -6.198 -11.018  15.322  0.00  0.00    +0.023 C 
ATOM      9  C   UNL     1      -3.566 -11.413  16.530  0.00  0.00    +0.111 C 
ATOM     10  C   UNL     1      -5.732 -10.219  16.538  0.00  0.00    +0.108 C 
ATOM     13  C   UNL     1      -4.776 -11.203  18.677  0.00  0.00    +0.216 C 
ENDROOT
BRANCH   7  11
ATOM     11  C   UNL     1      -2.773 -12.711  14.521  0.00  0.00    +0.002 C 
ATOM     14  C   UNL     1      -3.144 -13.797  13.533  0.00  0.00    +0.004 C 
ENDBRANCH   7  11
BRANCH   6  12
ATOM     12  C   UNL     1      -4.438 -10.316  13.644  0.00  0.00    +0.100 C 
BRANCH  12  15
ATOM      2  O   UNL     1      -5.939 -10.467  11.781  0.00  0.00    -0.276 OA
ATOM      4  N   UNL     1      -3.673 -10.382  11.292  0.00  0.00    -0.304 N 
ATOM     15  C   UNL     1      -4.767 -10.396  12.164  0.00  0.00    +0.216 C 
ATOM     20  C   UNL     1      -2.297 -10.297  11.766  0.00  0.00    +0.132 C 
BRANCH   4  19
ATOM     19  C   UNL     1      -3.827 -10.450   9.841  0.00  0.00    +0.122 C 
BRANCH  19  22
ATOM     22  C   UNL     1      -4.082  -9.084   9.217  0.00  0.00    +0.137 C 
BRANCH  22  24
ATOM      5  N   UNL     1      -6.591  -8.798   8.481  0.00  0.00    -0.197 NA
ATOM     24  C   UNL     1      -5.484  -8.923   8.804  0.00  0.00    +0.064 C 
ENDBRANCH  22  24
ENDBRANCH  19  22
ENDBRANCH   4  19
ENDBRANCH  12  15
ENDBRANCH   6  12
BRANCH  13  16
ATOM     16  C   UNL     1      -5.964 -10.643  19.418  0.00  0.00    +0.096 C 
BRANCH  16  17
ATOM     17  C   UNL     1      -6.974 -11.741  19.713  0.00  0.00    +0.009 C 
BRANCH  17  18
ATOM     18  C   UNL     1      -8.371 -11.420  19.176  0.00  0.00    +0.000 C 
BRANCH  18  21
ATOM     21  C   UNL     1      -8.650 -12.172  17.874  0.00  0.00    -0.003 C 
ATOM     23  C   UNL     1      -7.772 -13.408  17.746  0.00  0.00    +0.004 C 
ENDBRANCH  18  21
ENDBRANCH  17  18
ENDBRANCH  16  17
ENDBRANCH  13  16
TORSDOF 10
ENDMDL
