MODEL 1
REMARK VINA RESULT:      -7.2      0.000      0.000
REMARK  Name = 11912492
REMARK  5 active torsions:
REMARK  status: ('A' for Active; 'I' for Inactive)
REMARK    1  A    between atoms: O_3  and  C_13
REMARK    2  A    between atoms: O_3  and  C_22
REMARK    3  A    between atoms: N_6  and  C_12
REMARK    4  A    between atoms: N_7  and  C_16
REMARK    5  A    between atoms: C_24  and  C_27
REMARK                            x       y       z     vdW  Elec       q    Type
REMARK                         _______ _______ _______ _____ _____    ______ ____
ROOT
ATOM      1  O   UNL     1      17.677   8.262  21.527  0.00  0.00    -0.368 OA
ATOM      2  O   UNL     1      17.522   5.940  19.527  0.00  0.00    -0.368 OA
ATOM     10  C   UNL     1      16.705   6.277  20.668  0.00  0.00    +0.173 C 
ATOM     11  C   UNL     1      17.637   6.840  21.724  0.00  0.00    +0.192 C 
ATOM     12  C   UNL     1      15.795   7.434  20.329  0.00  0.00    +0.130 C 
ATOM     13  C   UNL     1      18.954   6.188  21.379  0.00  0.00    +0.235 C 
ATOM     14  C   UNL     1      16.704   8.633  20.538  0.00  0.00    +0.185 C 
ATOM     15  C   UNL     1      18.901   6.145  19.868  0.00  0.00    +0.207 C 
ENDROOT
BRANCH  12   6
ATOM      6  N   UNL     1      14.680   7.483  21.251  0.00  0.00    -0.306 N 
ATOM      8  N   UNL     1      13.174   8.115  19.566  0.00  0.00    -0.211 NA
ATOM      9  N   UNL     1      12.436   7.823  21.841  0.00  0.00    -0.223 NA
ATOM     23  C   UNL     1      13.391   7.817  20.875  0.00  0.00    +0.216 A 
ATOM     24  C   UNL     1      11.905   8.436  19.235  0.00  0.00    +0.111 A 
ATOM     25  C   UNL     1      11.190   8.153  21.441  0.00  0.00    +0.116 A 
ATOM     26  C   UNL     1      10.862   8.471  20.139  0.00  0.00    +0.051 A 
ATOM     31  H   UNL     1      14.820   7.212  22.217  0.00  0.00    +0.149 HD
BRANCH  24  27
ATOM      5  O   UNL     1      10.497   8.397  17.339  0.00  0.00    -0.461 OA
ATOM     27  C   UNL     1      11.707   8.747  17.845  0.00  0.00    +0.153 A 
ATOM     28  C   UNL     1      12.486   9.337  16.880  0.00  0.00    +0.051 A 
ATOM     29  C   UNL     1      11.704   9.350  15.700  0.00  0.00    +0.042 A 
ATOM     30  C   UNL     1      10.503   8.767  16.031  0.00  0.00    +0.196 A 
ENDBRANCH  24  27
ENDBRANCH  12   6
BRANCH  13   3
ATOM      3  O   UNL     1      20.074   6.902  21.850  0.00  0.00    -0.442 OA
BRANCH   3  22
ATOM      4  O   UNL     1      20.757   6.140  23.905  0.00  0.00    -0.226 OA
ATOM      7  N   UNL     1      21.977   5.682  21.985  0.00  0.00    -0.278 N 
ATOM     22  C   UNL     1      20.928   6.229  22.693  0.00  0.00    +0.401 C 
ATOM     32  H   UNL     1      22.018   5.873  20.989  0.00  0.00    +0.152 HD
BRANCH   7  16
ATOM     16  C   UNL     1      23.041   4.914  22.592  0.00  0.00    +0.076 C 
ATOM     17  C   UNL     1      22.714   3.416  22.584  0.00  0.00    +0.022 C 
ATOM     18  C   UNL     1      24.383   5.192  21.906  0.00  0.00    +0.022 C 
ATOM     19  C   UNL     1      22.797   2.808  21.184  0.00  0.00    +0.002 C 
ATOM     20  C   UNL     1      24.463   4.581  20.508  0.00  0.00    +0.002 C 
ATOM     21  C   UNL     1      24.144   3.089  20.527  0.00  0.00    +0.000 C 
ENDBRANCH   7  16
ENDBRANCH   3  22
ENDBRANCH  13   3
TORSDOF 5
ENDMDL
MODEL 2
REMARK VINA RESULT:      -7.0     29.625     33.050
REMARK  Name = 11912492
REMARK  5 active torsions:
REMARK  status: ('A' for Active; 'I' for Inactive)
REMARK    1  A    between atoms: O_3  and  C_13
REMARK    2  A    between atoms: O_3  and  C_22
REMARK    3  A    between atoms: N_6  and  C_12
REMARK    4  A    between atoms: N_7  and  C_16
REMARK    5  A    between atoms: C_24  and  C_27
REMARK                            x       y       z     vdW  Elec       q    Type
REMARK                         _______ _______ _______ _____ _____    ______ ____
ROOT
ATOM      1  O   UNL     1     -15.046   3.712  24.490  0.00  0.00    -0.368 OA
ATOM      2  O   UNL     1     -17.568   3.483  22.757  0.00  0.00    -0.368 OA
ATOM     10  C   UNL     1     -17.100   4.530  23.633  0.00  0.00    +0.173 C 
ATOM     11  C   UNL     1     -16.438   3.850  24.815  0.00  0.00    +0.192 C 
ATOM     12  C   UNL     1     -15.976   5.293  22.973  0.00  0.00    +0.130 C 
ATOM     13  C   UNL     1     -17.139   2.514  24.858  0.00  0.00    +0.235 C 
ATOM     14  C   UNL     1     -14.773   4.414  23.267  0.00  0.00    +0.185 C 
ATOM     15  C   UNL     1     -17.344   2.215  23.389  0.00  0.00    +0.207 C 
ENDROOT
BRANCH  12   6
ATOM      6  N   UNL     1     -15.815   6.589  23.597  0.00  0.00    -0.306 N 
ATOM      8  N   UNL     1     -14.277   7.301  21.974  0.00  0.00    -0.211 NA
ATOM      9  N   UNL     1     -14.924   8.751  23.786  0.00  0.00    -0.223 NA
ATOM     23  C   UNL     1     -14.980   7.577  23.104  0.00  0.00    +0.216 A 
ATOM     24  C   UNL     1     -13.473   8.286  21.522  0.00  0.00    +0.111 A 
ATOM     25  C   UNL     1     -14.100   9.692  23.279  0.00  0.00    +0.116 A 
ATOM     26  C   UNL     1     -13.343   9.514  22.139  0.00  0.00    +0.051 A 
ATOM     31  H   UNL     1     -16.373   6.824  24.409  0.00  0.00    +0.149 HD
BRANCH  24  27
ATOM      5  O   UNL     1     -13.295   8.410  19.170  0.00  0.00    -0.461 OA
ATOM     27  C   UNL     1     -12.741   7.964  20.325  0.00  0.00    +0.153 A 
ATOM     28  C   UNL     1     -11.572   7.288  20.076  0.00  0.00    +0.051 A 
ATOM     29  C   UNL     1     -11.394   7.318  18.672  0.00  0.00    +0.042 A 
ATOM     30  C   UNL     1     -12.469   8.011  18.166  0.00  0.00    +0.196 A 
ENDBRANCH  24  27
ENDBRANCH  12   6
BRANCH  13   3
ATOM      3  O   UNL     1     -16.392   1.508  25.504  0.00  0.00    -0.442 OA
BRANCH   3  22
ATOM      4  O   UNL     1     -17.684   0.232  26.909  0.00  0.00    -0.226 OA
ATOM      7  N   UNL     1     -16.203   1.812  27.740  0.00  0.00    -0.278 N 
ATOM     22  C   UNL     1     -16.838   1.104  26.742  0.00  0.00    +0.401 C 
ATOM     32  H   UNL     1     -15.554   2.539  27.457  0.00  0.00    +0.152 HD
BRANCH   7  16
ATOM     16  C   UNL     1     -16.457   1.615  29.150  0.00  0.00    +0.076 C 
ATOM     17  C   UNL     1     -15.448   0.637  29.761  0.00  0.00    +0.022 C 
ATOM     18  C   UNL     1     -16.461   2.950  29.901  0.00  0.00    +0.022 C 
ATOM     19  C   UNL     1     -14.051   1.243  29.889  0.00  0.00    +0.002 C 
ATOM     20  C   UNL     1     -15.063   3.553  30.030  0.00  0.00    +0.002 C 
ATOM     21  C   UNL     1     -14.078   2.565  30.650  0.00  0.00    +0.000 C 
ENDBRANCH   7  16
ENDBRANCH   3  22
ENDBRANCH  13   3
TORSDOF 5
ENDMDL
MODEL 3
REMARK VINA RESULT:      -6.8     27.357     30.734
REMARK  Name = 11912492
REMARK  5 active torsions:
REMARK  status: ('A' for Active; 'I' for Inactive)
REMARK    1  A    between atoms: O_3  and  C_13
REMARK    2  A    between atoms: O_3  and  C_22
REMARK    3  A    between atoms: N_6  and  C_12
REMARK    4  A    between atoms: N_7  and  C_16
REMARK    5  A    between atoms: C_24  and  C_27
REMARK                            x       y       z     vdW  Elec       q    Type
REMARK                         _______ _______ _______ _____ _____    ______ ____
ROOT
ATOM      1  O   UNL     1      -4.735 -11.472  19.124  0.00  0.00    -0.368 OA
ATOM      2  O   UNL     1      -6.532 -10.643  16.780  0.00  0.00    -0.368 OA
ATOM     10  C   UNL     1      -6.461 -11.863  17.547  0.00  0.00    +0.173 C 
ATOM     11  C   UNL     1      -4.997 -12.101  17.860  0.00  0.00    +0.192 C 
ATOM     12  C   UNL     1      -7.096 -11.659  18.903  0.00  0.00    +0.130 C 
ATOM     13  C   UNL     1      -4.301 -11.390  16.725  0.00  0.00    +0.235 C 
ATOM     14  C   UNL     1      -5.971 -11.014  19.693  0.00  0.00    +0.185 C 
ATOM     15  C   UNL     1      -5.199 -10.193  16.501  0.00  0.00    +0.207 C 
ENDROOT
BRANCH  12   6
ATOM      6  N   UNL     1      -7.454 -12.934  19.487  0.00  0.00    -0.306 N 
ATOM      8  N   UNL     1      -9.632 -12.219  19.987  0.00  0.00    -0.211 NA
ATOM      9  N   UNL     1      -8.905 -14.450  20.536  0.00  0.00    -0.223 NA
ATOM     23  C   UNL     1      -8.701 -13.209  20.020  0.00  0.00    +0.216 A 
ATOM     24  C   UNL     1     -10.837 -12.522  20.514  0.00  0.00    +0.111 A 
ATOM     25  C   UNL     1     -10.132 -14.684  21.046  0.00  0.00    +0.116 A 
ATOM     26  C   UNL     1     -11.147 -13.750  21.063  0.00  0.00    +0.051 A 
ATOM     31  H   UNL     1      -6.785 -13.695  19.469  0.00  0.00    +0.149 HD
BRANCH  24  27
ATOM      5  O   UNL     1     -12.982 -11.711  21.082  0.00  0.00    -0.461 OA
ATOM     27  C   UNL     1     -11.800 -11.454  20.467  0.00  0.00    +0.153 A 
ATOM     28  C   UNL     1     -11.798 -10.192  19.924  0.00  0.00    +0.051 A 
ATOM     29  C   UNL     1     -13.064  -9.635  20.224  0.00  0.00    +0.042 A 
ATOM     30  C   UNL     1     -13.747 -10.598  20.930  0.00  0.00    +0.196 A 
ENDBRANCH  24  27
ENDBRANCH  12   6
BRANCH  13   3
ATOM      3  O   UNL     1      -2.977 -11.010  17.027  0.00  0.00    -0.442 OA
BRANCH   3  22
ATOM      4  O   UNL     1      -1.203 -10.160  15.844  0.00  0.00    -0.226 OA
ATOM      7  N   UNL     1      -2.316 -12.069  15.137  0.00  0.00    -0.278 N 
ATOM     22  C   UNL     1      -2.081 -11.005  15.982  0.00  0.00    +0.401 C 
ATOM     32  H   UNL     1      -3.108 -12.667  15.349  0.00  0.00    +0.152 HD
BRANCH   7  16
ATOM     16  C   UNL     1      -1.539 -12.335  13.947  0.00  0.00    +0.076 C 
ATOM     17  C   UNL     1      -1.565 -13.826  13.594  0.00  0.00    +0.022 C 
ATOM     18  C   UNL     1      -2.020 -11.478  12.772  0.00  0.00    +0.022 C 
ATOM     19  C   UNL     1      -2.923 -14.276  13.055  0.00  0.00    +0.002 C 
ATOM     20  C   UNL     1      -3.377 -11.931  12.234  0.00  0.00    +0.002 C 
ATOM     21  C   UNL     1      -3.375 -13.415  11.880  0.00  0.00    +0.000 C 
ENDBRANCH   7  16
ENDBRANCH   3  22
ENDBRANCH  13   3
TORSDOF 5
ENDMDL
MODEL 4
REMARK VINA RESULT:      -6.8     29.715     31.828
REMARK  Name = 11912492
REMARK  5 active torsions:
REMARK  status: ('A' for Active; 'I' for Inactive)
REMARK    1  A    between atoms: O_3  and  C_13
REMARK    2  A    between atoms: O_3  and  C_22
REMARK    3  A    between atoms: N_6  and  C_12
REMARK    4  A    between atoms: N_7  and  C_16
REMARK    5  A    between atoms: C_24  and  C_27
REMARK                            x       y       z     vdW  Elec       q    Type
REMARK                         _______ _______ _______ _____ _____    ______ ____
ROOT
ATOM      1  O   UNL     1     -10.773  -7.027  16.961  0.00  0.00    -0.368 OA
ATOM      2  O   UNL     1     -10.947  -9.332  14.943  0.00  0.00    -0.368 OA
ATOM     10  C   UNL     1     -11.918  -8.350  15.361  0.00  0.00    +0.173 C 
ATOM     11  C   UNL     1     -11.699  -8.119  16.843  0.00  0.00    +0.192 C 
ATOM     12  C   UNL     1     -11.606  -7.013  14.732  0.00  0.00    +0.130 C 
ATOM     13  C   UNL     1     -11.087  -9.424  17.290  0.00  0.00    +0.235 C 
ATOM     14  C   UNL     1     -10.542  -6.458  15.663  0.00  0.00    +0.185 C 
ATOM     15  C   UNL     1     -10.237  -9.802  16.097  0.00  0.00    +0.207 C 
ENDROOT
BRANCH  12   6
ATOM      6  N   UNL     1     -12.778  -6.164  14.747  0.00  0.00    -0.306 N 
ATOM      8  N   UNL     1     -12.306  -5.287  12.623  0.00  0.00    -0.211 NA
ATOM      9  N   UNL     1     -14.252  -4.574  13.852  0.00  0.00    -0.223 NA
ATOM     23  C   UNL     1     -13.123  -5.316  13.709  0.00  0.00    +0.216 A 
ATOM     24  C   UNL     1     -12.673  -4.449  11.630  0.00  0.00    +0.111 A 
ATOM     25  C   UNL     1     -14.559  -3.758  12.822  0.00  0.00    +0.116 A 
ATOM     26  C   UNL     1     -13.799  -3.653  11.674  0.00  0.00    +0.051 A 
ATOM     31  H   UNL     1     -13.421  -6.217  15.528  0.00  0.00    +0.149 HD
BRANCH  24  27
ATOM      5  O   UNL     1     -11.385  -5.660  10.063  0.00  0.00    -0.461 OA
ATOM     27  C   UNL     1     -11.789  -4.439  10.494  0.00  0.00    +0.153 A 
ATOM     28  C   UNL     1     -11.242  -3.444   9.721  0.00  0.00    +0.051 A 
ATOM     29  C   UNL     1     -10.447  -4.096   8.749  0.00  0.00    +0.042 A 
ATOM     30  C   UNL     1     -10.568  -5.443   8.999  0.00  0.00    +0.196 A 
ENDBRANCH  24  27
ENDBRANCH  12   6
BRANCH  13   3
ATOM      3  O   UNL     1     -10.324  -9.312  18.470  0.00  0.00    -0.442 OA
BRANCH   3  22
ATOM      4  O   UNL     1     -10.511 -11.394  19.419  0.00  0.00    -0.226 OA
ATOM      7  N   UNL     1      -8.436 -10.463  18.959  0.00  0.00    -0.278 N 
ATOM     22  C   UNL     1      -9.815 -10.479  18.992  0.00  0.00    +0.401 C 
ATOM     32  H   UNL     1      -7.987  -9.619  18.619  0.00  0.00    +0.152 HD
BRANCH   7  16
ATOM     16  C   UNL     1      -7.610 -11.548  19.438  0.00  0.00    +0.076 C 
ATOM     17  C   UNL     1      -7.494 -12.658  18.386  0.00  0.00    +0.022 C 
ATOM     18  C   UNL     1      -6.228 -11.042  19.865  0.00  0.00    +0.022 C 
ATOM     19  C   UNL     1      -6.625 -12.248  17.198  0.00  0.00    +0.002 C 
ATOM     20  C   UNL     1      -5.360 -10.636  18.674  0.00  0.00    +0.002 C 
ATOM     21  C   UNL     1      -5.251 -11.759  17.647  0.00  0.00    +0.000 C 
ENDBRANCH   7  16
ENDBRANCH   3  22
ENDBRANCH  13   3
TORSDOF 5
ENDMDL
MODEL 5
REMARK VINA RESULT:      -6.8     28.765     32.684
REMARK  Name = 11912492
REMARK  5 active torsions:
REMARK  status: ('A' for Active; 'I' for Inactive)
REMARK    1  A    between atoms: O_3  and  C_13
REMARK    2  A    between atoms: O_3  and  C_22
REMARK    3  A    between atoms: N_6  and  C_12
REMARK    4  A    between atoms: N_7  and  C_16
REMARK    5  A    between atoms: C_24  and  C_27
REMARK                            x       y       z     vdW  Elec       q    Type
REMARK                         _______ _______ _______ _____ _____    ______ ____
ROOT
ATOM      1  O   UNL     1     -13.942   4.960  21.949  0.00  0.00    -0.368 OA
ATOM      2  O   UNL     1     -15.739   7.043  23.308  0.00  0.00    -0.368 OA
ATOM     10  C   UNL     1     -15.968   5.661  22.962  0.00  0.00    +0.173 C 
ATOM     11  C   UNL     1     -15.268   5.417  21.639  0.00  0.00    +0.192 C 
ATOM     12  C   UNL     1     -15.243   4.757  23.931  0.00  0.00    +0.130 C 
ATOM     13  C   UNL     1     -15.255   6.793  21.019  0.00  0.00    +0.235 C 
ATOM     14  C   UNL     1     -13.835   4.738  23.364  0.00  0.00    +0.185 C 
ATOM     15  C   UNL     1     -15.053   7.684  22.224  0.00  0.00    +0.207 C 
ENDROOT
BRANCH  12   6
ATOM      6  N   UNL     1     -15.814   3.427  23.902  0.00  0.00    -0.306 N 
ATOM      8  N   UNL     1     -15.844   3.269  26.243  0.00  0.00    -0.211 NA
ATOM      9  N   UNL     1     -16.646   1.459  24.869  0.00  0.00    -0.223 NA
ATOM     23  C   UNL     1     -16.110   2.696  25.039  0.00  0.00    +0.216 A 
ATOM     24  C   UNL     1     -16.145   2.528  27.330  0.00  0.00    +0.111 A 
ATOM     25  C   UNL     1     -16.922   0.773  25.998  0.00  0.00    +0.116 A 
ATOM     26  C   UNL     1     -16.692   1.262  27.268  0.00  0.00    +0.051 A 
ATOM     31  H   UNL     1     -16.065   3.012  23.012  0.00  0.00    +0.149 HD
BRANCH  24  27
ATOM      5  O   UNL     1     -15.062   2.442  29.427  0.00  0.00    -0.461 OA
ATOM     27  C   UNL     1     -15.851   3.160  28.589  0.00  0.00    +0.153 A 
ATOM     28  C   UNL     1     -16.196   4.362  29.155  0.00  0.00    +0.051 A 
ATOM     29  C   UNL     1     -15.580   4.386  30.429  0.00  0.00    +0.042 A 
ATOM     30  C   UNL     1     -14.901   3.196  30.547  0.00  0.00    +0.196 A 
ENDBRANCH  24  27
ENDBRANCH  12   6
BRANCH  13   3
ATOM      3  O   UNL     1     -14.240   6.966  20.056  0.00  0.00    -0.442 OA
BRANCH   3  22
ATOM      4  O   UNL     1     -15.239   8.700  18.930  0.00  0.00    -0.226 OA
ATOM      7  N   UNL     1     -12.944   8.649  19.270  0.00  0.00    -0.278 N 
ATOM     22  C   UNL     1     -14.230   8.161  19.374  0.00  0.00    +0.401 C 
ATOM     32  H   UNL     1     -12.196   8.075  19.645  0.00  0.00    +0.152 HD
BRANCH   7  16
ATOM     16  C   UNL     1     -12.608   9.889  18.608  0.00  0.00    +0.076 C 
ATOM     17  C   UNL     1     -11.327  10.495  19.191  0.00  0.00    +0.022 C 
ATOM     18  C   UNL     1     -12.488   9.690  17.093  0.00  0.00    +0.022 C 
ATOM     19  C   UNL     1     -10.076   9.709  18.798  0.00  0.00    +0.002 C 
ATOM     20  C   UNL     1     -11.236   8.905  16.703  0.00  0.00    +0.002 C 
ATOM     21  C   UNL     1      -9.974   9.533  17.286  0.00  0.00    +0.000 C 
ENDBRANCH   7  16
ENDBRANCH   3  22
ENDBRANCH  13   3
TORSDOF 5
ENDMDL
MODEL 6
REMARK VINA RESULT:      -6.7     27.840     32.415
REMARK  Name = 11912492
REMARK  5 active torsions:
REMARK  status: ('A' for Active; 'I' for Inactive)
REMARK    1  A    between atoms: O_3  and  C_13
REMARK    2  A    between atoms: O_3  and  C_22
REMARK    3  A    between atoms: N_6  and  C_12
REMARK    4  A    between atoms: N_7  and  C_16
REMARK    5  A    between atoms: C_24  and  C_27
REMARK                            x       y       z     vdW  Elec       q    Type
REMARK                         _______ _______ _______ _____ _____    ______ ____
ROOT
ATOM      1  O   UNL     1     -11.028  -9.683  16.312  0.00  0.00    -0.368 OA
ATOM      2  O   UNL     1      -9.729  -6.931  15.920  0.00  0.00    -0.368 OA
ATOM     10  C   UNL     1      -9.769  -7.818  17.058  0.00  0.00    +0.173 C 
ATOM     11  C   UNL     1     -11.140  -8.464  17.063  0.00  0.00    +0.192 C 
ATOM     12  C   UNL     1      -8.820  -8.974  16.845  0.00  0.00    +0.130 C 
ATOM     13  C   UNL     1     -11.987  -7.440  16.347  0.00  0.00    +0.235 C 
ATOM     14  C   UNL     1      -9.648  -9.919  15.992  0.00  0.00    +0.185 C 
ATOM     15  C   UNL     1     -11.027  -6.903  15.309  0.00  0.00    +0.207 C 
ENDROOT
BRANCH  12   6
ATOM      6  N   UNL     1      -8.494  -9.596  18.111  0.00  0.00    -0.306 N 
ATOM      8  N   UNL     1      -6.343 -10.191  17.389  0.00  0.00    -0.211 NA
ATOM      9  N   UNL     1      -7.099 -10.739  19.611  0.00  0.00    -0.223 NA
ATOM     23  C   UNL     1      -7.275 -10.194  18.378  0.00  0.00    +0.216 A 
ATOM     24  C   UNL     1      -5.166 -10.783  17.685  0.00  0.00    +0.111 A 
ATOM     25  C   UNL     1      -5.900 -11.314  19.838  0.00  0.00    +0.116 A 
ATOM     26  C   UNL     1      -4.885 -11.366  18.904  0.00  0.00    +0.051 A 
ATOM     31  H   UNL     1      -9.162  -9.557  18.872  0.00  0.00    +0.149 HD
BRANCH  24  27
ATOM      5  O   UNL     1      -4.719 -10.730  15.366  0.00  0.00    -0.461 OA
ATOM     27  C   UNL     1      -4.199 -10.766  16.619  0.00  0.00    +0.153 A 
ATOM     28  C   UNL     1      -2.827 -10.778  16.577  0.00  0.00    +0.051 A 
ATOM     29  C   UNL     1      -2.477 -10.749  15.206  0.00  0.00    +0.042 A 
ATOM     30  C   UNL     1      -3.663 -10.720  14.510  0.00  0.00    +0.196 A 
ENDBRANCH  24  27
ENDBRANCH  12   6
BRANCH  13   3
ATOM      3  O   UNL     1     -13.151  -7.981  15.764  0.00  0.00    -0.442 OA
BRANCH   3  22
ATOM      4  O   UNL     1     -12.853  -8.835  13.654  0.00  0.00    -0.226 OA
ATOM      7  N   UNL     1     -13.803  -6.745  13.983  0.00  0.00    -0.278 N 
ATOM     22  C   UNL     1     -13.236  -7.933  14.392  0.00  0.00    +0.401 C 
ATOM     32  H   UNL     1     -14.033  -6.066  14.702  0.00  0.00    +0.152 HD
BRANCH   7  16
ATOM     16  C   UNL     1     -14.027  -6.397  12.598  0.00  0.00    +0.076 C 
ATOM     17  C   UNL     1     -15.180  -5.396  12.460  0.00  0.00    +0.022 C 
ATOM     18  C   UNL     1     -12.746  -5.860  11.950  0.00  0.00    +0.022 C 
ATOM     19  C   UNL     1     -14.807  -4.002  12.962  0.00  0.00    +0.002 C 
ATOM     20  C   UNL     1     -12.377  -4.465  12.453  0.00  0.00    +0.002 C 
ATOM     21  C   UNL     1     -13.536  -3.485  12.296  0.00  0.00    +0.000 C 
ENDBRANCH   7  16
ENDBRANCH   3  22
ENDBRANCH  13   3
TORSDOF 5
ENDMDL
MODEL 7
REMARK VINA RESULT:      -6.7     27.014     29.610
REMARK  Name = 11912492
REMARK  5 active torsions:
REMARK  status: ('A' for Active; 'I' for Inactive)
REMARK    1  A    between atoms: O_3  and  C_13
REMARK    2  A    between atoms: O_3  and  C_22
REMARK    3  A    between atoms: N_6  and  C_12
REMARK    4  A    between atoms: N_7  and  C_16
REMARK    5  A    between atoms: C_24  and  C_27
REMARK                            x       y       z     vdW  Elec       q    Type
REMARK                         _______ _______ _______ _____ _____    ______ ____
ROOT
ATOM      1  O   UNL     1      -2.266 -10.107  12.523  0.00  0.00    -0.368 OA
ATOM      2  O   UNL     1      -3.124 -12.873  11.509  0.00  0.00    -0.368 OA
ATOM     10  C   UNL     1      -3.874 -11.661  11.735  0.00  0.00    +0.173 C 
ATOM     11  C   UNL     1      -3.290 -11.007  12.972  0.00  0.00    +0.192 C 
ATOM     12  C   UNL     1      -3.596 -10.667  10.632  0.00  0.00    +0.130 C 
ATOM     13  C   UNL     1      -2.713 -12.184  13.721  0.00  0.00    +0.235 C 
ATOM     14  C   UNL     1      -2.296 -10.030  11.090  0.00  0.00    +0.185 C 
ATOM     15  C   UNL     1      -2.208 -13.060  12.597  0.00  0.00    +0.207 C 
ENDROOT
BRANCH  12   6
ATOM      6  N   UNL     1      -4.648  -9.674  10.573  0.00  0.00    -0.306 N 
ATOM      8  N   UNL     1      -5.163 -10.192   8.343  0.00  0.00    -0.211 NA
ATOM      9  N   UNL     1      -6.376  -8.480   9.528  0.00  0.00    -0.223 NA
ATOM     23  C   UNL     1      -5.419  -9.442   9.447  0.00  0.00    +0.216 A 
ATOM     24  C   UNL     1      -5.934  -9.939   7.264  0.00  0.00    +0.111 A 
ATOM     25  C   UNL     1      -7.109  -8.279   8.414  0.00  0.00    +0.116 A 
ATOM     26  C   UNL     1      -6.932  -8.986   7.241  0.00  0.00    +0.051 A 
ATOM     31  H   UNL     1      -4.882  -9.147  11.406  0.00  0.00    +0.149 HD
BRANCH  24  27
ATOM      5  O   UNL     1      -4.462 -11.421   6.161  0.00  0.00    -0.461 OA
ATOM     27  C   UNL     1      -5.639 -10.747   6.111  0.00  0.00    +0.153 A 
ATOM     28  C   UNL     1      -6.297 -11.003   4.933  0.00  0.00    +0.051 A 
ATOM     29  C   UNL     1      -5.470 -11.892   4.207  0.00  0.00    +0.042 A 
ATOM     30  C   UNL     1      -4.366 -12.116   4.996  0.00  0.00    +0.196 A 
ENDBRANCH  24  27
ENDBRANCH  12   6
BRANCH  13   3
ATOM      3  O   UNL     1      -1.687 -11.829  14.620  0.00  0.00    -0.442 OA
BRANCH   3  22
ATOM      4  O   UNL     1      -1.481  -9.984  15.970  0.00  0.00    -0.226 OA
ATOM      7  N   UNL     1      -3.105 -11.592  16.369  0.00  0.00    -0.278 N 
ATOM     22  C   UNL     1      -2.044 -11.036  15.686  0.00  0.00    +0.401 C 
ATOM     32  H   UNL     1      -3.445 -12.493  16.050  0.00  0.00    +0.152 HD
BRANCH   7  16
ATOM     16  C   UNL     1      -3.709 -10.993  17.539  0.00  0.00    +0.076 C 
ATOM     17  C   UNL     1      -4.931 -10.150  17.158  0.00  0.00    +0.022 C 
ATOM     18  C   UNL     1      -4.071 -12.058  18.579  0.00  0.00    +0.022 C 
ATOM     19  C   UNL     1      -6.122 -11.008  16.731  0.00  0.00    +0.002 C 
ATOM     20  C   UNL     1      -5.263 -12.912  18.150  0.00  0.00    +0.002 C 
ATOM     21  C   UNL     1      -6.471 -12.053  17.786  0.00  0.00    +0.000 C 
ENDBRANCH   7  16
ENDBRANCH   3  22
ENDBRANCH  13   3
TORSDOF 5
ENDMDL
MODEL 8
REMARK VINA RESULT:      -6.5      2.040      2.339
REMARK  Name = 11912492
REMARK  5 active torsions:
REMARK  status: ('A' for Active; 'I' for Inactive)
REMARK    1  A    between atoms: O_3  and  C_13
REMARK    2  A    between atoms: O_3  and  C_22
REMARK    3  A    between atoms: N_6  and  C_12
REMARK    4  A    between atoms: N_7  and  C_16
REMARK    5  A    between atoms: C_24  and  C_27
REMARK                            x       y       z     vdW  Elec       q    Type
REMARK                         _______ _______ _______ _____ _____    ______ ____
ROOT
ATOM      1  O   UNL     1      19.912   8.162  22.642  0.00  0.00    -0.368 OA
ATOM      2  O   UNL     1      19.483   6.340  20.211  0.00  0.00    -0.368 OA
ATOM     10  C   UNL     1      18.625   6.670  21.324  0.00  0.00    +0.173 C 
ATOM     11  C   UNL     1      19.515   6.786  22.546  0.00  0.00    +0.192 C 
ATOM     12  C   UNL     1      18.063   8.061  21.149  0.00  0.00    +0.130 C 
ATOM     13  C   UNL     1      20.677   5.891  22.189  0.00  0.00    +0.235 C 
ATOM     14  C   UNL     1      19.191   8.934  21.670  0.00  0.00    +0.185 C 
ATOM     15  C   UNL     1      20.815   6.126  20.701  0.00  0.00    +0.207 C 
ENDROOT
BRANCH  12   6
ATOM      6  N   UNL     1      16.879   8.231  21.964  0.00  0.00    -0.306 N 
ATOM      8  N   UNL     1      15.542   8.756  20.108  0.00  0.00    -0.211 NA
ATOM      9  N   UNL     1      14.609   8.697  22.329  0.00  0.00    -0.223 NA
ATOM     23  C   UNL     1      15.639   8.572  21.452  0.00  0.00    +0.216 A 
ATOM     24  C   UNL     1      14.319   9.087  19.644  0.00  0.00    +0.111 A 
ATOM     25  C   UNL     1      13.415   9.030  21.797  0.00  0.00    +0.116 A 
ATOM     26  C   UNL     1      13.208   9.239  20.448  0.00  0.00    +0.051 A 
ATOM     31  H   UNL     1      16.928   8.045  22.959  0.00  0.00    +0.149 HD
BRANCH  24  27
ATOM      5  O   UNL     1      14.152   8.138  17.487  0.00  0.00    -0.461 OA
ATOM     27  C   UNL     1      14.248   9.276  18.219  0.00  0.00    +0.153 A 
ATOM     28  C   UNL     1      14.254  10.381  17.403  0.00  0.00    +0.051 A 
ATOM     29  C   UNL     1      14.157   9.891  16.079  0.00  0.00    +0.042 A 
ATOM     30  C   UNL     1      14.097   8.521  16.183  0.00  0.00    +0.196 A 
ENDBRANCH  24  27
ENDBRANCH  12   6
BRANCH  13   3
ATOM      3  O   UNL     1      21.862   6.203  22.886  0.00  0.00    -0.442 OA
BRANCH   3  22
ATOM      4  O   UNL     1      22.173   4.830  24.699  0.00  0.00    -0.226 OA
ATOM      7  N   UNL     1      23.453   4.595  22.779  0.00  0.00    -0.278 N 
ATOM     22  C   UNL     1      22.474   5.172  23.560  0.00  0.00    +0.401 C 
ATOM     32  H   UNL     1      23.628   5.010  21.869  0.00  0.00    +0.152 HD
BRANCH   7  16
ATOM     16  C   UNL     1      24.273   3.485  23.209  0.00  0.00    +0.076 C 
ATOM     17  C   UNL     1      23.657   2.147  22.784  0.00  0.00    +0.022 C 
ATOM     18  C   UNL     1      25.708   3.626  22.689  0.00  0.00    +0.022 C 
ATOM     19  C   UNL     1      23.764   1.907  21.278  0.00  0.00    +0.002 C 
ATOM     20  C   UNL     1      25.811   3.383  21.184  0.00  0.00    +0.002 C 
ATOM     21  C   UNL     1      25.202   2.042  20.786  0.00  0.00    +0.000 C 
ENDBRANCH   7  16
ENDBRANCH   3  22
ENDBRANCH  13   3
TORSDOF 5
ENDMDL
MODEL 9
REMARK VINA RESULT:      -6.5      2.852      9.214
REMARK  Name = 11912492
REMARK  5 active torsions:
REMARK  status: ('A' for Active; 'I' for Inactive)
REMARK    1  A    between atoms: O_3  and  C_13
REMARK    2  A    between atoms: O_3  and  C_22
REMARK    3  A    between atoms: N_6  and  C_12
REMARK    4  A    between atoms: N_7  and  C_16
REMARK    5  A    between atoms: C_24  and  C_27
REMARK                            x       y       z     vdW  Elec       q    Type
REMARK                         _______ _______ _______ _____ _____    ______ ____
ROOT
ATOM      1  O   UNL     1      14.903   7.214  19.621  0.00  0.00    -0.368 OA
ATOM      2  O   UNL     1      14.098   8.650  22.210  0.00  0.00    -0.368 OA
ATOM     10  C   UNL     1      14.985   7.537  21.968  0.00  0.00    +0.173 C 
ATOM     11  C   UNL     1      14.364   6.715  20.855  0.00  0.00    +0.192 C 
ATOM     12  C   UNL     1      16.285   8.030  21.378  0.00  0.00    +0.130 C 
ATOM     13  C   UNL     1      12.895   7.034  20.994  0.00  0.00    +0.235 C 
ATOM     14  C   UNL     1      15.941   8.165  19.905  0.00  0.00    +0.185 C 
ATOM     15  C   UNL     1      12.922   8.489  21.404  0.00  0.00    +0.207 C 
ENDROOT
BRANCH  12   6
ATOM      6  N   UNL     1      17.326   7.041  21.561  0.00  0.00    -0.306 N 
ATOM      8  N   UNL     1      19.030   8.646  21.398  0.00  0.00    -0.211 NA
ATOM      9  N   UNL     1      19.550   6.321  21.756  0.00  0.00    -0.223 NA
ATOM     23  C   UNL     1      18.676   7.345  21.572  0.00  0.00    +0.216 A 
ATOM     24  C   UNL     1      20.355   8.906  21.414  0.00  0.00    +0.111 A 
ATOM     25  C   UNL     1      20.858   6.652  21.760  0.00  0.00    +0.116 A 
ATOM     26  C   UNL     1      21.324   7.940  21.593  0.00  0.00    +0.051 A 
ATOM     31  H   UNL     1      17.072   6.078  21.744  0.00  0.00    +0.149 HD
BRANCH  24  27
ATOM      5  O   UNL     1      21.782  10.719  21.922  0.00  0.00    -0.461 OA
ATOM     27  C   UNL     1      20.698  10.291  21.226  0.00  0.00    +0.153 A 
ATOM     28  C   UNL     1      20.164  11.312  20.479  0.00  0.00    +0.051 A 
ATOM     29  C   UNL     1      20.972  12.446  20.733  0.00  0.00    +0.042 A 
ATOM     30  C   UNL     1      21.942  12.034  21.616  0.00  0.00    +0.196 A 
ENDBRANCH  24  27
ENDBRANCH  12   6
BRANCH  13   3
ATOM      3  O   UNL     1      12.161   6.830  19.808  0.00  0.00    -0.442 OA
BRANCH   3  22
ATOM      4  O   UNL     1      10.566   8.438  19.435  0.00  0.00    -0.226 OA
ATOM      7  N   UNL     1      12.570   8.438  18.266  0.00  0.00    -0.278 N 
ATOM     22  C   UNL     1      11.665   7.953  19.187  0.00  0.00    +0.401 C 
ATOM     32  H   UNL     1      13.425   7.909  18.130  0.00  0.00    +0.152 HD
BRANCH   7  16
ATOM     16  C   UNL     1      12.336   9.609  17.452  0.00  0.00    +0.076 C 
ATOM     17  C   UNL     1      13.198  10.787  17.921  0.00  0.00    +0.022 C 
ATOM     18  C   UNL     1      12.572   9.306  15.969  0.00  0.00    +0.022 C 
ATOM     19  C   UNL     1      14.677  10.599  17.587  0.00  0.00    +0.002 C 
ATOM     20  C   UNL     1      14.052   9.120  15.638  0.00  0.00    +0.002 C 
ATOM     21  C   UNL     1      14.888  10.309  16.105  0.00  0.00    +0.000 C 
ENDBRANCH   7  16
ENDBRANCH   3  22
ENDBRANCH  13   3
TORSDOF 5
ENDMDL
MODEL 10
REMARK VINA RESULT:      -6.5     28.207     30.459
REMARK  Name = 11912492
REMARK  5 active torsions:
REMARK  status: ('A' for Active; 'I' for Inactive)
REMARK    1  A    between atoms: O_3  and  C_13
REMARK    2  A    between atoms: O_3  and  C_22
REMARK    3  A    between atoms: N_6  and  C_12
REMARK    4  A    between atoms: N_7  and  C_16
REMARK    5  A    between atoms: C_24  and  C_27
REMARK                            x       y       z     vdW  Elec       q    Type
REMARK                         _______ _______ _______ _____ _____    ______ ____
ROOT
ATOM      1  O   UNL     1      -6.092 -11.281  14.616  0.00  0.00    -0.368 OA
ATOM      2  O   UNL     1      -4.243 -10.560  16.956  0.00  0.00    -0.368 OA
ATOM     10  C   UNL     1      -5.205  -9.776  16.219  0.00  0.00    +0.173 C 
ATOM     11  C   UNL     1      -5.127 -10.230  14.775  0.00  0.00    +0.192 C 
ATOM     12  C   UNL     1      -6.607 -10.146  16.642  0.00  0.00    +0.130 C 
ATOM     13  C   UNL     1      -3.712 -10.747  14.671  0.00  0.00    +0.235 C 
ATOM     14  C   UNL     1      -6.879 -11.389  15.812  0.00  0.00    +0.185 C 
ATOM     15  C   UNL     1      -3.500 -11.369  16.033  0.00  0.00    +0.207 C 
ENDROOT
BRANCH  12   6
ATOM      6  N   UNL     1      -7.534  -9.093  16.287  0.00  0.00    -0.306 N 
ATOM      8  N   UNL     1      -9.197  -9.922  17.720  0.00  0.00    -0.211 NA
ATOM      9  N   UNL     1      -9.575  -7.942  16.400  0.00  0.00    -0.223 NA
ATOM     23  C   UNL     1      -8.807  -8.982  16.818  0.00  0.00    +0.216 A 
ATOM     24  C   UNL     1     -10.444  -9.784  18.217  0.00  0.00    +0.111 A 
ATOM     25  C   UNL     1     -10.811  -7.864  16.937  0.00  0.00    +0.116 A 
ATOM     26  C   UNL     1     -11.304  -8.765  17.859  0.00  0.00    +0.051 A 
ATOM     31  H   UNL     1      -7.235  -8.358  15.657  0.00  0.00    +0.149 HD
BRANCH  24  27
ATOM      5  O   UNL     1      -9.915 -11.775  19.372  0.00  0.00    -0.461 OA
ATOM     27  C   UNL     1     -10.829 -10.793  19.167  0.00  0.00    +0.153 A 
ATOM     28  C   UNL     1     -11.945 -10.998  19.941  0.00  0.00    +0.051 A 
ATOM     29  C   UNL     1     -11.703 -12.186  20.670  0.00  0.00    +0.042 A 
ATOM     30  C   UNL     1     -10.455 -12.621  20.289  0.00  0.00    +0.196 A 
ENDBRANCH  24  27
ENDBRANCH  12   6
BRANCH  13   3
ATOM      3  O   UNL     1      -3.529 -11.678  13.629  0.00  0.00    -0.442 OA
BRANCH   3  22
ATOM      4  O   UNL     1      -1.765 -10.931  12.362  0.00  0.00    -0.226 OA
ATOM      7  N   UNL     1      -3.903 -11.090  11.474  0.00  0.00    -0.278 N 
ATOM     22  C   UNL     1      -2.956 -11.205  12.470  0.00  0.00    +0.401 C 
ATOM     32  H   UNL     1      -4.864 -11.310  11.715  0.00  0.00    +0.152 HD
BRANCH   7  16
ATOM     16  C   UNL     1      -3.609 -10.620  10.139  0.00  0.00    +0.076 C 
ATOM     17  C   UNL     1      -4.679 -11.082   9.144  0.00  0.00    +0.022 C 
ATOM     18  C   UNL     1      -3.449  -9.096  10.114  0.00  0.00    +0.022 C 
ATOM     19  C   UNL     1      -6.007 -10.348   9.331  0.00  0.00    +0.002 C 
ATOM     20  C   UNL     1      -4.778  -8.365  10.299  0.00  0.00    +0.002 C 
ATOM     21  C   UNL     1      -5.824  -8.834   9.292  0.00  0.00    +0.000 C 
ENDBRANCH   7  16
ENDBRANCH   3  22
ENDBRANCH  13   3
TORSDOF 5
ENDMDL
