REMARK  Name = 75536561
REMARK  9 active torsions:
REMARK  status: ('A' for Active; 'I' for Inactive)
REMARK    1  A    between atoms: O_2  and  C_8
REMARK    2  A    between atoms: O_4  and  C_24
REMARK    3  A    between atoms: O_4  and  C_25
REMARK    4  A    between atoms: N_5  and  C_16
REMARK    5  A    between atoms: N_6  and  C_10
REMARK    6  A    between atoms: N_6  and  C_18
REMARK    7  A    between atoms: C_7  and  C_16
REMARK    8  A    between atoms: C_9  and  C_17
REMARK    9  A    between atoms: C_18  and  C_19
REMARK                            x       y       z     vdW  Elec       q    Type
REMARK                         _______ _______ _______ _____ _____    ______ ____
ROOT
ATOM      1  O   UNL     1       1.364  -1.215  -0.398  0.00  0.00    -0.371 OA
ATOM      7  C   UNL     1       1.669   0.086   0.131  0.00  0.00    +0.165 C 
ATOM      8  C   UNL     1       0.349   0.658   0.631  0.00  0.00    +0.164 C 
ATOM     10  C   UNL     1      -0.620   0.091  -0.390  0.00  0.00    +0.111 C 
ATOM     15  C   UNL     1      -0.058  -1.306  -0.596  0.00  0.00    +0.181 C 
ENDROOT
BRANCH   8   2
ATOM      2  O   UNL     1       0.360   2.072   0.649  0.00  0.00    -0.388 OA
ATOM     28  H   UNL     1       0.564   2.387  -0.248  0.00  0.00    +0.210 HD
ENDBRANCH   8   2
BRANCH  10   6
ATOM      6  N   UNL     1      -2.003   0.085   0.059  0.00  0.00    -0.305 NA
ATOM     27  H   UNL     1      -2.219   0.987   0.484  0.00  0.00    +0.123 HD
BRANCH   6  18
ATOM     18  C   UNL     1      -2.916  -0.143  -1.055  0.00  0.00    +0.116 C 
BRANCH  18  19
ATOM     19  C   UNL     1      -4.352  -0.170  -0.606  0.00  0.00    -0.033 A 
ATOM     20  C   UNL     1      -4.859  -1.294   0.046  0.00  0.00    +0.008 A 
ATOM     21  C   UNL     1      -5.177   0.930  -0.841  0.00  0.00    +0.008 A 
ATOM     22  C   UNL     1      -6.190  -1.319   0.462  0.00  0.00    +0.046 A 
ATOM     23  C   UNL     1      -6.508   0.906  -0.425  0.00  0.00    +0.046 A 
ATOM     24  C   UNL     1      -7.014  -0.218   0.227  0.00  0.00    +0.120 A 
BRANCH  24   4
ATOM      4  O   UNL     1      -8.313  -0.242   0.633  0.00  0.00    -0.495 OA
ATOM     25  C   UNL     1      -9.100   0.917   0.360  0.00  0.00    +0.277 C 
ENDBRANCH  24   4
ENDBRANCH  18  19
ENDBRANCH   6  18
ENDBRANCH  10   6
BRANCH   7  16
ATOM     16  C   UNL     1       2.722  -0.035   1.218  0.00  0.00    +0.138 C 
BRANCH  16   5
ATOM      3  O   UNL     1       4.970   1.423   0.102  0.00  0.00    -0.276 OA
ATOM      5  N   UNL     1       3.944  -0.580   0.703  0.00  0.00    -0.313 N 
ATOM     17  C   UNL     1       4.973   0.197   0.184  0.00  0.00    +0.216 C 
ATOM     26  H   UNL     1       4.053  -1.590   0.726  0.00  0.00    +0.149 HD
BRANCH  17   9
ATOM      9  C   UNL     1       6.146  -0.622  -0.262  0.00  0.00    +0.075 C 
ATOM     11  C   UNL     1       6.902   0.087  -1.387  0.00  0.00    +0.013 C 
ATOM     12  C   UNL     1       7.145  -0.790   0.888  0.00  0.00    +0.013 C 
ATOM     13  C   UNL     1       8.085   0.750  -0.696  0.00  0.00    +0.001 C 
ATOM     14  C   UNL     1       8.477  -0.267   0.361  0.00  0.00    +0.001 C 
ENDBRANCH  17   9
ENDBRANCH  16   5
ENDBRANCH   7  16
TORSDOF 8
