MODEL 1
REMARK VINA RESULT:      -7.2      0.000      0.000
REMARK  Name = 26744527
REMARK  10 active torsions:
REMARK  status: ('A' for Active; 'I' for Inactive)
REMARK    1  A    between atoms: S_1  and  C_21
REMARK    2  A    between atoms: S_1  and  C_25
REMARK    3  A    between atoms: O_2  and  C_13
REMARK    4  A    between atoms: O_6  and  C_28
REMARK    5  A    between atoms: N_8  and  C_15
REMARK    6  A    between atoms: C_11  and  C_16
REMARK    7  A    between atoms: C_15  and  C_17
REMARK    8  A    between atoms: C_18  and  C_21
REMARK    9  A    between atoms: C_24  and  C_28
REMARK   10  A    between atoms: C_31  and  C_32
REMARK                            x       y       z     vdW  Elec       q    Type
REMARK                         _______ _______ _______ _____ _____    ______ ____
ROOT
ATOM      8  N   UNL     1      12.831   8.041  21.081  0.00  0.00    -0.285 NA
ATOM     11  C   UNL     1      11.485   8.641  20.979  0.00  0.00    +0.149 C 
ATOM     12  C   UNL     1      10.518   7.510  21.371  0.00  0.00    +0.061 C 
ATOM     13  C   UNL     1      11.411   6.302  21.632  0.00  0.00    +0.130 C 
ATOM     14  C   UNL     1      12.666   6.610  20.838  0.00  0.00    +0.116 C 
ENDROOT
BRANCH  11  16
ATOM      3  O   UNL     1      10.918   9.665  23.126  0.00  0.00    -0.336 OA
ATOM      9  N   UNL     1      11.528  11.131  21.546  0.00  0.00    -0.193 NA
ATOM     10  N   UNL     1      10.846  10.931  23.720  0.00  0.00    -0.060 NA
ATOM     16  C   UNL     1      11.328   9.873  21.847  0.00  0.00    +0.245 A 
ATOM     18  C   UNL     1      11.221  11.742  22.727  0.00  0.00    +0.193 A 
BRANCH  18  21
ATOM     21  C   UNL     1      11.293  13.197  22.896  0.00  0.00    +0.251 C 
BRANCH  21   1
ATOM      1  S   UNL     1      12.781  13.594  23.772  0.00  0.00    +0.004 S 
ATOM      4  O   UNL     1      12.769  12.846  25.016  0.00  0.00    -0.169 OA
ATOM      5  O   UNL     1      12.939  15.036  23.781  0.00  0.00    -0.169 OA
BRANCH   1  25
ATOM     25  C   UNL     1      14.062  12.937  22.749  0.00  0.00    +0.089 A 
ATOM     26  C   UNL     1      14.254  13.442  21.462  0.00  0.00    +0.027 A 
ATOM     27  C   UNL     1      14.880  11.913  23.226  0.00  0.00    +0.027 A 
ATOM     29  C   UNL     1      15.264  12.922  20.653  0.00  0.00    +0.005 A 
ATOM     30  C   UNL     1      15.891  11.393  22.416  0.00  0.00    +0.005 A 
ATOM     31  C   UNL     1      16.082  11.897  21.130  0.00  0.00    -0.050 A 
ATOM     32  C   UNL     1      17.162  11.342  20.265  0.00  0.00    +0.044 C 
ENDBRANCH   1  25
ENDBRANCH  21   1
ENDBRANCH  18  21
ENDBRANCH  11  16
BRANCH  13   2
ATOM      2  O   UNL     1      10.787   5.113  21.188  0.00  0.00    -0.390 OA
ATOM     33  H   UNL     1      11.314   4.765  20.449  0.00  0.00    +0.210 HD
ENDBRANCH  13   2
BRANCH   8  15
ATOM     15  C   UNL     1      13.799   8.644  20.173  0.00  0.00    +0.120 C 
BRANCH  15  17
ATOM     17  C   UNL     1      15.103   7.891  20.163  0.00  0.00    -0.033 A 
ATOM     19  C   UNL     1      15.420   7.058  19.090  0.00  0.00    +0.006 A 
ATOM     20  C   UNL     1      15.995   8.026  21.227  0.00  0.00    +0.006 A 
ATOM     22  C   UNL     1      16.627   6.361  19.081  0.00  0.00    +0.015 A 
ATOM     23  C   UNL     1      17.202   7.330  21.218  0.00  0.00    +0.015 A 
ATOM     24  C   UNL     1      17.519   6.497  20.145  0.00  0.00    +0.059 A 
BRANCH  24  28
ATOM      7  O   UNL     1      19.738   5.989  20.884  0.00  0.00    -0.245 OA
ATOM     28  C   UNL     1      18.779   5.771  20.136  0.00  0.00    +0.337 C 
BRANCH  28   6
ATOM      6  O   UNL     1      18.808   4.790  19.191  0.00  0.00    -0.477 OA
ATOM     34  H   UNL     1      17.929   4.374  19.071  0.00  0.00    +0.295 HD
ENDBRANCH  28   6
ENDBRANCH  24  28
ENDBRANCH  15  17
ENDBRANCH   8  15
TORSDOF 9
ENDMDL
MODEL 2
REMARK VINA RESULT:      -6.8      4.522      5.899
REMARK  Name = 26744527
REMARK  10 active torsions:
REMARK  status: ('A' for Active; 'I' for Inactive)
REMARK    1  A    between atoms: S_1  and  C_21
REMARK    2  A    between atoms: S_1  and  C_25
REMARK    3  A    between atoms: O_2  and  C_13
REMARK    4  A    between atoms: O_6  and  C_28
REMARK    5  A    between atoms: N_8  and  C_15
REMARK    6  A    between atoms: C_11  and  C_16
REMARK    7  A    between atoms: C_15  and  C_17
REMARK    8  A    between atoms: C_18  and  C_21
REMARK    9  A    between atoms: C_24  and  C_28
REMARK   10  A    between atoms: C_31  and  C_32
REMARK                            x       y       z     vdW  Elec       q    Type
REMARK                         _______ _______ _______ _____ _____    ______ ____
ROOT
ATOM      8  N   UNL     1      13.241   7.947  19.414  0.00  0.00    -0.285 NA
ATOM     11  C   UNL     1      12.255   8.045  18.318  0.00  0.00    +0.149 C 
ATOM     12  C   UNL     1      10.937   8.441  19.006  0.00  0.00    +0.061 C 
ATOM     13  C   UNL     1      11.270   8.498  20.492  0.00  0.00    +0.130 C 
ATOM     14  C   UNL     1      12.487   7.601  20.618  0.00  0.00    +0.116 C 
ENDROOT
BRANCH  11  16
ATOM      3  O   UNL     1      12.177   8.812  15.998  0.00  0.00    -0.336 OA
ATOM      9  N   UNL     1      13.459  10.071  17.334  0.00  0.00    -0.193 NA
ATOM     10  N   UNL     1      12.698   9.831  15.191  0.00  0.00    -0.060 NA
ATOM     16  C   UNL     1      12.674   9.028  17.244  0.00  0.00    +0.245 A 
ATOM     18  C   UNL     1      13.442  10.532  16.050  0.00  0.00    +0.193 A 
BRANCH  18  21
ATOM     21  C   UNL     1      14.197  11.721  15.637  0.00  0.00    +0.251 C 
BRANCH  21   1
ATOM      1  S   UNL     1      15.396  11.239  14.426  0.00  0.00    +0.004 S 
ATOM      4  O   UNL     1      15.105  11.970  13.206  0.00  0.00    -0.169 OA
ATOM      5  O   UNL     1      15.483   9.791  14.414  0.00  0.00    -0.169 OA
BRANCH   1  25
ATOM     25  C   UNL     1      16.922  11.846  15.077  0.00  0.00    +0.089 A 
ATOM     26  C   UNL     1      16.921  12.661  16.209  0.00  0.00    +0.027 A 
ATOM     27  C   UNL     1      18.127  11.512  14.460  0.00  0.00    +0.027 A 
ATOM     29  C   UNL     1      18.125  13.143  16.723  0.00  0.00    +0.005 A 
ATOM     30  C   UNL     1      19.332  11.993  14.974  0.00  0.00    +0.005 A 
ATOM     31  C   UNL     1      19.331  12.809  16.105  0.00  0.00    -0.050 A 
ATOM     32  C   UNL     1      20.617  13.324  16.654  0.00  0.00    +0.044 C 
ENDBRANCH   1  25
ENDBRANCH  21   1
ENDBRANCH  18  21
ENDBRANCH  11  16
BRANCH  13   2
ATOM      2  O   UNL     1      10.186   8.024  21.267  0.00  0.00    -0.390 OA
ATOM     33  H   UNL     1      10.456   7.175  21.658  0.00  0.00    +0.210 HD
ENDBRANCH  13   2
BRANCH   8  15
ATOM     15  C   UNL     1      14.309   6.994  19.143  0.00  0.00    +0.120 C 
BRANCH  15  17
ATOM     17  C   UNL     1      15.592   7.381  19.830  0.00  0.00    -0.033 A 
ATOM     19  C   UNL     1      15.826   8.712  20.172  0.00  0.00    +0.006 A 
ATOM     20  C   UNL     1      16.547   6.407  20.124  0.00  0.00    +0.006 A 
ATOM     22  C   UNL     1      17.014   9.070  20.809  0.00  0.00    +0.015 A 
ATOM     23  C   UNL     1      17.735   6.764  20.761  0.00  0.00    +0.015 A 
ATOM     24  C   UNL     1      17.969   8.096  21.103  0.00  0.00    +0.059 A 
BRANCH  24  28
ATOM      7  O   UNL     1      20.143   9.085  21.247  0.00  0.00    -0.245 OA
ATOM     28  C   UNL     1      19.208   8.469  21.768  0.00  0.00    +0.337 C 
BRANCH  28   6
ATOM      6  O   UNL     1      19.245   8.062  23.066  0.00  0.00    -0.477 OA
ATOM     34  H   UNL     1      18.976   8.777  23.680  0.00  0.00    +0.295 HD
ENDBRANCH  28   6
ENDBRANCH  24  28
ENDBRANCH  15  17
ENDBRANCH   8  15
TORSDOF 9
ENDMDL
MODEL 3
REMARK VINA RESULT:      -6.7      2.300      3.620
REMARK  Name = 26744527
REMARK  10 active torsions:
REMARK  status: ('A' for Active; 'I' for Inactive)
REMARK    1  A    between atoms: S_1  and  C_21
REMARK    2  A    between atoms: S_1  and  C_25
REMARK    3  A    between atoms: O_2  and  C_13
REMARK    4  A    between atoms: O_6  and  C_28
REMARK    5  A    between atoms: N_8  and  C_15
REMARK    6  A    between atoms: C_11  and  C_16
REMARK    7  A    between atoms: C_15  and  C_17
REMARK    8  A    between atoms: C_18  and  C_21
REMARK    9  A    between atoms: C_24  and  C_28
REMARK   10  A    between atoms: C_31  and  C_32
REMARK                            x       y       z     vdW  Elec       q    Type
REMARK                         _______ _______ _______ _____ _____    ______ ____
ROOT
ATOM      8  N   UNL     1      13.079   7.545  20.194  0.00  0.00    -0.285 NA
ATOM     11  C   UNL     1      12.209   8.410  19.371  0.00  0.00    +0.149 C 
ATOM     12  C   UNL     1      10.896   8.521  20.167  0.00  0.00    +0.061 C 
ATOM     13  C   UNL     1      11.108   7.649  21.399  0.00  0.00    +0.130 C 
ATOM     14  C   UNL     1      12.190   6.678  20.965  0.00  0.00    +0.116 C 
ENDROOT
BRANCH  11  16
ATOM      3  O   UNL     1      13.693   9.816  18.030  0.00  0.00    -0.336 OA
ATOM      9  N   UNL     1      12.672  10.899  19.703  0.00  0.00    -0.193 NA
ATOM     10  N   UNL     1      14.135  11.142  17.962  0.00  0.00    -0.060 NA
ATOM     16  C   UNL     1      12.834   9.759  19.081  0.00  0.00    +0.245 A 
ATOM     18  C   UNL     1      13.490  11.718  18.980  0.00  0.00    +0.193 A 
BRANCH  18  21
ATOM     21  C   UNL     1      13.653  13.140  19.301  0.00  0.00    +0.251 C 
BRANCH  21   1
ATOM      1  S   UNL     1      14.669  13.284  20.745  0.00  0.00    +0.004 S 
ATOM      4  O   UNL     1      15.182  14.641  20.787  0.00  0.00    -0.169 OA
ATOM      5  O   UNL     1      15.577  12.152  20.783  0.00  0.00    -0.169 OA
BRANCH   1  25
ATOM     25  C   UNL     1      13.534  13.084  22.083  0.00  0.00    +0.089 A 
ATOM     26  C   UNL     1      13.711  12.047  22.998  0.00  0.00    +0.027 A 
ATOM     27  C   UNL     1      12.459  13.962  22.223  0.00  0.00    +0.027 A 
ATOM     29  C   UNL     1      12.813  11.887  24.054  0.00  0.00    +0.005 A 
ATOM     30  C   UNL     1      11.561  13.803  23.279  0.00  0.00    +0.005 A 
ATOM     31  C   UNL     1      11.737  12.765  24.194  0.00  0.00    -0.050 A 
ATOM     32  C   UNL     1      10.778  12.594  25.322  0.00  0.00    +0.044 C 
ENDBRANCH   1  25
ENDBRANCH  21   1
ENDBRANCH  18  21
ENDBRANCH  11  16
BRANCH  13   2
ATOM      2  O   UNL     1       9.912   6.979  21.751  0.00  0.00    -0.390 OA
ATOM     33  H   UNL     1       9.436   7.544  22.383  0.00  0.00    +0.210 HD
ENDBRANCH  13   2
BRANCH   8  15
ATOM     15  C   UNL     1      14.041   6.783  19.407  0.00  0.00    +0.120 C 
BRANCH  15  17
ATOM     17  C   UNL     1      15.436   6.898  19.964  0.00  0.00    -0.033 A 
ATOM     19  C   UNL     1      15.692   7.760  21.030  0.00  0.00    +0.006 A 
ATOM     20  C   UNL     1      16.471   6.143  19.413  0.00  0.00    +0.006 A 
ATOM     22  C   UNL     1      16.984   7.866  21.545  0.00  0.00    +0.015 A 
ATOM     23  C   UNL     1      17.762   6.249  19.928  0.00  0.00    +0.015 A 
ATOM     24  C   UNL     1      18.019   7.110  20.994  0.00  0.00    +0.059 A 
BRANCH  24  28
ATOM      7  O   UNL     1      20.335   7.709  20.943  0.00  0.00    -0.245 OA
ATOM     28  C   UNL     1      19.365   7.220  21.532  0.00  0.00    +0.337 C 
BRANCH  28   6
ATOM      6  O   UNL     1      19.466   6.716  22.793  0.00  0.00    -0.477 OA
ATOM     34  H   UNL     1      18.699   6.149  23.021  0.00  0.00    +0.295 HD
ENDBRANCH  28   6
ENDBRANCH  24  28
ENDBRANCH  15  17
ENDBRANCH   8  15
TORSDOF 9
ENDMDL
MODEL 4
REMARK VINA RESULT:      -6.6     15.582     17.582
REMARK  Name = 26744527
REMARK  10 active torsions:
REMARK  status: ('A' for Active; 'I' for Inactive)
REMARK    1  A    between atoms: S_1  and  C_21
REMARK    2  A    between atoms: S_1  and  C_25
REMARK    3  A    between atoms: O_2  and  C_13
REMARK    4  A    between atoms: O_6  and  C_28
REMARK    5  A    between atoms: N_8  and  C_15
REMARK    6  A    between atoms: C_11  and  C_16
REMARK    7  A    between atoms: C_15  and  C_17
REMARK    8  A    between atoms: C_18  and  C_21
REMARK    9  A    between atoms: C_24  and  C_28
REMARK   10  A    between atoms: C_31  and  C_32
REMARK                            x       y       z     vdW  Elec       q    Type
REMARK                         _______ _______ _______ _____ _____    ______ ____
ROOT
ATOM      8  N   UNL     1      10.647   5.840   5.657  0.00  0.00    -0.285 NA
ATOM     11  C   UNL     1      10.524   7.138   6.352  0.00  0.00    +0.149 C 
ATOM     12  C   UNL     1      10.258   6.775   7.824  0.00  0.00    +0.061 C 
ATOM     13  C   UNL     1      10.206   5.252   7.850  0.00  0.00    +0.130 C 
ATOM     14  C   UNL     1       9.849   4.884   6.422  0.00  0.00    +0.116 C 
ENDROOT
BRANCH  11  16
ATOM      3  O   UNL     1      11.545   9.234   5.616  0.00  0.00    -0.336 OA
ATOM      9  N   UNL     1      12.995   7.766   6.484  0.00  0.00    -0.193 NA
ATOM     10  N   UNL     1      12.802   9.847   5.556  0.00  0.00    -0.060 NA
ATOM     16  C   UNL     1      11.748   8.013   6.176  0.00  0.00    +0.245 A 
ATOM     18  C   UNL     1      13.604   8.920   6.086  0.00  0.00    +0.193 A 
BRANCH  18  21
ATOM     21  C   UNL     1      15.049   9.130   6.228  0.00  0.00    +0.251 C 
BRANCH  21   1
ATOM      1  S   UNL     1      15.792   9.078   4.620  0.00  0.00    +0.004 S 
ATOM      4  O   UNL     1      15.762  10.424   4.080  0.00  0.00    -0.169 OA
ATOM      5  O   UNL     1      15.209   7.974   3.880  0.00  0.00    -0.169 OA
BRANCH   1  25
ATOM     25  C   UNL     1      17.475   8.654   4.946  0.00  0.00    +0.089 A 
ATOM     26  C   UNL     1      18.005   8.838   6.223  0.00  0.00    +0.027 A 
ATOM     27  C   UNL     1      18.275   8.138   3.926  0.00  0.00    +0.027 A 
ATOM     29  C   UNL     1      19.335   8.506   6.480  0.00  0.00    +0.005 A 
ATOM     30  C   UNL     1      19.606   7.806   4.183  0.00  0.00    +0.005 A 
ATOM     31  C   UNL     1      20.136   7.990   5.460  0.00  0.00    -0.050 A 
ATOM     32  C   UNL     1      21.557   7.635   5.735  0.00  0.00    +0.044 C 
ENDBRANCH   1  25
ENDBRANCH  21   1
ENDBRANCH  18  21
ENDBRANCH  11  16
BRANCH  13   2
ATOM      2  O   UNL     1       9.229   4.800   8.768  0.00  0.00    -0.390 OA
ATOM     33  H   UNL     1       8.965   3.905   8.496  0.00  0.00    +0.210 HD
ENDBRANCH  13   2
BRANCH   8  15
ATOM     15  C   UNL     1      10.244   5.897   4.258  0.00  0.00    +0.120 C 
BRANCH  15  17
ATOM     17  C   UNL     1      11.295   5.317   3.348  0.00  0.00    -0.033 A 
ATOM     19  C   UNL     1      12.376   6.100   2.944  0.00  0.00    +0.006 A 
ATOM     20  C   UNL     1      11.188   3.997   2.910  0.00  0.00    +0.006 A 
ATOM     22  C   UNL     1      13.350   5.563   2.102  0.00  0.00    +0.015 A 
ATOM     23  C   UNL     1      12.161   3.460   2.068  0.00  0.00    +0.015 A 
ATOM     24  C   UNL     1      13.242   4.243   1.664  0.00  0.00    +0.059 A 
BRANCH  24  28
ATOM      7  O   UNL     1      14.200   3.650  -0.447  0.00  0.00    -0.245 OA
ATOM     28  C   UNL     1      14.257   3.683   0.787  0.00  0.00    +0.337 C 
BRANCH  28   6
ATOM      6  O   UNL     1      15.319   3.179   1.474  0.00  0.00    -0.477 OA
ATOM     34  H   UNL     1      15.469   2.232   1.270  0.00  0.00    +0.295 HD
ENDBRANCH  28   6
ENDBRANCH  24  28
ENDBRANCH  15  17
ENDBRANCH   8  15
TORSDOF 9
ENDMDL
MODEL 5
REMARK VINA RESULT:      -6.6     27.099     30.746
REMARK  Name = 26744527
REMARK  10 active torsions:
REMARK  status: ('A' for Active; 'I' for Inactive)
REMARK    1  A    between atoms: S_1  and  C_21
REMARK    2  A    between atoms: S_1  and  C_25
REMARK    3  A    between atoms: O_2  and  C_13
REMARK    4  A    between atoms: O_6  and  C_28
REMARK    5  A    between atoms: N_8  and  C_15
REMARK    6  A    between atoms: C_11  and  C_16
REMARK    7  A    between atoms: C_15  and  C_17
REMARK    8  A    between atoms: C_18  and  C_21
REMARK    9  A    between atoms: C_24  and  C_28
REMARK   10  A    between atoms: C_31  and  C_32
REMARK                            x       y       z     vdW  Elec       q    Type
REMARK                         _______ _______ _______ _____ _____    ______ ____
ROOT
ATOM      8  N   UNL     1     -18.738   2.456  26.154  0.00  0.00    -0.285 NA
ATOM     11  C   UNL     1     -17.438   2.335  25.463  0.00  0.00    +0.149 C 
ATOM     12  C   UNL     1     -17.595   1.114  24.538  0.00  0.00    +0.061 C 
ATOM     13  C   UNL     1     -18.999   0.590  24.813  0.00  0.00    +0.130 C 
ATOM     14  C   UNL     1     -19.306   1.110  26.205  0.00  0.00    +0.116 C 
ENDROOT
BRANCH  11  16
ATOM      3  O   UNL     1     -18.058   4.229  24.046  0.00  0.00    -0.336 OA
ATOM      9  N   UNL     1     -15.889   4.172  24.599  0.00  0.00    -0.193 NA
ATOM     10  N   UNL     1     -17.472   5.345  23.437  0.00  0.00    -0.060 NA
ATOM     16  C   UNL     1     -17.058   3.594  24.711  0.00  0.00    +0.245 A 
ATOM     18  C   UNL     1     -16.193   5.243  23.810  0.00  0.00    +0.193 A 
BRANCH  18  21
ATOM     21  C   UNL     1     -15.181   6.219  23.393  0.00  0.00    +0.251 C 
BRANCH  21   1
ATOM      1  S   UNL     1     -14.073   5.437  22.253  0.00  0.00    +0.004 S 
ATOM      4  O   UNL     1     -14.879   4.791  21.233  0.00  0.00    -0.169 OA
ATOM      5  O   UNL     1     -13.094   4.678  23.009  0.00  0.00    -0.169 OA
BRANCH   1  25
ATOM     25  C   UNL     1     -13.217   6.787  21.502  0.00  0.00    +0.089 A 
ATOM     26  C   UNL     1     -12.001   6.567  20.853  0.00  0.00    +0.027 A 
ATOM     27  C   UNL     1     -13.754   8.073  21.559  0.00  0.00    +0.027 A 
ATOM     29  C   UNL     1     -11.324   7.633  20.262  0.00  0.00    +0.005 A 
ATOM     30  C   UNL     1     -13.076   9.140  20.968  0.00  0.00    +0.005 A 
ATOM     31  C   UNL     1     -11.861   8.920  20.320  0.00  0.00    -0.050 A 
ATOM     32  C   UNL     1     -11.136  10.059  19.688  0.00  0.00    +0.044 C 
ENDBRANCH   1  25
ENDBRANCH  21   1
ENDBRANCH  18  21
ENDBRANCH  11  16
BRANCH  13   2
ATOM      2  O   UNL     1     -19.024  -0.824  24.764  0.00  0.00    -0.390 OA
ATOM     33  H   UNL     1     -19.897  -1.088  24.425  0.00  0.00    +0.210 HD
ENDBRANCH  13   2
BRANCH   8  15
ATOM     15  C   UNL     1     -18.631   3.056  27.478  0.00  0.00    +0.120 C 
BRANCH  15  17
ATOM     17  C   UNL     1     -17.357   2.655  28.174  0.00  0.00    -0.033 A 
ATOM     19  C   UNL     1     -17.180   1.339  28.601  0.00  0.00    +0.006 A 
ATOM     20  C   UNL     1     -16.354   3.600  28.391  0.00  0.00    +0.006 A 
ATOM     22  C   UNL     1     -16.001   0.968  29.245  0.00  0.00    +0.015 A 
ATOM     23  C   UNL     1     -15.174   3.228  29.036  0.00  0.00    +0.015 A 
ATOM     24  C   UNL     1     -14.998   1.912  29.462  0.00  0.00    +0.059 A 
BRANCH  24  28
ATOM      7  O   UNL     1     -13.550   0.426  30.656  0.00  0.00    -0.245 OA
ATOM     28  C   UNL     1     -13.767   1.525  30.134  0.00  0.00    +0.337 C 
BRANCH  28   6
ATOM      6  O   UNL     1     -12.838   2.521  30.134  0.00  0.00    -0.477 OA
ATOM     34  H   UNL     1     -13.245   3.398  29.975  0.00  0.00    +0.295 HD
ENDBRANCH  28   6
ENDBRANCH  24  28
ENDBRANCH  15  17
ENDBRANCH   8  15
TORSDOF 9
ENDMDL
MODEL 6
REMARK VINA RESULT:      -6.6     15.937     18.663
REMARK  Name = 26744527
REMARK  10 active torsions:
REMARK  status: ('A' for Active; 'I' for Inactive)
REMARK    1  A    between atoms: S_1  and  C_21
REMARK    2  A    between atoms: S_1  and  C_25
REMARK    3  A    between atoms: O_2  and  C_13
REMARK    4  A    between atoms: O_6  and  C_28
REMARK    5  A    between atoms: N_8  and  C_15
REMARK    6  A    between atoms: C_11  and  C_16
REMARK    7  A    between atoms: C_15  and  C_17
REMARK    8  A    between atoms: C_18  and  C_21
REMARK    9  A    between atoms: C_24  and  C_28
REMARK   10  A    between atoms: C_31  and  C_32
REMARK                            x       y       z     vdW  Elec       q    Type
REMARK                         _______ _______ _______ _____ _____    ______ ____
ROOT
ATOM      8  N   UNL     1      14.071   8.676   5.399  0.00  0.00    -0.285 NA
ATOM     11  C   UNL     1      14.507   8.906   4.007  0.00  0.00    +0.149 C 
ATOM     12  C   UNL     1      16.025   9.143   4.102  0.00  0.00    +0.061 C 
ATOM     13  C   UNL     1      16.341   9.070   5.591  0.00  0.00    +0.130 C 
ATOM     14  C   UNL     1      15.015   9.394   6.252  0.00  0.00    +0.116 C 
ENDROOT
BRANCH  11  16
ATOM      3  O   UNL     1      14.929   6.649   3.169  0.00  0.00    -0.336 OA
ATOM      9  N   UNL     1      13.188   7.672   2.202  0.00  0.00    -0.193 NA
ATOM     10  N   UNL     1      14.414   5.741   2.236  0.00  0.00    -0.060 NA
ATOM     16  C   UNL     1      14.150   7.758   3.085  0.00  0.00    +0.245 A 
ATOM     18  C   UNL     1      13.390   6.416   1.707  0.00  0.00    +0.193 A 
BRANCH  18  21
ATOM     21  C   UNL     1      12.539   5.844   0.658  0.00  0.00    +0.251 C 
BRANCH  21   1
ATOM      1  S   UNL     1      11.374   4.741   1.410  0.00  0.00    +0.004 S 
ATOM      4  O   UNL     1      12.110   3.883   2.321  0.00  0.00    -0.169 OA
ATOM      5  O   UNL     1      10.543   4.168   0.369  0.00  0.00    -0.169 OA
BRANCH   1  25
ATOM     25  C   UNL     1      10.344   5.806   2.371  0.00  0.00    +0.089 A 
ATOM     26  C   UNL     1       9.752   6.922   1.780  0.00  0.00    +0.027 A 
ATOM     27  C   UNL     1      10.122   5.532   3.720  0.00  0.00    +0.027 A 
ATOM     29  C   UNL     1       8.940   7.765   2.538  0.00  0.00    +0.005 A 
ATOM     30  C   UNL     1       9.310   6.375   4.480  0.00  0.00    +0.005 A 
ATOM     31  C   UNL     1       8.719   7.492   3.889  0.00  0.00    -0.050 A 
ATOM     32  C   UNL     1       7.850   8.393   4.699  0.00  0.00    +0.044 C 
ENDBRANCH   1  25
ENDBRANCH  21   1
ENDBRANCH  18  21
ENDBRANCH  11  16
BRANCH  13   2
ATOM      2  O   UNL     1      17.343  10.007   5.937  0.00  0.00    -0.390 OA
ATOM     33  H   UNL     1      17.233  10.779   5.356  0.00  0.00    +0.210 HD
ENDBRANCH  13   2
BRANCH   8  15
ATOM     15  C   UNL     1      12.693   9.080   5.644  0.00  0.00    +0.120 C 
BRANCH  15  17
ATOM     17  C   UNL     1      11.944   8.057   6.457  0.00  0.00    -0.033 A 
ATOM     19  C   UNL     1      12.446   6.761   6.579  0.00  0.00    +0.006 A 
ATOM     20  C   UNL     1      10.749   8.405   7.087  0.00  0.00    +0.006 A 
ATOM     22  C   UNL     1      11.753   5.814   7.332  0.00  0.00    +0.015 A 
ATOM     23  C   UNL     1      10.056   7.457   7.839  0.00  0.00    +0.015 A 
ATOM     24  C   UNL     1      10.558   6.162   7.962  0.00  0.00    +0.059 A 
BRANCH  24  28
ATOM      7  O   UNL     1       8.932   5.420   9.554  0.00  0.00    -0.245 OA
ATOM     28  C   UNL     1       9.836   5.174   8.748  0.00  0.00    +0.337 C 
BRANCH  28   6
ATOM      6  O   UNL     1      10.261   3.903   8.507  0.00  0.00    -0.477 OA
ATOM     34  H   UNL     1      10.912   3.603   9.176  0.00  0.00    +0.295 HD
ENDBRANCH  28   6
ENDBRANCH  24  28
ENDBRANCH  15  17
ENDBRANCH   8  15
TORSDOF 9
ENDMDL
MODEL 7
REMARK VINA RESULT:      -6.6     26.842     29.716
REMARK  Name = 26744527
REMARK  10 active torsions:
REMARK  status: ('A' for Active; 'I' for Inactive)
REMARK    1  A    between atoms: S_1  and  C_21
REMARK    2  A    between atoms: S_1  and  C_25
REMARK    3  A    between atoms: O_2  and  C_13
REMARK    4  A    between atoms: O_6  and  C_28
REMARK    5  A    between atoms: N_8  and  C_15
REMARK    6  A    between atoms: C_11  and  C_16
REMARK    7  A    between atoms: C_15  and  C_17
REMARK    8  A    between atoms: C_18  and  C_21
REMARK    9  A    between atoms: C_24  and  C_28
REMARK   10  A    between atoms: C_31  and  C_32
REMARK                            x       y       z     vdW  Elec       q    Type
REMARK                         _______ _______ _______ _____ _____    ______ ____
ROOT
ATOM      8  N   UNL     1      -8.426  -9.461  16.078  0.00  0.00    -0.285 NA
ATOM     11  C   UNL     1      -9.591  -9.750  15.217  0.00  0.00    +0.149 C 
ATOM     12  C   UNL     1     -10.467  -8.487  15.301  0.00  0.00    +0.061 C 
ATOM     13  C   UNL     1      -9.734  -7.564  16.267  0.00  0.00    +0.130 C 
ATOM     14  C   UNL     1      -8.886  -8.513  17.091  0.00  0.00    +0.116 C 
ENDROOT
BRANCH  11  16
ATOM      3  O   UNL     1     -10.045 -10.902  13.109  0.00  0.00    -0.336 OA
ATOM      9  N   UNL     1      -8.137  -9.731  13.119  0.00  0.00    -0.193 NA
ATOM     10  N   UNL     1      -9.475 -11.078  11.843  0.00  0.00    -0.060 NA
ATOM     16  C   UNL     1      -9.195 -10.095  13.797  0.00  0.00    +0.245 A 
ATOM     18  C   UNL     1      -8.353 -10.357  11.926  0.00  0.00    +0.193 A 
BRANCH  18  21
ATOM     21  C   UNL     1      -7.412 -10.249  10.805  0.00  0.00    +0.251 C 
BRANCH  21   1
ATOM      1  S   UNL     1      -6.294 -11.622  10.869  0.00  0.00    +0.004 S 
ATOM      4  O   UNL     1      -6.406 -12.337   9.611  0.00  0.00    -0.169 OA
ATOM      5  O   UNL     1      -6.485 -12.314  12.130  0.00  0.00    -0.169 OA
BRANCH   1  25
ATOM     25  C   UNL     1      -4.699 -10.864  10.928  0.00  0.00    +0.089 A 
ATOM     26  C   UNL     1      -3.682 -11.441  11.689  0.00  0.00    +0.027 A 
ATOM     27  C   UNL     1      -4.457  -9.690  10.217  0.00  0.00    +0.027 A 
ATOM     29  C   UNL     1      -2.423 -10.842  11.739  0.00  0.00    +0.005 A 
ATOM     30  C   UNL     1      -3.198  -9.090  10.266  0.00  0.00    +0.005 A 
ATOM     31  C   UNL     1      -2.181  -9.666  11.027  0.00  0.00    -0.050 A 
ATOM     32  C   UNL     1      -0.835  -9.027  11.080  0.00  0.00    +0.044 C 
ENDBRANCH   1  25
ENDBRANCH  21   1
ENDBRANCH  18  21
ENDBRANCH  11  16
BRANCH  13   2
ATOM      2  O   UNL     1     -10.654  -6.849  17.071  0.00  0.00    -0.390 OA
ATOM     33  H   UNL     1     -11.462  -7.385  17.137  0.00  0.00    +0.210 HD
ENDBRANCH  13   2
BRANCH   8  15
ATOM     15  C   UNL     1      -7.839 -10.656  16.671  0.00  0.00    +0.120 C 
BRANCH  15  17
ATOM     17  C   UNL     1      -6.342 -10.684  16.510  0.00  0.00    -0.033 A 
ATOM     19  C   UNL     1      -5.766 -10.334  15.289  0.00  0.00    +0.006 A 
ATOM     20  C   UNL     1      -5.532 -11.060  17.581  0.00  0.00    +0.006 A 
ATOM     22  C   UNL     1      -4.380 -10.360  15.140  0.00  0.00    +0.015 A 
ATOM     23  C   UNL     1      -4.146 -11.086  17.432  0.00  0.00    +0.015 A 
ATOM     24  C   UNL     1      -3.570 -10.736  16.211  0.00  0.00    +0.059 A 
BRANCH  24  28
ATOM      7  O   UNL     1      -1.509 -10.504  15.015  0.00  0.00    -0.245 OA
ATOM     28  C   UNL     1      -2.124 -10.763  16.056  0.00  0.00    +0.337 C 
BRANCH  28   6
ATOM      6  O   UNL     1      -1.483 -11.112  17.205  0.00  0.00    -0.477 OA
ATOM     34  H   UNL     1      -0.628 -10.642  17.303  0.00  0.00    +0.295 HD
ENDBRANCH  28   6
ENDBRANCH  24  28
ENDBRANCH  15  17
ENDBRANCH   8  15
TORSDOF 9
ENDMDL
MODEL 8
REMARK VINA RESULT:      -6.5      3.716      4.433
REMARK  Name = 26744527
REMARK  10 active torsions:
REMARK  status: ('A' for Active; 'I' for Inactive)
REMARK    1  A    between atoms: S_1  and  C_21
REMARK    2  A    between atoms: S_1  and  C_25
REMARK    3  A    between atoms: O_2  and  C_13
REMARK    4  A    between atoms: O_6  and  C_28
REMARK    5  A    between atoms: N_8  and  C_15
REMARK    6  A    between atoms: C_11  and  C_16
REMARK    7  A    between atoms: C_15  and  C_17
REMARK    8  A    between atoms: C_18  and  C_21
REMARK    9  A    between atoms: C_24  and  C_28
REMARK   10  A    between atoms: C_31  and  C_32
REMARK                            x       y       z     vdW  Elec       q    Type
REMARK                         _______ _______ _______ _____ _____    ______ ____
ROOT
ATOM      8  N   UNL     1      13.235   7.684  20.029  0.00  0.00    -0.285 NA
ATOM     11  C   UNL     1      12.250   8.652  19.507  0.00  0.00    +0.149 C 
ATOM     12  C   UNL     1      10.999   8.453  20.382  0.00  0.00    +0.061 C 
ATOM     13  C   UNL     1      11.363   7.323  21.337  0.00  0.00    +0.130 C 
ATOM     14  C   UNL     1      12.467   6.583  20.607  0.00  0.00    +0.116 C 
ENDROOT
BRANCH  11  16
ATOM      3  O   UNL     1      12.879  10.658  20.756  0.00  0.00    -0.336 OA
ATOM      9  N   UNL     1      13.113  10.851  18.538  0.00  0.00    -0.193 NA
ATOM     10  N   UNL     1      13.361  11.952  20.527  0.00  0.00    -0.060 NA
ATOM     16  C   UNL     1      12.762  10.078  19.533  0.00  0.00    +0.245 A 
ATOM     18  C   UNL     1      13.474  11.990  19.197  0.00  0.00    +0.193 A 
BRANCH  18  21
ATOM     21  C   UNL     1      13.954  13.183  18.490  0.00  0.00    +0.251 C 
BRANCH  21   1
ATOM      1  S   UNL     1      15.680  12.985  18.148  0.00  0.00    +0.004 S 
ATOM      4  O   UNL     1      16.131  11.793  18.843  0.00  0.00    -0.169 OA
ATOM      5  O   UNL     1      16.342  14.258  18.364  0.00  0.00    -0.169 OA
BRANCH   1  25
ATOM     25  C   UNL     1      15.732  12.661  16.412  0.00  0.00    +0.089 A 
ATOM     26  C   UNL     1      16.954  12.408  15.787  0.00  0.00    +0.027 A 
ATOM     27  C   UNL     1      14.554  12.659  15.667  0.00  0.00    +0.027 A 
ATOM     29  C   UNL     1      16.996  12.154  14.416  0.00  0.00    +0.005 A 
ATOM     30  C   UNL     1      14.596  12.405  14.295  0.00  0.00    +0.005 A 
ATOM     31  C   UNL     1      15.816  12.153  13.670  0.00  0.00    -0.050 A 
ATOM     32  C   UNL     1      15.862  11.882  12.205  0.00  0.00    +0.044 C 
ENDBRANCH   1  25
ENDBRANCH  21   1
ENDBRANCH  18  21
ENDBRANCH  11  16
BRANCH  13   2
ATOM      2  O   UNL     1      10.243   6.491  21.577  0.00  0.00    -0.390 OA
ATOM     33  H   UNL     1       9.521   7.058  21.896  0.00  0.00    +0.210 HD
ENDBRANCH  13   2
BRANCH   8  15
ATOM     15  C   UNL     1      14.180   7.224  19.019  0.00  0.00    +0.120 C 
BRANCH  15  17
ATOM     17  C   UNL     1      15.568   7.066  19.581  0.00  0.00    -0.033 A 
ATOM     19  C   UNL     1      16.451   6.149  19.011  0.00  0.00    +0.006 A 
ATOM     20  C   UNL     1      15.972   7.838  20.670  0.00  0.00    +0.006 A 
ATOM     22  C   UNL     1      17.737   6.004  19.530  0.00  0.00    +0.015 A 
ATOM     23  C   UNL     1      17.258   7.693  21.190  0.00  0.00    +0.015 A 
ATOM     24  C   UNL     1      18.140   6.776  20.619  0.00  0.00    +0.059 A 
BRANCH  24  28
ATOM      7  O   UNL     1      19.799   6.779  22.345  0.00  0.00    -0.245 OA
ATOM     28  C   UNL     1      19.482   6.626  21.161  0.00  0.00    +0.337 C 
BRANCH  28   6
ATOM      6  O   UNL     1      20.393   6.287  20.208  0.00  0.00    -0.477 OA
ATOM     34  H   UNL     1      20.610   5.331  20.234  0.00  0.00    +0.295 HD
ENDBRANCH  28   6
ENDBRANCH  24  28
ENDBRANCH  15  17
ENDBRANCH   8  15
TORSDOF 9
ENDMDL
MODEL 9
REMARK VINA RESULT:      -6.5      5.617      6.682
REMARK  Name = 26744527
REMARK  10 active torsions:
REMARK  status: ('A' for Active; 'I' for Inactive)
REMARK    1  A    between atoms: S_1  and  C_21
REMARK    2  A    between atoms: S_1  and  C_25
REMARK    3  A    between atoms: O_2  and  C_13
REMARK    4  A    between atoms: O_6  and  C_28
REMARK    5  A    between atoms: N_8  and  C_15
REMARK    6  A    between atoms: C_11  and  C_16
REMARK    7  A    between atoms: C_15  and  C_17
REMARK    8  A    between atoms: C_18  and  C_21
REMARK    9  A    between atoms: C_24  and  C_28
REMARK   10  A    between atoms: C_31  and  C_32
REMARK                            x       y       z     vdW  Elec       q    Type
REMARK                         _______ _______ _______ _____ _____    ______ ____
ROOT
ATOM      8  N   UNL     1      13.410   7.639  19.595  0.00  0.00    -0.285 NA
ATOM     11  C   UNL     1      12.605   8.206  18.493  0.00  0.00    +0.149 C 
ATOM     12  C   UNL     1      11.258   8.575  19.138  0.00  0.00    +0.061 C 
ATOM     13  C   UNL     1      11.385   8.138  20.592  0.00  0.00    +0.130 C 
ATOM     14  C   UNL     1      12.461   7.070  20.550  0.00  0.00    +0.116 C 
ENDROOT
BRANCH  11  16
ATOM      3  O   UNL     1      14.206  10.053  18.564  0.00  0.00    -0.336 OA
ATOM      9  N   UNL     1      13.098   9.878  16.626  0.00  0.00    -0.193 NA
ATOM     10  N   UNL     1      14.680  11.088  17.750  0.00  0.00    -0.060 NA
ATOM     16  C   UNL     1      13.279   9.388  17.827  0.00  0.00    +0.245 A 
ATOM     18  C   UNL     1      13.980  10.918  16.625  0.00  0.00    +0.193 A 
BRANCH  18  21
ATOM     21  C   UNL     1      14.148  11.799  15.464  0.00  0.00    +0.251 C 
BRANCH  21   1
ATOM      1  S   UNL     1      15.506  11.206  14.493  0.00  0.00    +0.004 S 
ATOM      4  O   UNL     1      15.316   9.780  14.298  0.00  0.00    -0.169 OA
ATOM      5  O   UNL     1      16.739  11.712  15.067  0.00  0.00    -0.169 OA
BRANCH   1  25
ATOM     25  C   UNL     1      15.292  12.006  12.933  0.00  0.00    +0.089 A 
ATOM     26  C   UNL     1      16.325  11.993  11.996  0.00  0.00    +0.027 A 
ATOM     27  C   UNL     1      14.092  12.653  12.639  0.00  0.00    +0.027 A 
ATOM     29  C   UNL     1      16.157  12.627  10.765  0.00  0.00    +0.005 A 
ATOM     30  C   UNL     1      13.924  13.287  11.407  0.00  0.00    +0.005 A 
ATOM     31  C   UNL     1      14.956  13.275  10.470  0.00  0.00    -0.050 A 
ATOM     32  C   UNL     1      14.778  13.952   9.154  0.00  0.00    +0.044 C 
ENDBRANCH   1  25
ENDBRANCH  21   1
ENDBRANCH  18  21
ENDBRANCH  11  16
BRANCH  13   2
ATOM      2  O   UNL     1      10.155   7.625  21.070  0.00  0.00    -0.390 OA
ATOM     33  H   UNL     1       9.477   8.306  20.922  0.00  0.00    +0.210 HD
ENDBRANCH  13   2
BRANCH   8  15
ATOM     15  C   UNL     1      14.390   6.659  19.145  0.00  0.00    +0.120 C 
BRANCH  15  17
ATOM     17  C   UNL     1      15.735   6.876  19.787  0.00  0.00    -0.033 A 
ATOM     19  C   UNL     1      16.822   6.086  19.412  0.00  0.00    +0.006 A 
ATOM     20  C   UNL     1      15.894   7.868  20.754  0.00  0.00    +0.006 A 
ATOM     22  C   UNL     1      18.067   6.288  20.006  0.00  0.00    +0.015 A 
ATOM     23  C   UNL     1      17.140   8.070  21.348  0.00  0.00    +0.015 A 
ATOM     24  C   UNL     1      18.226   7.279  20.974  0.00  0.00    +0.059 A 
BRANCH  24  28
ATOM      7  O   UNL     1      19.714   7.848  22.761  0.00  0.00    -0.245 OA
ATOM     28  C   UNL     1      19.526   7.490  21.593  0.00  0.00    +0.337 C 
BRANCH  28   6
ATOM      6  O   UNL     1      20.556   7.249  20.736  0.00  0.00    -0.477 OA
ATOM     34  H   UNL     1      21.182   8.002  20.697  0.00  0.00    +0.295 HD
ENDBRANCH  28   6
ENDBRANCH  24  28
ENDBRANCH  15  17
ENDBRANCH   8  15
TORSDOF 9
ENDMDL
MODEL 10
REMARK VINA RESULT:      -6.4     27.604     30.533
REMARK  Name = 26744527
REMARK  10 active torsions:
REMARK  status: ('A' for Active; 'I' for Inactive)
REMARK    1  A    between atoms: S_1  and  C_21
REMARK    2  A    between atoms: S_1  and  C_25
REMARK    3  A    between atoms: O_2  and  C_13
REMARK    4  A    between atoms: O_6  and  C_28
REMARK    5  A    between atoms: N_8  and  C_15
REMARK    6  A    between atoms: C_11  and  C_16
REMARK    7  A    between atoms: C_15  and  C_17
REMARK    8  A    between atoms: C_18  and  C_21
REMARK    9  A    between atoms: C_24  and  C_28
REMARK   10  A    between atoms: C_31  and  C_32
REMARK                            x       y       z     vdW  Elec       q    Type
REMARK                         _______ _______ _______ _____ _____    ______ ____
ROOT
ATOM      8  N   UNL     1      -9.083 -12.194  17.945  0.00  0.00    -0.285 NA
ATOM     11  C   UNL     1      -7.882 -12.919  18.407  0.00  0.00    +0.149 C 
ATOM     12  C   UNL     1      -8.010 -14.326  17.795  0.00  0.00    +0.061 C 
ATOM     13  C   UNL     1      -9.335 -14.309  17.044  0.00  0.00    +0.130 C 
ATOM     14  C   UNL     1     -10.118 -13.204  17.729  0.00  0.00    +0.116 C 
ENDROOT
BRANCH  11  16
ATOM      3  O   UNL     1      -5.551 -12.347  18.875  0.00  0.00    -0.336 OA
ATOM      9  N   UNL     1      -6.330 -11.506  16.952  0.00  0.00    -0.193 NA
ATOM     10  N   UNL     1      -4.492 -11.630  18.306  0.00  0.00    -0.060 NA
ATOM     16  C   UNL     1      -6.594 -12.224  18.013  0.00  0.00    +0.245 A 
ATOM     18  C   UNL     1      -5.028 -11.165  17.175  0.00  0.00    +0.193 A 
BRANCH  18  21
ATOM     21  C   UNL     1      -4.265 -10.336  16.235  0.00  0.00    +0.251 C 
BRANCH  21   1
ATOM      1  S   UNL     1      -3.176 -11.383  15.310  0.00  0.00    +0.004 S 
ATOM      4  O   UNL     1      -3.730 -12.724  15.337  0.00  0.00    -0.169 OA
ATOM      5  O   UNL     1      -1.816 -11.138  15.752  0.00  0.00    -0.169 OA
BRANCH   1  25
ATOM     25  C   UNL     1      -3.304 -10.770  13.658  0.00  0.00    +0.089 A 
ATOM     26  C   UNL     1      -4.543 -10.373  13.156  0.00  0.00    +0.027 A 
ATOM     27  C   UNL     1      -2.166 -10.685  12.855  0.00  0.00    +0.027 A 
ATOM     29  C   UNL     1      -4.645  -9.892  11.851  0.00  0.00    +0.005 A 
ATOM     30  C   UNL     1      -2.268 -10.203  11.549  0.00  0.00    +0.005 A 
ATOM     31  C   UNL     1      -3.507  -9.807  11.047  0.00  0.00    -0.050 A 
ATOM     32  C   UNL     1      -3.616  -9.292   9.653  0.00  0.00    +0.044 C 
ENDBRANCH   1  25
ENDBRANCH  21   1
ENDBRANCH  18  21
ENDBRANCH  11  16
BRANCH  13   2
ATOM      2  O   UNL     1      -9.989 -15.560  17.154  0.00  0.00    -0.390 OA
ATOM     33  H   UNL     1      -9.307 -16.231  17.328  0.00  0.00    +0.210 HD
ENDBRANCH  13   2
BRANCH   8  15
ATOM     15  C   UNL     1      -9.517 -11.154  18.868  0.00  0.00    +0.120 C 
BRANCH  15  17
ATOM     17  C   UNL     1      -9.988  -9.921  18.142  0.00  0.00    -0.033 A 
ATOM     19  C   UNL     1     -11.347  -9.608  18.109  0.00  0.00    +0.006 A 
ATOM     20  C   UNL     1      -9.065  -9.093  17.503  0.00  0.00    +0.006 A 
ATOM     22  C   UNL     1     -11.783  -8.466  17.437  0.00  0.00    +0.015 A 
ATOM     23  C   UNL     1      -9.501  -7.951  16.831  0.00  0.00    +0.015 A 
ATOM     24  C   UNL     1     -10.860  -7.638  16.798  0.00  0.00    +0.059 A 
BRANCH  24  28
ATOM      7  O   UNL     1     -12.492  -6.099  15.965  0.00  0.00    -0.245 OA
ATOM     28  C   UNL     1     -11.314  -6.447  16.098  0.00  0.00    +0.337 C 
BRANCH  28   6
ATOM      6  O   UNL     1     -10.284  -5.721  15.582  0.00  0.00    -0.477 OA
ATOM     34  H   UNL     1      -9.886  -5.126  16.252  0.00  0.00    +0.295 HD
ENDBRANCH  28   6
ENDBRANCH  24  28
ENDBRANCH  15  17
ENDBRANCH   8  15
TORSDOF 9
ENDMDL
