MODEL 1
REMARK VINA RESULT:      -6.6      0.000      0.000
REMARK  Name = 75537075
REMARK  5 active torsions:
REMARK  status: ('A' for Active; 'I' for Inactive)
REMARK    1  A    between atoms: N_3  and  C_14
REMARK    2  A    between atoms: N_4  and  C_15
REMARK    3  A    between atoms: N_5  and  C_20
REMARK    4  A    between atoms: C_14  and  C_16
REMARK    5  A    between atoms: C_15  and  C_17
REMARK                            x       y       z     vdW  Elec       q    Type
REMARK                         _______ _______ _______ _____ _____    ______ ____
ROOT
ATOM      1  O   UNL     1      12.165   6.773  18.649  0.00  0.00    -0.252 OA
ATOM      2  N   UNL     1      12.905   8.832  17.796  0.00  0.00    -0.278 N 
ATOM      3  N   UNL     1      13.602  10.790  15.900  0.00  0.00    -0.292 NA
ATOM      4  N   UNL     1      14.044   7.917  19.501  0.00  0.00    -0.278 N 
ATOM      8  C   UNL     1      13.894   9.829  18.146  0.00  0.00    +0.109 C 
ATOM      9  C   UNL     1      14.601  10.343  16.892  0.00  0.00    +0.109 C 
ATOM     10  C   UNL     1      14.800   9.105  19.142  0.00  0.00    +0.133 C 
ATOM     11  C   UNL     1      11.967   9.111  16.727  0.00  0.00    +0.125 C 
ATOM     12  C   UNL     1      12.708   9.680  15.515  0.00  0.00    +0.104 C 
ATOM     13  C   UNL     1      12.936   7.723  18.650  0.00  0.00    +0.306 C 
ENDROOT
BRANCH   3  14
ATOM     14  C   UNL     1      14.269  11.340  14.720  0.00  0.00    +0.158 C 
BRANCH  14  16
ATOM      5  N   UNL     1      13.363  13.635  14.248  0.00  0.00    -0.336 N 
ATOM      6  N   UNL     1      12.560  11.985  12.997  0.00  0.00    -0.239 NA
ATOM     16  C   UNL     1      13.386  12.297  13.971  0.00  0.00    +0.124 A 
ATOM     19  C   UNL     1      12.464  14.213  13.397  0.00  0.00    +0.106 A 
ATOM     20  C   UNL     1      14.137  14.327  15.251  0.00  0.00    +0.150 C 
ATOM     21  C   UNL     1      11.981  13.176  12.635  0.00  0.00    +0.130 A 
ENDBRANCH  14  16
ENDBRANCH   3  14
BRANCH   4  15
ATOM     15  C   UNL     1      14.502   6.995  20.516  0.00  0.00    +0.164 C 
BRANCH  15  17
ATOM      7  N   UNL     1      16.239   5.995  19.146  0.00  0.00    -0.258 NA
ATOM     17  C   UNL     1      15.936   6.604  20.315  0.00  0.00    +0.059 A 
ATOM     18  C   UNL     1      16.861   6.880  21.309  0.00  0.00    +0.025 A 
ATOM     22  C   UNL     1      18.182   6.506  21.090  0.00  0.00    +0.003 A 
ATOM     23  C   UNL     1      17.534   5.646  18.969  0.00  0.00    +0.111 A 
ATOM     24  C   UNL     1      18.534   5.877  19.900  0.00  0.00    +0.020 A 
ENDBRANCH  15  17
ENDBRANCH   4  15
TORSDOF 4
ENDMDL
MODEL 2
REMARK VINA RESULT:      -6.5      4.698      9.398
REMARK  Name = 75537075
REMARK  5 active torsions:
REMARK  status: ('A' for Active; 'I' for Inactive)
REMARK    1  A    between atoms: N_3  and  C_14
REMARK    2  A    between atoms: N_4  and  C_15
REMARK    3  A    between atoms: N_5  and  C_20
REMARK    4  A    between atoms: C_14  and  C_16
REMARK    5  A    between atoms: C_15  and  C_17
REMARK                            x       y       z     vdW  Elec       q    Type
REMARK                         _______ _______ _______ _____ _____    ______ ____
ROOT
ATOM      1  O   UNL     1      15.676   9.597  20.449  0.00  0.00    -0.252 OA
ATOM      2  N   UNL     1      17.231   7.880  20.837  0.00  0.00    -0.278 N 
ATOM      3  N   UNL     1      19.727   6.613  21.116  0.00  0.00    -0.292 NA
ATOM      4  N   UNL     1      15.454   7.432  19.541  0.00  0.00    -0.278 N 
ATOM      8  C   UNL     1      17.335   6.464  20.559  0.00  0.00    +0.109 C 
ATOM      9  C   UNL     1      18.756   6.109  20.124  0.00  0.00    +0.109 C 
ATOM     10  C   UNL     1      16.261   6.224  19.498  0.00  0.00    +0.133 C 
ATOM     11  C   UNL     1      18.224   8.510  21.683  0.00  0.00    +0.125 C 
ATOM     12  C   UNL     1      19.629   8.080  21.252  0.00  0.00    +0.104 C 
ATOM     13  C   UNL     1      16.069   8.448  20.299  0.00  0.00    +0.306 C 
ENDROOT
BRANCH   3  14
ATOM     14  C   UNL     1      21.087   6.226  20.741  0.00  0.00    +0.158 C 
BRANCH  14  16
ATOM      5  N   UNL     1      22.227   5.374  22.812  0.00  0.00    -0.336 N 
ATOM      6  N   UNL     1      21.570   3.838  21.348  0.00  0.00    -0.239 NA
ATOM     16  C   UNL     1      21.618   5.124  21.613  0.00  0.00    +0.124 A 
ATOM     19  C   UNL     1      22.589   4.170  23.344  0.00  0.00    +0.106 A 
ATOM     20  C   UNL     1      22.452   6.665  23.417  0.00  0.00    +0.150 C 
ATOM     21  C   UNL     1      22.174   3.237  22.424  0.00  0.00    +0.130 A 
ENDBRANCH  14  16
ENDBRANCH   3  14
BRANCH   4  15
ATOM     15  C   UNL     1      14.247   7.575  18.756  0.00  0.00    +0.164 C 
BRANCH  15  17
ATOM      7  N   UNL     1      12.932   6.644  20.572  0.00  0.00    -0.258 NA
ATOM     17  C   UNL     1      13.017   7.594  19.615  0.00  0.00    +0.059 A 
ATOM     18  C   UNL     1      12.051   8.562  19.395  0.00  0.00    +0.025 A 
ATOM     22  C   UNL     1      10.924   8.553  20.209  0.00  0.00    +0.003 A 
ATOM     23  C   UNL     1      11.822   6.666  21.345  0.00  0.00    +0.111 A 
ATOM     24  C   UNL     1      10.800   7.590  21.205  0.00  0.00    +0.020 A 
ENDBRANCH  15  17
ENDBRANCH   4  15
TORSDOF 4
ENDMDL
MODEL 3
REMARK VINA RESULT:      -6.2     30.018     32.690
REMARK  Name = 75537075
REMARK  5 active torsions:
REMARK  status: ('A' for Active; 'I' for Inactive)
REMARK    1  A    between atoms: N_3  and  C_14
REMARK    2  A    between atoms: N_4  and  C_15
REMARK    3  A    between atoms: N_5  and  C_20
REMARK    4  A    between atoms: C_14  and  C_16
REMARK    5  A    between atoms: C_15  and  C_17
REMARK                            x       y       z     vdW  Elec       q    Type
REMARK                         _______ _______ _______ _____ _____    ______ ____
ROOT
ATOM      1  O   UNL     1     -17.207   2.078  22.539  0.00  0.00    -0.252 OA
ATOM      2  N   UNL     1     -16.471   2.265  24.761  0.00  0.00    -0.278 N 
ATOM      3  N   UNL     1     -16.425   1.903  27.550  0.00  0.00    -0.292 NA
ATOM      4  N   UNL     1     -16.479   4.113  23.485  0.00  0.00    -0.278 N 
ATOM      8  C   UNL     1     -15.861   3.281  25.592  0.00  0.00    +0.109 C 
ATOM      9  C   UNL     1     -16.477   3.268  26.990  0.00  0.00    +0.109 C 
ATOM     10  C   UNL     1     -16.082   4.572  24.805  0.00  0.00    +0.133 C 
ATOM     11  C   UNL     1     -16.606   0.918  25.275  0.00  0.00    +0.125 C 
ATOM     12  C   UNL     1     -17.170   0.954  26.698  0.00  0.00    +0.104 C 
ATOM     13  C   UNL     1     -16.770   2.733  23.475  0.00  0.00    +0.306 C 
ENDROOT
BRANCH   3  14
ATOM     14  C   UNL     1     -16.958   1.890  28.913  0.00  0.00    +0.158 C 
BRANCH  14  16
ATOM      5  N   UNL     1     -15.150   1.913  30.657  0.00  0.00    -0.336 N 
ATOM      6  N   UNL     1     -15.934  -0.084  30.079  0.00  0.00    -0.239 NA
ATOM     16  C   UNL     1     -16.025   1.212  29.874  0.00  0.00    +0.124 A 
ATOM     19  C   UNL     1     -14.457   1.006  31.407  0.00  0.00    +0.106 A 
ATOM     20  C   UNL     1     -14.977   3.345  30.696  0.00  0.00    +0.150 C 
ATOM     21  C   UNL     1     -14.957  -0.218  31.034  0.00  0.00    +0.130 A 
ENDBRANCH  14  16
ENDBRANCH   3  14
BRANCH   4  15
ATOM     15  C   UNL     1     -16.684   5.028  22.384  0.00  0.00    +0.164 C 
BRANCH  15  17
ATOM      7  N   UNL     1     -15.553   7.100  21.814  0.00  0.00    -0.258 NA
ATOM     17  C   UNL     1     -15.430   5.771  22.030  0.00  0.00    +0.059 A 
ATOM     18  C   UNL     1     -14.232   5.079  21.945  0.00  0.00    +0.025 A 
ATOM     22  C   UNL     1     -13.088   5.797  21.617  0.00  0.00    +0.003 A 
ATOM     23  C   UNL     1     -14.419   7.765  21.497  0.00  0.00    +0.111 A 
ATOM     24  C   UNL     1     -13.175   7.167  21.386  0.00  0.00    +0.020 A 
ENDBRANCH  15  17
ENDBRANCH   4  15
TORSDOF 4
ENDMDL
MODEL 4
REMARK VINA RESULT:      -6.2      4.856      8.293
REMARK  Name = 75537075
REMARK  5 active torsions:
REMARK  status: ('A' for Active; 'I' for Inactive)
REMARK    1  A    between atoms: N_3  and  C_14
REMARK    2  A    between atoms: N_4  and  C_15
REMARK    3  A    between atoms: N_5  and  C_20
REMARK    4  A    between atoms: C_14  and  C_16
REMARK    5  A    between atoms: C_15  and  C_17
REMARK                            x       y       z     vdW  Elec       q    Type
REMARK                         _______ _______ _______ _____ _____    ______ ____
ROOT
ATOM      1  O   UNL     1      12.426   6.994  19.109  0.00  0.00    -0.252 OA
ATOM      2  N   UNL     1      14.676   7.260  19.727  0.00  0.00    -0.278 N 
ATOM      3  N   UNL     1      17.410   6.659  20.004  0.00  0.00    -0.292 NA
ATOM      4  N   UNL     1      13.093   7.787  21.229  0.00  0.00    -0.278 N 
ATOM      8  C   UNL     1      15.409   7.817  20.844  0.00  0.00    +0.109 C 
ATOM      9  C   UNL     1      16.593   6.922  21.206  0.00  0.00    +0.109 C 
ATOM     10  C   UNL     1      14.350   7.955  21.937  0.00  0.00    +0.133 C 
ATOM     11  C   UNL     1      15.402   6.828  18.550  0.00  0.00    +0.125 C 
ATOM     12  C   UNL     1      16.612   5.985  18.961  0.00  0.00    +0.104 C 
ATOM     13  C   UNL     1      13.290   7.311  19.916  0.00  0.00    +0.306 C 
ENDROOT
BRANCH   3  14
ATOM     14  C   UNL     1      18.581   5.852  20.351  0.00  0.00    +0.158 C 
BRANCH  14  16
ATOM      5  N   UNL     1      20.899   6.152  21.270  0.00  0.00    -0.336 N 
ATOM      6  N   UNL     1      19.655   7.986  21.124  0.00  0.00    -0.239 NA
ATOM     16  C   UNL     1      19.694   6.689  20.913  0.00  0.00    +0.124 A 
ATOM     19  C   UNL     1      21.678   7.171  21.739  0.00  0.00    +0.106 A 
ATOM     20  C   UNL     1      21.293   4.767  21.176  0.00  0.00    +0.150 C 
ATOM     21  C   UNL     1      20.889   8.293  21.639  0.00  0.00    +0.130 A 
ENDBRANCH  14  16
ENDBRANCH   3  14
BRANCH   4  15
ATOM     15  C   UNL     1      11.815   7.953  21.885  0.00  0.00    +0.164 C 
BRANCH  15  17
ATOM      7  N   UNL     1      11.154   9.648  23.493  0.00  0.00    -0.258 NA
ATOM     17  C   UNL     1      11.539   9.388  22.223  0.00  0.00    +0.059 A 
ATOM     18  C   UNL     1      11.691  10.357  21.244  0.00  0.00    +0.025 A 
ATOM     22  C   UNL     1      11.429  11.678  21.590  0.00  0.00    +0.003 A 
ATOM     23  C   UNL     1      10.909  10.944  23.793  0.00  0.00    +0.111 A 
ATOM     24  C   UNL     1      11.030  11.986  22.888  0.00  0.00    +0.020 A 
ENDBRANCH  15  17
ENDBRANCH   4  15
TORSDOF 4
ENDMDL
MODEL 5
REMARK VINA RESULT:      -5.8     28.205     30.990
REMARK  Name = 75537075
REMARK  5 active torsions:
REMARK  status: ('A' for Active; 'I' for Inactive)
REMARK    1  A    between atoms: N_3  and  C_14
REMARK    2  A    between atoms: N_4  and  C_15
REMARK    3  A    between atoms: N_5  and  C_20
REMARK    4  A    between atoms: C_14  and  C_16
REMARK    5  A    between atoms: C_15  and  C_17
REMARK                            x       y       z     vdW  Elec       q    Type
REMARK                         _______ _______ _______ _____ _____    ______ ____
ROOT
ATOM      1  O   UNL     1     -12.629  -8.275  13.366  0.00  0.00    -0.252 OA
ATOM      2  N   UNL     1     -10.747  -8.123  14.763  0.00  0.00    -0.278 N 
ATOM      3  N   UNL     1      -8.685  -8.950  16.488  0.00  0.00    -0.292 NA
ATOM      4  N   UNL     1     -12.361  -6.577  14.980  0.00  0.00    -0.278 N 
ATOM      8  C   UNL     1     -10.219  -7.183  15.728  0.00  0.00    +0.109 C 
ATOM      9  C   UNL     1      -9.648  -7.923  16.936  0.00  0.00    +0.109 C 
ATOM     10  C   UNL     1     -11.409  -6.274  16.035  0.00  0.00    +0.133 C 
ATOM     11  C   UNL     1      -9.939  -9.257  14.364  0.00  0.00    +0.125 C 
ATOM     12  C   UNL     1      -9.338  -9.933  15.600  0.00  0.00    +0.104 C 
ATOM     13  C   UNL     1     -11.990  -7.727  14.253  0.00  0.00    +0.306 C 
ENDROOT
BRANCH   3  14
ATOM     14  C   UNL     1      -8.087  -9.624  17.641  0.00  0.00    +0.158 C 
BRANCH  14  16
ATOM      5  N   UNL     1      -5.937 -10.763  18.265  0.00  0.00    -0.336 N 
ATOM      6  N   UNL     1      -5.923  -9.609  16.367  0.00  0.00    -0.239 NA
ATOM     16  C   UNL     1      -6.649  -9.983  17.398  0.00  0.00    +0.124 A 
ATOM     19  C   UNL     1      -4.677 -10.895  17.756  0.00  0.00    +0.106 A 
ATOM     20  C   UNL     1      -6.412 -11.347  19.497  0.00  0.00    +0.150 C 
ATOM     21  C   UNL     1      -4.691 -10.175  16.585  0.00  0.00    +0.130 A 
ENDBRANCH  14  16
ENDBRANCH   3  14
BRANCH   4  15
ATOM     15  C   UNL     1     -13.601  -5.848  14.835  0.00  0.00    +0.164 C 
BRANCH  15  17
ATOM      7  N   UNL     1     -12.352  -4.483  13.262  0.00  0.00    -0.258 NA
ATOM     17  C   UNL     1     -13.570  -4.915  13.661  0.00  0.00    +0.059 A 
ATOM     18  C   UNL     1     -14.760  -4.550  13.052  0.00  0.00    +0.025 A 
ATOM     22  C   UNL     1     -14.697  -3.685  11.965  0.00  0.00    +0.003 A 
ATOM     23  C   UNL     1     -12.330  -3.643  12.202  0.00  0.00    +0.111 A 
ATOM     24  C   UNL     1     -13.462  -3.218  11.525  0.00  0.00    +0.020 A 
ENDBRANCH  15  17
ENDBRANCH   4  15
TORSDOF 4
ENDMDL
MODEL 6
REMARK VINA RESULT:      -5.7     26.885     29.221
REMARK  Name = 75537075
REMARK  5 active torsions:
REMARK  status: ('A' for Active; 'I' for Inactive)
REMARK    1  A    between atoms: N_3  and  C_14
REMARK    2  A    between atoms: N_4  and  C_15
REMARK    3  A    between atoms: N_5  and  C_20
REMARK    4  A    between atoms: C_14  and  C_16
REMARK    5  A    between atoms: C_15  and  C_17
REMARK                            x       y       z     vdW  Elec       q    Type
REMARK                         _______ _______ _______ _____ _____    ______ ____
ROOT
ATOM      1  O   UNL     1      -3.928 -14.027  13.968  0.00  0.00    -0.252 OA
ATOM      2  N   UNL     1      -4.323 -12.542  15.744  0.00  0.00    -0.278 N 
ATOM      3  N   UNL     1      -5.761 -10.980  17.589  0.00  0.00    -0.292 NA
ATOM      4  N   UNL     1      -2.722 -12.021  14.258  0.00  0.00    -0.278 N 
ATOM      8  C   UNL     1      -3.712 -11.343  16.277  0.00  0.00    +0.109 C 
ATOM      9  C   UNL     1      -4.785 -10.335  16.688  0.00  0.00    +0.109 C 
ATOM     10  C   UNL     1      -2.791 -10.876  15.150  0.00  0.00    +0.133 C 
ATOM     11  C   UNL     1      -5.399 -13.174  16.479  0.00  0.00    +0.125 C 
ATOM     12  C   UNL     1      -6.419 -12.123  16.923  0.00  0.00    +0.104 C 
ATOM     13  C   UNL     1      -3.686 -12.997  14.582  0.00  0.00    +0.306 C 
ENDROOT
BRANCH   3  14
ATOM     14  C   UNL     1      -6.759 -10.009  18.038  0.00  0.00    +0.158 C 
BRANCH  14  16
ATOM      5  N   UNL     1      -9.192 -10.635  18.011  0.00  0.00    -0.336 N 
ATOM      6  N   UNL     1      -8.009 -11.355  19.749  0.00  0.00    -0.239 NA
ATOM     16  C   UNL     1      -7.970 -10.677  18.623  0.00  0.00    +0.124 A 
ATOM     19  C   UNL     1     -10.065 -11.332  18.796  0.00  0.00    +0.106 A 
ATOM     20  C   UNL     1      -9.516  -9.981  16.766  0.00  0.00    +0.150 C 
ATOM     21  C   UNL     1      -9.314 -11.767  19.862  0.00  0.00    +0.130 A 
ENDBRANCH  14  16
ENDBRANCH   3  14
BRANCH   4  15
ATOM     15  C   UNL     1      -1.856 -12.039  13.100  0.00  0.00    +0.164 C 
BRANCH  15  17
ATOM      7  N   UNL     1      -3.464 -11.673  11.318  0.00  0.00    -0.258 NA
ATOM     17  C   UNL     1      -2.392 -11.191  11.985  0.00  0.00    +0.059 A 
ATOM     18  C   UNL     1      -1.780  -9.981  11.698  0.00  0.00    +0.025 A 
ATOM     22  C   UNL     1      -2.301  -9.218  10.659  0.00  0.00    +0.003 A 
ATOM     23  C   UNL     1      -3.944 -10.904  10.315  0.00  0.00    +0.111 A 
ATOM     24  C   UNL     1      -3.405  -9.681   9.949  0.00  0.00    +0.020 A 
ENDBRANCH  15  17
ENDBRANCH   4  15
TORSDOF 4
ENDMDL
MODEL 7
REMARK VINA RESULT:      -5.7      3.825      6.986
REMARK  Name = 75537075
REMARK  5 active torsions:
REMARK  status: ('A' for Active; 'I' for Inactive)
REMARK    1  A    between atoms: N_3  and  C_14
REMARK    2  A    between atoms: N_4  and  C_15
REMARK    3  A    between atoms: N_5  and  C_20
REMARK    4  A    between atoms: C_14  and  C_16
REMARK    5  A    between atoms: C_15  and  C_17
REMARK                            x       y       z     vdW  Elec       q    Type
REMARK                         _______ _______ _______ _____ _____    ______ ____
ROOT
ATOM      1  O   UNL     1      15.122  10.397  14.171  0.00  0.00    -0.252 OA
ATOM      2  N   UNL     1      14.385   9.904  16.345  0.00  0.00    -0.278 N 
ATOM      3  N   UNL     1      12.630   9.177  18.421  0.00  0.00    -0.292 NA
ATOM      4  N   UNL     1      15.705  11.696  16.051  0.00  0.00    -0.278 N 
ATOM      8  C   UNL     1      14.643  10.387  17.685  0.00  0.00    +0.109 C 
ATOM      9  C   UNL     1      13.341  10.470  18.482  0.00  0.00    +0.109 C 
ATOM     10  C   UNL     1      15.343  11.726  17.458  0.00  0.00    +0.133 C 
ATOM     11  C   UNL     1      13.568   8.721  16.164  0.00  0.00    +0.125 C 
ATOM     12  C   UNL     1      12.306   8.819  17.025  0.00  0.00    +0.104 C 
ATOM     13  C   UNL     1      15.079  10.631  15.371  0.00  0.00    +0.306 C 
ENDROOT
BRANCH   3  14
ATOM     14  C   UNL     1      11.413   9.227  19.230  0.00  0.00    +0.158 C 
BRANCH  14  16
ATOM      5  N   UNL     1      11.012   8.334  21.544  0.00  0.00    -0.336 N 
ATOM      6  N   UNL     1      11.641   6.852  20.013  0.00  0.00    -0.239 NA
ATOM     16  C   UNL     1      11.364   8.117  20.240  0.00  0.00    +0.124 A 
ATOM     19  C   UNL     1      11.068   7.131  22.188  0.00  0.00    +0.106 A 
ATOM     20  C   UNL     1      10.645   9.594  22.145  0.00  0.00    +0.150 C 
ATOM     21  C   UNL     1      11.459   6.232  21.224  0.00  0.00    +0.130 A 
ENDBRANCH  14  16
ENDBRANCH   3  14
BRANCH   4  15
ATOM     15  C   UNL     1      16.492  12.743  15.439  0.00  0.00    +0.164 C 
BRANCH  15  17
ATOM      7  N   UNL     1      18.665  12.837  16.521  0.00  0.00    -0.258 NA
ATOM     17  C   UNL     1      17.958  12.421  15.446  0.00  0.00    +0.059 A 
ATOM     18  C   UNL     1      18.505  11.728  14.378  0.00  0.00    +0.025 A 
ATOM     22  C   UNL     1      19.865  11.444  14.415  0.00  0.00    +0.003 A 
ATOM     23  C   UNL     1      19.985  12.543  16.522  0.00  0.00    +0.111 A 
ATOM     24  C   UNL     1      20.627  11.855  15.505  0.00  0.00    +0.020 A 
ENDBRANCH  15  17
ENDBRANCH   4  15
TORSDOF 4
ENDMDL
MODEL 8
REMARK VINA RESULT:      -5.7      3.163      8.710
REMARK  Name = 75537075
REMARK  5 active torsions:
REMARK  status: ('A' for Active; 'I' for Inactive)
REMARK    1  A    between atoms: N_3  and  C_14
REMARK    2  A    between atoms: N_4  and  C_15
REMARK    3  A    between atoms: N_5  and  C_20
REMARK    4  A    between atoms: C_14  and  C_16
REMARK    5  A    between atoms: C_15  and  C_17
REMARK                            x       y       z     vdW  Elec       q    Type
REMARK                         _______ _______ _______ _____ _____    ______ ____
ROOT
ATOM      1  O   UNL     1      14.191   6.540  19.689  0.00  0.00    -0.252 OA
ATOM      2  N   UNL     1      16.240   7.565  20.205  0.00  0.00    -0.278 N 
ATOM      3  N   UNL     1      18.765   7.935  21.388  0.00  0.00    -0.292 NA
ATOM      4  N   UNL     1      14.392   8.839  20.175  0.00  0.00    -0.278 N 
ATOM      8  C   UNL     1      16.726   8.911  20.417  0.00  0.00    +0.109 C 
ATOM      9  C   UNL     1      17.707   8.946  21.588  0.00  0.00    +0.109 C 
ATOM     10  C   UNL     1      15.451   9.727  20.623  0.00  0.00    +0.133 C 
ATOM     11  C   UNL     1      17.188   6.471  20.143  0.00  0.00    +0.125 C 
ATOM     12  C   UNL     1      18.188   6.579  21.298  0.00  0.00    +0.104 C 
ATOM     13  C   UNL     1      14.858   7.523  19.981  0.00  0.00    +0.306 C 
ENDROOT
BRANCH   3  14
ATOM     14  C   UNL     1      19.744   8.001  22.473  0.00  0.00    +0.158 C 
BRANCH  14  16
ATOM      5  N   UNL     1      21.759   6.896  21.460  0.00  0.00    -0.336 N 
ATOM      6  N   UNL     1      20.801   5.828  23.155  0.00  0.00    -0.239 NA
ATOM     16  C   UNL     1      20.754   6.894  22.387  0.00  0.00    +0.124 A 
ATOM     19  C   UNL     1      22.493   5.760  21.649  0.00  0.00    +0.106 A 
ATOM     20  C   UNL     1      22.013   7.905  20.458  0.00  0.00    +0.150 C 
ATOM     21  C   UNL     1      21.883   5.117  22.700  0.00  0.00    +0.130 A 
ENDBRANCH  14  16
ENDBRANCH   3  14
BRANCH   4  15
ATOM     15  C   UNL     1      13.012   9.267  20.102  0.00  0.00    +0.164 C 
BRANCH  15  17
ATOM      7  N   UNL     1      11.359   8.490  18.502  0.00  0.00    -0.258 NA
ATOM     17  C   UNL     1      12.482   9.216  18.699  0.00  0.00    +0.059 A 
ATOM     18  C   UNL     1      13.150   9.900  17.696  0.00  0.00    +0.025 A 
ATOM     22  C   UNL     1      12.632   9.834  16.408  0.00  0.00    +0.003 A 
ATOM     23  C   UNL     1      10.884   8.449  17.237  0.00  0.00    +0.111 A 
ATOM     24  C   UNL     1      11.477   9.097  16.165  0.00  0.00    +0.020 A 
ENDBRANCH  15  17
ENDBRANCH   4  15
TORSDOF 4
ENDMDL
MODEL 9
REMARK VINA RESULT:      -5.6     26.496     29.136
REMARK  Name = 75537075
REMARK  5 active torsions:
REMARK  status: ('A' for Active; 'I' for Inactive)
REMARK    1  A    between atoms: N_3  and  C_14
REMARK    2  A    between atoms: N_4  and  C_15
REMARK    3  A    between atoms: N_5  and  C_20
REMARK    4  A    between atoms: C_14  and  C_16
REMARK    5  A    between atoms: C_15  and  C_17
REMARK                            x       y       z     vdW  Elec       q    Type
REMARK                         _______ _______ _______ _____ _____    ______ ____
ROOT
ATOM      1  O   UNL     1     -13.119  10.065  20.775  0.00  0.00    -0.252 OA
ATOM      2  N   UNL     1     -13.631   7.813  21.202  0.00  0.00    -0.278 N 
ATOM      3  N   UNL     1     -14.598   5.555  22.573  0.00  0.00    -0.292 NA
ATOM      4  N   UNL     1     -11.614   8.302  20.344  0.00  0.00    -0.278 N 
ATOM      8  C   UNL     1     -13.023   6.524  20.949  0.00  0.00    +0.109 C 
ATOM      9  C   UNL     1     -13.179   5.613  22.166  0.00  0.00    +0.109 C 
ATOM     10  C   UNL     1     -11.580   6.870  20.587  0.00  0.00    +0.133 C 
ATOM     11  C   UNL     1     -14.972   7.869  21.746  0.00  0.00    +0.125 C 
ATOM     12  C   UNL     1     -15.101   6.899  22.923  0.00  0.00    +0.104 C 
ATOM     13  C   UNL     1     -12.828   8.877  20.771  0.00  0.00    +0.306 C 
ENDROOT
BRANCH   3  14
ATOM     14  C   UNL     1     -14.768   4.638  23.700  0.00  0.00    +0.158 C 
BRANCH  14  16
ATOM      5  N   UNL     1     -17.121   4.137  24.420  0.00  0.00    -0.336 N 
ATOM      6  N   UNL     1     -16.307   2.882  22.777  0.00  0.00    -0.239 NA
ATOM     16  C   UNL     1     -16.054   3.868  23.609  0.00  0.00    +0.124 A 
ATOM     19  C   UNL     1     -18.119   3.267  24.084  0.00  0.00    +0.106 A 
ATOM     20  C   UNL     1     -17.198   5.148  25.447  0.00  0.00    +0.150 C 
ATOM     21  C   UNL     1     -17.594   2.502  23.068  0.00  0.00    +0.130 A 
ENDBRANCH  14  16
ENDBRANCH   3  14
BRANCH   4  15
ATOM     15  C   UNL     1     -10.458   9.026  19.864  0.00  0.00    +0.164 C 
BRANCH  15  17
ATOM      7  N   UNL     1     -10.806   8.135  17.632  0.00  0.00    -0.258 NA
ATOM     17  C   UNL     1     -10.494   9.220  18.376  0.00  0.00    +0.059 A 
ATOM     18  C   UNL     1     -10.217  10.470  17.848  0.00  0.00    +0.025 A 
ATOM     22  C   UNL     1     -10.261  10.617  16.466  0.00  0.00    +0.003 A 
ATOM     23  C   UNL     1     -10.839   8.316  16.292  0.00  0.00    +0.111 A 
ATOM     24  C   UNL     1     -10.577   9.524  15.665  0.00  0.00    +0.020 A 
ENDBRANCH  15  17
ENDBRANCH   4  15
TORSDOF 4
ENDMDL
MODEL 10
REMARK VINA RESULT:      -5.4      3.518      9.384
REMARK  Name = 75537075
REMARK  5 active torsions:
REMARK  status: ('A' for Active; 'I' for Inactive)
REMARK    1  A    between atoms: N_3  and  C_14
REMARK    2  A    between atoms: N_4  and  C_15
REMARK    3  A    between atoms: N_5  and  C_20
REMARK    4  A    between atoms: C_14  and  C_16
REMARK    5  A    between atoms: C_15  and  C_17
REMARK                            x       y       z     vdW  Elec       q    Type
REMARK                         _______ _______ _______ _____ _____    ______ ____
ROOT
ATOM      1  O   UNL     1      15.458   6.104  19.391  0.00  0.00    -0.252 OA
ATOM      2  N   UNL     1      17.533   6.855  20.193  0.00  0.00    -0.278 N 
ATOM      3  N   UNL     1      20.112   6.742  21.312  0.00  0.00    -0.292 NA
ATOM      4  N   UNL     1      15.691   8.000  20.775  0.00  0.00    -0.278 N 
ATOM      8  C   UNL     1      18.035   8.001  20.921  0.00  0.00    +0.109 C 
ATOM      9  C   UNL     1      19.069   7.564  21.957  0.00  0.00    +0.109 C 
ATOM     10  C   UNL     1      16.774   8.639  21.503  0.00  0.00    +0.133 C 
ATOM     11  C   UNL     1      18.473   5.900  19.643  0.00  0.00    +0.125 C 
ATOM     12  C   UNL     1      19.525   5.536  20.694  0.00  0.00    +0.104 C 
ATOM     13  C   UNL     1      16.142   6.889  20.033  0.00  0.00    +0.306 C 
ENDROOT
BRANCH   3  14
ATOM     14  C   UNL     1      21.140   6.368  22.283  0.00  0.00    +0.158 C 
BRANCH  14  16
ATOM      5  N   UNL     1      22.826   4.570  21.797  0.00  0.00    -0.336 N 
ATOM      6  N   UNL     1      23.166   6.530  20.808  0.00  0.00    -0.239 NA
ATOM     16  C   UNL     1      22.382   5.851  21.615  0.00  0.00    +0.124 A 
ATOM     19  C   UNL     1      23.965   4.425  21.059  0.00  0.00    +0.106 A 
ATOM     20  C   UNL     1      22.216   3.548  22.613  0.00  0.00    +0.150 C 
ATOM     21  C   UNL     1      24.156   5.646  20.458  0.00  0.00    +0.130 A 
ENDBRANCH  14  16
ENDBRANCH   3  14
BRANCH   4  15
ATOM     15  C   UNL     1      14.312   8.399  20.946  0.00  0.00    +0.164 C 
BRANCH  15  17
ATOM      7  N   UNL     1      12.601   7.993  19.271  0.00  0.00    -0.258 NA
ATOM     17  C   UNL     1      13.661   8.746  19.639  0.00  0.00    +0.059 A 
ATOM     18  C   UNL     1      14.163   9.798  18.890  0.00  0.00    +0.025 A 
ATOM     22  C   UNL     1      13.536  10.096  17.685  0.00  0.00    +0.003 A 
ATOM     23  C   UNL     1      12.017   8.311  18.093  0.00  0.00    +0.111 A 
ATOM     24  C   UNL     1      12.442   9.343  17.271  0.00  0.00    +0.020 A 
ENDBRANCH  15  17
ENDBRANCH   4  15
TORSDOF 4
ENDMDL
