MODEL 1
REMARK VINA RESULT:      -7.0      0.000      0.000
REMARK  Name = 51138091
REMARK  13 active torsions:
REMARK  status: ('A' for Active; 'I' for Inactive)
REMARK    1  A    between atoms: N_3  and  C_21
REMARK    2  A    between atoms: N_4  and  C_26
REMARK    3  A    between atoms: N_5  and  C_29
REMARK    4  A    between atoms: N_7  and  C_27
REMARK    5  A    between atoms: N_7  and  C_31
REMARK    6  A    between atoms: N_7  and  C_32
REMARK    7  A    between atoms: C_8  and  C_13
REMARK    8  A    between atoms: C_11  and  C_19
REMARK    9  A    between atoms: C_13  and  C_16
REMARK   10  A    between atoms: C_16  and  C_23
REMARK   11  A    between atoms: C_16  and  C_24
REMARK   12  A    between atoms: C_21  and  C_25
REMARK   13  A    between atoms: C_26  and  C_27
REMARK                            x       y       z     vdW  Elec       q    Type
REMARK                         _______ _______ _______ _____ _____    ______ ____
ROOT
ATOM      2  N   UNL     1      -6.842 -10.788  16.085  0.00  0.00    -0.299 NA
ATOM      3  N   UNL     1      -3.982 -10.240  11.960  0.00  0.00    -0.339 N 
ATOM      8  C   UNL     1      -5.464 -10.647  16.572  0.00  0.00    +0.085 C 
ATOM      9  C   UNL     1      -4.370 -10.649  15.499  0.00  0.00    -0.021 A 
ATOM     10  C   UNL     1      -4.587 -10.437  14.107  0.00  0.00    +0.008 A 
ATOM     11  C   UNL     1      -7.305  -9.692  15.247  0.00  0.00    +0.145 C 
ATOM     12  C   UNL     1      -5.751 -10.166  13.306  0.00  0.00    -0.020 A 
ATOM     14  C   UNL     1      -7.165 -10.023  13.762  0.00  0.00    +0.065 C 
ATOM     15  C   UNL     1      -3.497 -10.450  13.228  0.00  0.00    +0.050 A 
ATOM     17  C   UNL     1      -5.333 -10.062  11.995  0.00  0.00    +0.091 A 
ATOM     18  C   UNL     1      -3.020 -10.795  15.905  0.00  0.00    +0.006 A 
ATOM     20  C   UNL     1      -2.178 -10.642  13.643  0.00  0.00    +0.026 A 
ATOM     22  C   UNL     1      -1.956 -10.802  15.005  0.00  0.00    +0.002 A 
ATOM     33  H   UNL     1      -6.974 -11.687  15.623  0.00  0.00    +0.123 HD
ENDROOT
BRANCH  11  19
ATOM      1  O   UNL     1      -9.450 -10.482  15.936  0.00  0.00    -0.274 OA
ATOM      4  N   UNL     1      -9.193  -8.229  15.406  0.00  0.00    -0.313 N 
ATOM     19  C   UNL     1      -8.758  -9.532  15.578  0.00  0.00    +0.230 C 
ATOM     34  H   UNL     1      -8.531  -7.515  15.120  0.00  0.00    +0.149 HD
BRANCH   4  26
ATOM     26  C   UNL     1     -10.559  -7.815  15.637  0.00  0.00    +0.119 C 
BRANCH  26  27
ATOM     27  C   UNL     1     -10.659  -6.305  15.792  0.00  0.00    +0.102 C 
BRANCH  27   7
ATOM      7  N   UNL     1     -12.010  -5.852  15.486  0.00  0.00    -0.307 NA
ATOM     31  C   UNL     1     -12.128  -5.501  14.070  0.00  0.00    +0.104 C 
ATOM     32  C   UNL     1     -12.991  -6.880  15.836  0.00  0.00    +0.104 C 
ENDBRANCH  27   7
ENDBRANCH  26  27
ENDBRANCH   4  26
ENDBRANCH  11  19
BRANCH   8  13
ATOM     13  C   UNL     1      -5.291 -11.789  17.591  0.00  0.00    +0.026 C 
BRANCH  13  16
ATOM     16  C   UNL     1      -4.831 -11.296  18.967  0.00  0.00    -0.015 C 
ATOM     23  C   UNL     1      -3.696 -12.192  19.469  0.00  0.00    +0.007 C 
ATOM     24  C   UNL     1      -5.964 -11.273  19.994  0.00  0.00    +0.007 C 
ENDBRANCH  13  16
ENDBRANCH   8  13
BRANCH   3  21
ATOM     21  C   UNL     1      -3.186 -10.189  10.751  0.00  0.00    +0.196 C 
BRANCH  21  25
ATOM      5  N   UNL     1      -4.387 -11.440   8.924  0.00  0.00    -0.336 N 
ATOM      6  N   UNL     1      -4.455  -9.223   8.804  0.00  0.00    -0.239 NA
ATOM     25  C   UNL     1      -4.011 -10.253   9.490  0.00  0.00    +0.129 A 
ATOM     28  C   UNL     1      -5.116 -11.148   7.806  0.00  0.00    +0.106 A 
ATOM     29  C   UNL     1      -4.077 -12.766   9.404  0.00  0.00    +0.150 C 
ATOM     30  C   UNL     1      -5.144  -9.774   7.753  0.00  0.00    +0.130 A 
ENDBRANCH  21  25
ENDBRANCH   3  21
TORSDOF 8
ENDMDL
MODEL 2
REMARK VINA RESULT:      -6.8     27.334     29.694
REMARK  Name = 51138091
REMARK  13 active torsions:
REMARK  status: ('A' for Active; 'I' for Inactive)
REMARK    1  A    between atoms: N_3  and  C_21
REMARK    2  A    between atoms: N_4  and  C_26
REMARK    3  A    between atoms: N_5  and  C_29
REMARK    4  A    between atoms: N_7  and  C_27
REMARK    5  A    between atoms: N_7  and  C_31
REMARK    6  A    between atoms: N_7  and  C_32
REMARK    7  A    between atoms: C_8  and  C_13
REMARK    8  A    between atoms: C_11  and  C_19
REMARK    9  A    between atoms: C_13  and  C_16
REMARK   10  A    between atoms: C_16  and  C_23
REMARK   11  A    between atoms: C_16  and  C_24
REMARK   12  A    between atoms: C_21  and  C_25
REMARK   13  A    between atoms: C_26  and  C_27
REMARK                            x       y       z     vdW  Elec       q    Type
REMARK                         _______ _______ _______ _____ _____    ______ ____
ROOT
ATOM      2  N   UNL     1      14.009   9.338  18.698  0.00  0.00    -0.299 NA
ATOM      3  N   UNL     1      11.336  10.919  22.680  0.00  0.00    -0.339 N 
ATOM      8  C   UNL     1      13.086   8.241  19.019  0.00  0.00    +0.085 C 
ATOM      9  C   UNL     1      12.282   8.399  20.314  0.00  0.00    -0.021 A 
ATOM     10  C   UNL     1      12.104   9.621  21.025  0.00  0.00    +0.008 A 
ATOM     11  C   UNL     1      13.365  10.618  18.445  0.00  0.00    +0.145 C 
ATOM     12  C   UNL     1      12.541  10.975  20.810  0.00  0.00    -0.020 A 
ATOM     14  C   UNL     1      13.370  11.505  19.689  0.00  0.00    +0.065 C 
ATOM     15  C   UNL     1      11.332   9.635  22.193  0.00  0.00    +0.050 A 
ATOM     17  C   UNL     1      12.054  11.734  21.855  0.00  0.00    +0.091 A 
ATOM     18  C   UNL     1      11.589   7.273  20.825  0.00  0.00    +0.006 A 
ATOM     20  C   UNL     1      10.695   8.503  22.705  0.00  0.00    +0.026 A 
ATOM     22  C   UNL     1      10.827   7.319  21.991  0.00  0.00    +0.002 A 
ATOM     33  H   UNL     1      14.733   9.423  19.410  0.00  0.00    +0.123 HD
ENDROOT
BRANCH  11  19
ATOM      1  O   UNL     1      14.874  12.266  17.602  0.00  0.00    -0.274 OA
ATOM      4  N   UNL     1      14.066  10.629  16.156  0.00  0.00    -0.313 N 
ATOM     19  C   UNL     1      14.193  11.268  17.377  0.00  0.00    +0.230 C 
ATOM     34  H   UNL     1      13.486   9.799  16.084  0.00  0.00    +0.149 HD
BRANCH   4  26
ATOM     26  C   UNL     1      14.744  11.072  14.958  0.00  0.00    +0.119 C 
BRANCH  26  27
ATOM     27  C   UNL     1      13.988  12.208  14.284  0.00  0.00    +0.102 C 
BRANCH  27   7
ATOM      7  N   UNL     1      13.787  11.915  12.871  0.00  0.00    -0.307 NA
ATOM     31  C   UNL     1      12.525  12.489  12.400  0.00  0.00    +0.104 C 
ATOM     32  C   UNL     1      14.904  12.425  12.074  0.00  0.00    +0.104 C 
ENDBRANCH  27   7
ENDBRANCH  26  27
ENDBRANCH   4  26
ENDBRANCH  11  19
BRANCH   8  13
ATOM     13  C   UNL     1      13.967   6.978  19.024  0.00  0.00    +0.026 C 
BRANCH  13  16
ATOM     16  C   UNL     1      15.334   7.207  19.677  0.00  0.00    -0.015 C 
ATOM     23  C   UNL     1      16.367   6.288  19.018  0.00  0.00    +0.007 C 
ATOM     24  C   UNL     1      15.315   6.964  21.186  0.00  0.00    +0.007 C 
ENDBRANCH  13  16
ENDBRANCH   8  13
BRANCH   3  21
ATOM     21  C   UNL     1      10.665  11.367  23.883  0.00  0.00    +0.196 C 
BRANCH  21  25
ATOM      5  N   UNL     1      11.288  13.562  24.949  0.00  0.00    -0.336 N 
ATOM      6  N   UNL     1      12.586  11.828  25.443  0.00  0.00    -0.239 NA
ATOM     25  C   UNL     1      11.532  12.229  24.765  0.00  0.00    +0.129 A 
ATOM     28  C   UNL     1      12.247  14.042  25.795  0.00  0.00    +0.106 A 
ATOM     29  C   UNL     1      10.220  14.336  24.362  0.00  0.00    +0.150 C 
ATOM     30  C   UNL     1      13.036  12.953  26.086  0.00  0.00    +0.130 A 
ENDBRANCH  21  25
ENDBRANCH   3  21
TORSDOF 8
ENDMDL
MODEL 3
REMARK VINA RESULT:      -6.7      2.651      4.272
REMARK  Name = 51138091
REMARK  13 active torsions:
REMARK  status: ('A' for Active; 'I' for Inactive)
REMARK    1  A    between atoms: N_3  and  C_21
REMARK    2  A    between atoms: N_4  and  C_26
REMARK    3  A    between atoms: N_5  and  C_29
REMARK    4  A    between atoms: N_7  and  C_27
REMARK    5  A    between atoms: N_7  and  C_31
REMARK    6  A    between atoms: N_7  and  C_32
REMARK    7  A    between atoms: C_8  and  C_13
REMARK    8  A    between atoms: C_11  and  C_19
REMARK    9  A    between atoms: C_13  and  C_16
REMARK   10  A    between atoms: C_16  and  C_23
REMARK   11  A    between atoms: C_16  and  C_24
REMARK   12  A    between atoms: C_21  and  C_25
REMARK   13  A    between atoms: C_26  and  C_27
REMARK                            x       y       z     vdW  Elec       q    Type
REMARK                         _______ _______ _______ _____ _____    ______ ____
ROOT
ATOM      2  N   UNL     1      -8.963 -10.341  17.820  0.00  0.00    -0.299 NA
ATOM      3  N   UNL     1      -4.186 -10.612  16.204  0.00  0.00    -0.339 N 
ATOM      8  C   UNL     1      -8.155 -10.627  19.013  0.00  0.00    +0.085 C 
ATOM      9  C   UNL     1      -6.676 -10.940  18.761  0.00  0.00    -0.021 A 
ATOM     10  C   UNL     1      -5.971 -10.652  17.557  0.00  0.00    +0.008 A 
ATOM     11  C   UNL     1      -8.569  -9.144  17.092  0.00  0.00    +0.145 C 
ATOM     12  C   UNL     1      -6.332 -10.033  16.310  0.00  0.00    -0.020 A 
ATOM     14  C   UNL     1      -7.658  -9.480  15.911  0.00  0.00    +0.065 C 
ATOM     15  C   UNL     1      -4.613 -10.978  17.459  0.00  0.00    +0.050 A 
ATOM     17  C   UNL     1      -5.209 -10.038  15.508  0.00  0.00    +0.091 A 
ATOM     18  C   UNL     1      -5.909 -11.490  19.819  0.00  0.00    +0.006 A 
ATOM     20  C   UNL     1      -3.885 -11.562  18.497  0.00  0.00    +0.026 A 
ATOM     22  C   UNL     1      -4.557 -11.802  19.689  0.00  0.00    +0.002 A 
ATOM     33  H   UNL     1      -9.001 -11.152  17.204  0.00  0.00    +0.123 HD
ENDROOT
BRANCH  11  19
ATOM      1  O   UNL     1     -10.568  -9.172  15.787  0.00  0.00    -0.274 OA
ATOM      4  N   UNL     1     -10.079  -7.287  17.064  0.00  0.00    -0.313 N 
ATOM     19  C   UNL     1      -9.848  -8.561  16.573  0.00  0.00    +0.230 C 
ATOM     34  H   UNL     1      -9.425  -6.880  17.724  0.00  0.00    +0.149 HD
BRANCH   4  26
ATOM     26  C   UNL     1     -11.234  -6.498  16.700  0.00  0.00    +0.119 C 
BRANCH  26  27
ATOM     27  C   UNL     1     -11.027  -5.799  15.365  0.00  0.00    +0.102 C 
BRANCH  27   7
ATOM      7  N   UNL     1     -12.096  -6.149  14.438  0.00  0.00    -0.307 NA
ATOM     31  C   UNL     1     -13.314  -6.504  15.167  0.00  0.00    +0.104 C 
ATOM     32  C   UNL     1     -12.362  -5.045  13.515  0.00  0.00    +0.104 C 
ENDBRANCH  27   7
ENDBRANCH  26  27
ENDBRANCH   4  26
ENDBRANCH  11  19
BRANCH   8  13
ATOM     13  C   UNL     1      -8.891 -11.783  19.715  0.00  0.00    +0.026 C 
BRANCH  13  16
ATOM     16  C   UNL     1      -9.511 -12.781  18.731  0.00  0.00    -0.015 C 
ATOM     23  C   UNL     1     -10.890 -13.203  19.245  0.00  0.00    +0.007 C 
ATOM     24  C   UNL     1      -8.638 -14.017  18.515  0.00  0.00    +0.007 C 
ENDBRANCH  13  16
ENDBRANCH   8  13
BRANCH   3  21
ATOM     21  C   UNL     1      -2.845 -10.785  15.686  0.00  0.00    +0.196 C 
BRANCH  21  25
ATOM      5  N   UNL     1      -2.297 -11.574  13.358  0.00  0.00    -0.336 N 
ATOM      6  N   UNL     1      -3.069 -13.114  14.760  0.00  0.00    -0.239 NA
ATOM     25  C   UNL     1      -2.749 -11.847  14.620  0.00  0.00    +0.129 A 
ATOM     28  C   UNL     1      -2.334 -12.741  12.648  0.00  0.00    +0.106 A 
ATOM     29  C   UNL     1      -1.861 -10.295  12.851  0.00  0.00    +0.150 C 
ATOM     30  C   UNL     1      -2.814 -13.677  13.535  0.00  0.00    +0.130 A 
ENDBRANCH  21  25
ENDBRANCH   3  21
TORSDOF 8
ENDMDL
MODEL 4
REMARK VINA RESULT:      -6.7     28.101     30.257
REMARK  Name = 51138091
REMARK  13 active torsions:
REMARK  status: ('A' for Active; 'I' for Inactive)
REMARK    1  A    between atoms: N_3  and  C_21
REMARK    2  A    between atoms: N_4  and  C_26
REMARK    3  A    between atoms: N_5  and  C_29
REMARK    4  A    between atoms: N_7  and  C_27
REMARK    5  A    between atoms: N_7  and  C_31
REMARK    6  A    between atoms: N_7  and  C_32
REMARK    7  A    between atoms: C_8  and  C_13
REMARK    8  A    between atoms: C_11  and  C_19
REMARK    9  A    between atoms: C_13  and  C_16
REMARK   10  A    between atoms: C_16  and  C_23
REMARK   11  A    between atoms: C_16  and  C_24
REMARK   12  A    between atoms: C_21  and  C_25
REMARK   13  A    between atoms: C_26  and  C_27
REMARK                            x       y       z     vdW  Elec       q    Type
REMARK                         _______ _______ _______ _____ _____    ______ ____
ROOT
ATOM      2  N   UNL     1      12.968   8.633  20.502  0.00  0.00    -0.299 NA
ATOM      3  N   UNL     1      17.886   9.163  21.521  0.00  0.00    -0.339 N 
ATOM      8  C   UNL     1      13.600   7.374  20.084  0.00  0.00    +0.085 C 
ATOM      9  C   UNL     1      15.131   7.348  20.120  0.00  0.00    -0.021 A 
ATOM     10  C   UNL     1      15.951   8.279  20.821  0.00  0.00    +0.008 A 
ATOM     11  C   UNL     1      13.198   8.995  21.893  0.00  0.00    +0.145 C 
ATOM     12  C   UNL     1      15.680   9.422  21.652  0.00  0.00    -0.020 A 
ATOM     14  C   UNL     1      14.353   9.986  22.032  0.00  0.00    +0.065 C 
ATOM     15  C   UNL     1      17.343   8.137  20.785  0.00  0.00    +0.050 A 
ATOM     17  C   UNL     1      16.897   9.937  22.051  0.00  0.00    +0.091 A 
ATOM     18  C   UNL     1      15.808   6.281  19.477  0.00  0.00    +0.006 A 
ATOM     20  C   UNL     1      17.993   7.104  20.107  0.00  0.00    +0.026 A 
ATOM     22  C   UNL     1      17.197   6.167  19.461  0.00  0.00    +0.002 A 
ATOM     33  H   UNL     1      13.227   9.395  19.875  0.00  0.00    +0.123 HD
ENDROOT
BRANCH  11  19
ATOM      1  O   UNL     1      10.881   9.543  21.708  0.00  0.00    -0.274 OA
ATOM      4  N   UNL     1      12.104  10.397  23.496  0.00  0.00    -0.313 N 
ATOM     19  C   UNL     1      11.929   9.656  22.339  0.00  0.00    +0.230 C 
ATOM     34  H   UNL     1      13.013  10.410  23.948  0.00  0.00    +0.149 HD
BRANCH   4  26
ATOM     26  C   UNL     1      11.040  11.149  24.122  0.00  0.00    +0.119 C 
BRANCH  26  27
ATOM     27  C   UNL     1      11.568  12.010  25.259  0.00  0.00    +0.102 C 
BRANCH  27   7
ATOM      7  N   UNL     1      10.737  13.195  25.427  0.00  0.00    -0.307 NA
ATOM     31  C   UNL     1      11.516  14.295  25.999  0.00  0.00    +0.104 C 
ATOM     32  C   UNL     1      10.152  13.601  24.148  0.00  0.00    +0.104 C 
ENDBRANCH  27   7
ENDBRANCH  26  27
ENDBRANCH   4  26
ENDBRANCH  11  19
BRANCH   8  13
ATOM     13  C   UNL     1      13.039   7.106  18.675  0.00  0.00    +0.026 C 
BRANCH  13  16
ATOM     16  C   UNL     1      12.964   8.369  17.812  0.00  0.00    -0.015 C 
ATOM     23  C   UNL     1      11.551   8.502  17.236  0.00  0.00    +0.007 C 
ATOM     24  C   UNL     1      13.987   8.370  16.676  0.00  0.00    +0.007 C 
ENDBRANCH  13  16
ENDBRANCH   8  13
BRANCH   3  21
ATOM     21  C   UNL     1      19.300   9.392  21.732  0.00  0.00    +0.196 C 
BRANCH  21  25
ATOM      5  N   UNL     1      20.262   9.368  24.059  0.00  0.00    -0.336 N 
ATOM      6  N   UNL     1      19.982   7.388  23.093  0.00  0.00    -0.239 NA
ATOM     25  C   UNL     1      19.845   8.688  22.949  0.00  0.00    +0.129 A 
ATOM     28  C   UNL     1      20.693   8.444  24.969  0.00  0.00    +0.106 A 
ATOM     29  C   UNL     1      20.257  10.799  24.252  0.00  0.00    +0.150 C 
ATOM     30  C   UNL     1      20.510   7.229  24.350  0.00  0.00    +0.130 A 
ENDBRANCH  21  25
ENDBRANCH   3  21
TORSDOF 8
ENDMDL
MODEL 5
REMARK VINA RESULT:      -6.5     29.041     31.432
REMARK  Name = 51138091
REMARK  13 active torsions:
REMARK  status: ('A' for Active; 'I' for Inactive)
REMARK    1  A    between atoms: N_3  and  C_21
REMARK    2  A    between atoms: N_4  and  C_26
REMARK    3  A    between atoms: N_5  and  C_29
REMARK    4  A    between atoms: N_7  and  C_27
REMARK    5  A    between atoms: N_7  and  C_31
REMARK    6  A    between atoms: N_7  and  C_32
REMARK    7  A    between atoms: C_8  and  C_13
REMARK    8  A    between atoms: C_11  and  C_19
REMARK    9  A    between atoms: C_13  and  C_16
REMARK   10  A    between atoms: C_16  and  C_23
REMARK   11  A    between atoms: C_16  and  C_24
REMARK   12  A    between atoms: C_21  and  C_25
REMARK   13  A    between atoms: C_26  and  C_27
REMARK                            x       y       z     vdW  Elec       q    Type
REMARK                         _______ _______ _______ _____ _____    ______ ____
ROOT
ATOM      2  N   UNL     1      19.029   8.747  22.459  0.00  0.00    -0.299 NA
ATOM      3  N   UNL     1      14.513   8.710  20.199  0.00  0.00    -0.339 N 
ATOM      8  C   UNL     1      19.133   7.758  21.378  0.00  0.00    +0.085 C 
ATOM      9  C   UNL     1      17.828   7.423  20.649  0.00  0.00    -0.021 A 
ATOM     10  C   UNL     1      16.638   8.206  20.695  0.00  0.00    +0.008 A 
ATOM     11  C   UNL     1      18.628  10.078  22.028  0.00  0.00    +0.145 C 
ATOM     12  C   UNL     1      16.278   9.439  21.341  0.00  0.00    -0.020 A 
ATOM     14  C   UNL     1      17.128  10.300  22.213  0.00  0.00    +0.065 C 
ATOM     15  C   UNL     1      15.514   7.796  19.970  0.00  0.00    +0.050 A 
ATOM     17  C   UNL     1      14.963   9.705  21.017  0.00  0.00    +0.091 A 
ATOM     18  C   UNL     1      17.798   6.291  19.795  0.00  0.00    +0.006 A 
ATOM     20  C   UNL     1      15.490   6.652  19.170  0.00  0.00    +0.026 A 
ATOM     22  C   UNL     1      16.661   5.910  19.085  0.00  0.00    +0.002 A 
ATOM     33  H   UNL     1      18.428   8.405  23.208  0.00  0.00    +0.123 HD
ENDROOT
BRANCH  11  19
ATOM      1  O   UNL     1      20.549  11.324  22.706  0.00  0.00    -0.274 OA
ATOM      4  N   UNL     1      18.605  11.461  23.981  0.00  0.00    -0.313 N 
ATOM     19  C   UNL     1      19.377  11.021  22.919  0.00  0.00    +0.230 C 
ATOM     34  H   UNL     1      17.639  11.160  24.055  0.00  0.00    +0.149 HD
BRANCH   4  26
ATOM     26  C   UNL     1      19.100  12.362  24.998  0.00  0.00    +0.119 C 
BRANCH  26  27
ATOM     27  C   UNL     1      18.258  12.281  26.263  0.00  0.00    +0.102 C 
BRANCH  27   7
ATOM      7  N   UNL     1      18.053  13.611  26.821  0.00  0.00    -0.307 NA
ATOM     31  C   UNL     1      19.213  14.023  27.613  0.00  0.00    +0.104 C 
ATOM     32  C   UNL     1      17.795  14.584  25.758  0.00  0.00    +0.104 C 
ENDBRANCH  27   7
ENDBRANCH  26  27
ENDBRANCH   4  26
ENDBRANCH  11  19
BRANCH   8  13
ATOM     13  C   UNL     1      19.772   6.523  22.039  0.00  0.00    +0.026 C 
BRANCH  13  16
ATOM     16  C   UNL     1      21.111   6.131  21.404  0.00  0.00    -0.015 C 
ATOM     23  C   UNL     1      21.529   7.213  20.405  0.00  0.00    +0.007 C 
ATOM     24  C   UNL     1      21.057   4.773  20.704  0.00  0.00    +0.007 C 
ENDBRANCH  13  16
ENDBRANCH   8  13
BRANCH   3  21
ATOM     21  C   UNL     1      13.177   8.654  19.645  0.00  0.00    +0.196 C 
BRANCH  21  25
ATOM      5  N   UNL     1      11.407   8.600  21.436  0.00  0.00    -0.336 N 
ATOM      6  N   UNL     1      11.969   6.641  20.553  0.00  0.00    -0.239 NA
ATOM     25  C   UNL     1      12.192   7.937  20.534  0.00  0.00    +0.129 A 
ATOM     28  C   UNL     1      10.636   7.668  22.072  0.00  0.00    +0.106 A 
ATOM     29  C   UNL     1      11.384  10.022  21.685  0.00  0.00    +0.150 C 
ATOM     30  C   UNL     1      11.002   6.467  21.510  0.00  0.00    +0.130 A 
ENDBRANCH  21  25
ENDBRANCH   3  21
TORSDOF 8
ENDMDL
MODEL 6
REMARK VINA RESULT:      -6.5      1.659      2.115
REMARK  Name = 51138091
REMARK  13 active torsions:
REMARK  status: ('A' for Active; 'I' for Inactive)
REMARK    1  A    between atoms: N_3  and  C_21
REMARK    2  A    between atoms: N_4  and  C_26
REMARK    3  A    between atoms: N_5  and  C_29
REMARK    4  A    between atoms: N_7  and  C_27
REMARK    5  A    between atoms: N_7  and  C_31
REMARK    6  A    between atoms: N_7  and  C_32
REMARK    7  A    between atoms: C_8  and  C_13
REMARK    8  A    between atoms: C_11  and  C_19
REMARK    9  A    between atoms: C_13  and  C_16
REMARK   10  A    between atoms: C_16  and  C_23
REMARK   11  A    between atoms: C_16  and  C_24
REMARK   12  A    between atoms: C_21  and  C_25
REMARK   13  A    between atoms: C_26  and  C_27
REMARK                            x       y       z     vdW  Elec       q    Type
REMARK                         _______ _______ _______ _____ _____    ______ ____
ROOT
ATOM      2  N   UNL     1      -6.814 -11.105  16.161  0.00  0.00    -0.299 NA
ATOM      3  N   UNL     1      -3.957 -10.091  12.122  0.00  0.00    -0.339 N 
ATOM      8  C   UNL     1      -5.429 -11.073  16.651  0.00  0.00    +0.085 C 
ATOM      9  C   UNL     1      -4.341 -10.962  15.578  0.00  0.00    -0.021 A 
ATOM     10  C   UNL     1      -4.558 -10.559  14.228  0.00  0.00    +0.008 A 
ATOM     11  C   UNL     1      -7.246  -9.892  15.482  0.00  0.00    +0.145 C 
ATOM     12  C   UNL     1      -5.717 -10.147  13.482  0.00  0.00    -0.020 A 
ATOM     14  C   UNL     1      -7.123 -10.024  13.965  0.00  0.00    +0.065 C 
ATOM     15  C   UNL     1      -3.473 -10.486  13.347  0.00  0.00    +0.050 A 
ATOM     17  C   UNL     1      -5.302  -9.879  12.193  0.00  0.00    +0.091 A 
ATOM     18  C   UNL     1      -2.994 -11.203  15.949  0.00  0.00    +0.006 A 
ATOM     20  C   UNL     1      -2.159 -10.771  13.721  0.00  0.00    +0.026 A 
ATOM     22  C   UNL     1      -1.935 -11.120  15.046  0.00  0.00    +0.002 A 
ATOM     33  H   UNL     1      -6.976 -11.929  15.583  0.00  0.00    +0.123 HD
ENDROOT
BRANCH  11  19
ATOM      1  O   UNL     1      -9.593 -10.077  15.082  0.00  0.00    -0.274 OA
ATOM      4  N   UNL     1      -8.859  -9.153  17.089  0.00  0.00    -0.313 N 
ATOM     19  C   UNL     1      -8.692  -9.735  15.844  0.00  0.00    +0.230 C 
ATOM     34  H   UNL     1      -8.042  -8.922  17.646  0.00  0.00    +0.149 HD
BRANCH   4  26
ATOM     26  C   UNL     1     -10.156  -8.871  17.663  0.00  0.00    +0.119 C 
BRANCH  26  27
ATOM     27  C   UNL     1     -10.516  -9.887  18.736  0.00  0.00    +0.102 C 
BRANCH  27   7
ATOM      7  N   UNL     1     -11.608 -10.739  18.281  0.00  0.00    -0.307 NA
ATOM     31  C   UNL     1     -12.418 -10.047  17.277  0.00  0.00    +0.104 C 
ATOM     32  C   UNL     1     -11.090 -11.996  17.737  0.00  0.00    +0.104 C 
ENDBRANCH  27   7
ENDBRANCH  26  27
ENDBRANCH   4  26
ENDBRANCH  11  19
BRANCH   8  13
ATOM     13  C   UNL     1      -5.288 -12.346  17.505  0.00  0.00    +0.026 C 
BRANCH  13  16
ATOM     16  C   UNL     1      -5.118 -12.047  18.998  0.00  0.00    -0.015 C 
ATOM     23  C   UNL     1      -5.660 -10.647  19.296  0.00  0.00    +0.007 C 
ATOM     24  C   UNL     1      -3.664 -12.148  19.459  0.00  0.00    +0.007 C 
ENDBRANCH  13  16
ENDBRANCH   8  13
BRANCH   3  21
ATOM     21  C   UNL     1      -3.165  -9.902  10.925  0.00  0.00    +0.196 C 
BRANCH  21  25
ATOM      5  N   UNL     1      -4.264 -11.323   9.160  0.00  0.00    -0.336 N 
ATOM      6  N   UNL     1      -4.425  -9.124   8.889  0.00  0.00    -0.239 NA
ATOM     25  C   UNL     1      -3.954 -10.086   9.653  0.00  0.00    +0.129 A 
ATOM     28  C   UNL     1      -4.977 -11.139   8.008  0.00  0.00    +0.106 A 
ATOM     29  C   UNL     1      -3.911 -12.599   9.734  0.00  0.00    +0.150 C 
ATOM     30  C   UNL     1      -5.063  -9.773   7.862  0.00  0.00    +0.130 A 
ENDBRANCH  21  25
ENDBRANCH   3  21
TORSDOF 8
ENDMDL
MODEL 7
REMARK VINA RESULT:      -6.4     19.106     21.318
REMARK  Name = 51138091
REMARK  13 active torsions:
REMARK  status: ('A' for Active; 'I' for Inactive)
REMARK    1  A    between atoms: N_3  and  C_21
REMARK    2  A    between atoms: N_4  and  C_26
REMARK    3  A    between atoms: N_5  and  C_29
REMARK    4  A    between atoms: N_7  and  C_27
REMARK    5  A    between atoms: N_7  and  C_31
REMARK    6  A    between atoms: N_7  and  C_32
REMARK    7  A    between atoms: C_8  and  C_13
REMARK    8  A    between atoms: C_11  and  C_19
REMARK    9  A    between atoms: C_13  and  C_16
REMARK   10  A    between atoms: C_16  and  C_23
REMARK   11  A    between atoms: C_16  and  C_24
REMARK   12  A    between atoms: C_21  and  C_25
REMARK   13  A    between atoms: C_26  and  C_27
REMARK                            x       y       z     vdW  Elec       q    Type
REMARK                         _______ _______ _______ _____ _____    ______ ____
ROOT
ATOM      2  N   UNL     1     -14.577   7.432  23.184  0.00  0.00    -0.299 NA
ATOM      3  N   UNL     1     -11.010   8.827  19.892  0.00  0.00    -0.339 N 
ATOM      8  C   UNL     1     -14.880   8.826  22.835  0.00  0.00    +0.085 C 
ATOM      9  C   UNL     1     -13.832   9.547  21.982  0.00  0.00    -0.021 A 
ATOM     10  C   UNL     1     -12.796   8.907  21.241  0.00  0.00    +0.008 A 
ATOM     11  C   UNL     1     -14.501   6.524  22.050  0.00  0.00    +0.145 C 
ATOM     12  C   UNL     1     -12.415   7.535  21.036  0.00  0.00    -0.020 A 
ATOM     14  C   UNL     1     -13.058   6.311  21.595  0.00  0.00    +0.065 C 
ATOM     15  C   UNL     1     -11.906   9.682  20.488  0.00  0.00    +0.050 A 
ATOM     17  C   UNL     1     -11.309   7.535  20.210  0.00  0.00    +0.091 A 
ATOM     18  C   UNL     1     -13.921  10.955  21.841  0.00  0.00    +0.006 A 
ATOM     20  C   UNL     1     -11.984  11.073  20.399  0.00  0.00    +0.026 A 
ATOM     22  C   UNL     1     -13.019  11.698  21.081  0.00  0.00    +0.002 A 
ATOM     33  H   UNL     1     -13.735   7.377  23.758  0.00  0.00    +0.123 HD
ENDROOT
BRANCH  11  19
ATOM      1  O   UNL     1     -15.664   4.452  21.816  0.00  0.00    -0.274 OA
ATOM      4  N   UNL     1     -14.812   5.039  23.902  0.00  0.00    -0.313 N 
ATOM     19  C   UNL     1     -15.054   5.224  22.551  0.00  0.00    +0.230 C 
ATOM     34  H   UNL     1     -14.281   5.737  24.414  0.00  0.00    +0.149 HD
BRANCH   4  26
ATOM     26  C   UNL     1     -15.261   3.876  24.633  0.00  0.00    +0.119 C 
BRANCH  26  27
ATOM     27  C   UNL     1     -16.568   4.152  25.360  0.00  0.00    +0.102 C 
BRANCH  27   7
ATOM      7  N   UNL     1     -17.414   2.965  25.349  0.00  0.00    -0.307 NA
ATOM     31  C   UNL     1     -17.795   2.616  23.979  0.00  0.00    +0.104 C 
ATOM     32  C   UNL     1     -16.733   1.838  25.988  0.00  0.00    +0.104 C 
ENDBRANCH  27   7
ENDBRANCH  26  27
ENDBRANCH   4  26
ENDBRANCH  11  19
BRANCH   8  13
ATOM     13  C   UNL     1     -15.121   9.524  24.186  0.00  0.00    +0.026 C 
BRANCH  13  16
ATOM     16  C   UNL     1     -16.537  10.094  24.319  0.00  0.00    -0.015 C 
ATOM     23  C   UNL     1     -17.371   9.658  23.112  0.00  0.00    +0.007 C 
ATOM     24  C   UNL     1     -16.551  11.619  24.434  0.00  0.00    +0.007 C 
ENDBRANCH  13  16
ENDBRANCH   8  13
BRANCH   3  21
ATOM     21  C   UNL     1      -9.913   9.220  19.033  0.00  0.00    +0.196 C 
BRANCH  21  25
ATOM      5  N   UNL     1     -10.310  10.284  16.786  0.00  0.00    -0.336 N 
ATOM      6  N   UNL     1     -10.525   8.075  16.877  0.00  0.00    -0.239 NA
ATOM     25  C   UNL     1     -10.253   9.162  17.565  0.00  0.00    +0.129 A 
ATOM     28  C   UNL     1     -10.641   9.888  15.520  0.00  0.00    +0.106 A 
ATOM     29  C   UNL     1     -10.071  11.645  17.205  0.00  0.00    +0.150 C 
ATOM     30  C   UNL     1     -10.768   8.521  15.602  0.00  0.00    +0.130 A 
ENDBRANCH  21  25
ENDBRANCH   3  21
TORSDOF 8
ENDMDL
MODEL 8
REMARK VINA RESULT:      -6.4     25.269     28.871
REMARK  Name = 51138091
REMARK  13 active torsions:
REMARK  status: ('A' for Active; 'I' for Inactive)
REMARK    1  A    between atoms: N_3  and  C_21
REMARK    2  A    between atoms: N_4  and  C_26
REMARK    3  A    between atoms: N_5  and  C_29
REMARK    4  A    between atoms: N_7  and  C_27
REMARK    5  A    between atoms: N_7  and  C_31
REMARK    6  A    between atoms: N_7  and  C_32
REMARK    7  A    between atoms: C_8  and  C_13
REMARK    8  A    between atoms: C_11  and  C_19
REMARK    9  A    between atoms: C_13  and  C_16
REMARK   10  A    between atoms: C_16  and  C_23
REMARK   11  A    between atoms: C_16  and  C_24
REMARK   12  A    between atoms: C_21  and  C_25
REMARK   13  A    between atoms: C_26  and  C_27
REMARK                            x       y       z     vdW  Elec       q    Type
REMARK                         _______ _______ _______ _____ _____    ______ ____
ROOT
ATOM      2  N   UNL     1      15.274   6.112   2.326  0.00  0.00    -0.299 NA
ATOM      3  N   UNL     1      10.756   6.408   4.563  0.00  0.00    -0.339 N 
ATOM      8  C   UNL     1      14.320   5.520   1.378  0.00  0.00    +0.085 C 
ATOM      9  C   UNL     1      12.893   5.322   1.898  0.00  0.00    -0.021 A 
ATOM     10  C   UNL     1      12.347   5.952   3.055  0.00  0.00    +0.008 A 
ATOM     11  C   UNL     1      14.959   7.473   2.734  0.00  0.00    +0.145 C 
ATOM     12  C   UNL     1      12.859   6.888   4.019  0.00  0.00    -0.020 A 
ATOM     14  C   UNL     1      14.218   7.502   4.070  0.00  0.00    +0.065 C 
ATOM     15  C   UNL     1      11.019   5.696   3.417  0.00  0.00    +0.050 A 
ATOM     17  C   UNL     1      11.852   7.132   4.930  0.00  0.00    +0.091 A 
ATOM     18  C   UNL     1      12.002   4.515   1.148  0.00  0.00    +0.006 A 
ATOM     20  C   UNL     1      10.171   4.860   2.689  0.00  0.00    +0.026 A 
ATOM     22  C   UNL     1      10.684   4.281   1.536  0.00  0.00    +0.002 A 
ATOM     33  H   UNL     1      15.405   5.505   3.135  0.00  0.00    +0.123 HD
ENDROOT
BRANCH  11  19
ATOM      1  O   UNL     1      16.677   9.009   2.109  0.00  0.00    -0.274 OA
ATOM      4  N   UNL     1      16.987   7.673   3.991  0.00  0.00    -0.313 N 
ATOM     19  C   UNL     1      16.287   8.150   2.896  0.00  0.00    +0.230 C 
ATOM     34  H   UNL     1      16.563   6.969   4.587  0.00  0.00    +0.149 HD
BRANCH   4  26
ATOM     26  C   UNL     1      18.304   8.146   4.354  0.00  0.00    +0.119 C 
BRANCH  26  27
ATOM     27  C   UNL     1      18.302   8.770   5.741  0.00  0.00    +0.102 C 
BRANCH  27   7
ATOM      7  N   UNL     1      19.452   8.307   6.507  0.00  0.00    -0.307 NA
ATOM     31  C   UNL     1      20.489   7.784   5.615  0.00  0.00    +0.104 C 
ATOM     32  C   UNL     1      19.993   9.388   7.333  0.00  0.00    +0.104 C 
ENDBRANCH  27   7
ENDBRANCH  26  27
ENDBRANCH   4  26
ENDBRANCH  11  19
BRANCH   8  13
ATOM     13  C   UNL     1      14.976   4.198   0.939  0.00  0.00    +0.026 C 
BRANCH  13  16
ATOM     16  C   UNL     1      15.235   4.132  -0.570  0.00  0.00    -0.015 C 
ATOM     23  C   UNL     1      16.745   4.076  -0.819  0.00  0.00    +0.007 C 
ATOM     24  C   UNL     1      14.631   5.316  -1.325  0.00  0.00    +0.007 C 
ENDBRANCH  13  16
ENDBRANCH   8  13
BRANCH   3  21
ATOM     21  C   UNL     1       9.498   6.417   5.279  0.00  0.00    +0.196 C 
BRANCH  21  25
ATOM      5  N   UNL     1       9.313   6.449   7.791  0.00  0.00    -0.336 N 
ATOM      6  N   UNL     1       9.897   4.512   6.874  0.00  0.00    -0.239 NA
ATOM     25  C   UNL     1       9.578   5.765   6.636  0.00  0.00    +0.129 A 
ATOM     28  C   UNL     1       9.475   5.577   8.831  0.00  0.00    +0.106 A 
ATOM     29  C   UNL     1       8.933   7.837   7.908  0.00  0.00    +0.150 C 
ATOM     30  C   UNL     1       9.835   4.388   8.239  0.00  0.00    +0.130 A 
ENDBRANCH  21  25
ENDBRANCH   3  21
TORSDOF 8
ENDMDL
MODEL 9
REMARK VINA RESULT:      -6.1      2.765      8.029
REMARK  Name = 51138091
REMARK  13 active torsions:
REMARK  status: ('A' for Active; 'I' for Inactive)
REMARK    1  A    between atoms: N_3  and  C_21
REMARK    2  A    between atoms: N_4  and  C_26
REMARK    3  A    between atoms: N_5  and  C_29
REMARK    4  A    between atoms: N_7  and  C_27
REMARK    5  A    between atoms: N_7  and  C_31
REMARK    6  A    between atoms: N_7  and  C_32
REMARK    7  A    between atoms: C_8  and  C_13
REMARK    8  A    between atoms: C_11  and  C_19
REMARK    9  A    between atoms: C_13  and  C_16
REMARK   10  A    between atoms: C_16  and  C_23
REMARK   11  A    between atoms: C_16  and  C_24
REMARK   12  A    between atoms: C_21  and  C_25
REMARK   13  A    between atoms: C_26  and  C_27
REMARK                            x       y       z     vdW  Elec       q    Type
REMARK                         _______ _______ _______ _____ _____    ______ ____
ROOT
ATOM      2  N   UNL     1      -4.599 -10.226  14.869  0.00  0.00    -0.299 NA
ATOM      3  N   UNL     1      -8.130 -10.670  18.452  0.00  0.00    -0.339 N 
ATOM      8  C   UNL     1      -3.990 -11.038  15.930  0.00  0.00    +0.085 C 
ATOM      9  C   UNL     1      -4.800 -11.168  17.224  0.00  0.00    -0.021 A 
ATOM     10  C   UNL     1      -6.187 -10.868  17.356  0.00  0.00    +0.008 A 
ATOM     11  C   UNL     1      -5.846 -10.755  14.338  0.00  0.00    +0.145 C 
ATOM     12  C   UNL     1      -7.202 -10.410  16.446  0.00  0.00    -0.020 A 
ATOM     14  C   UNL     1      -7.060 -10.100  14.994  0.00  0.00    +0.065 C 
ATOM     15  C   UNL     1      -6.815 -11.041  18.595  0.00  0.00    +0.050 A 
ATOM     17  C   UNL     1      -8.376 -10.294  17.164  0.00  0.00    +0.091 A 
ATOM     18  C   UNL     1      -4.163 -11.696  18.374  0.00  0.00    +0.006 A 
ATOM     20  C   UNL     1      -6.158 -11.521  19.730  0.00  0.00    +0.026 A 
ATOM     22  C   UNL     1      -4.817 -11.858  19.594  0.00  0.00    +0.002 A 
ATOM     33  H   UNL     1      -4.708  -9.258  15.170  0.00  0.00    +0.123 HD
ENDROOT
BRANCH  11  19
ATOM      1  O   UNL     1      -5.972  -9.253  12.486  0.00  0.00    -0.274 OA
ATOM      4  N   UNL     1      -5.667 -11.525  12.078  0.00  0.00    -0.313 N 
ATOM     19  C   UNL     1      -5.831 -10.408  12.880  0.00  0.00    +0.230 C 
ATOM     34  H   UNL     1      -5.542 -12.436  12.509  0.00  0.00    +0.149 HD
BRANCH   4  26
ATOM     26  C   UNL     1      -5.640 -11.464  10.634  0.00  0.00    +0.119 C 
BRANCH  26  27
ATOM     27  C   UNL     1      -4.212 -11.393  10.112  0.00  0.00    +0.102 C 
BRANCH  27   7
ATOM      7  N   UNL     1      -3.996 -10.141   9.398  0.00  0.00    -0.307 NA
ATOM     31  C   UNL     1      -5.274  -9.531   9.028  0.00  0.00    +0.104 C 
ATOM     32  C   UNL     1      -3.208  -9.212  10.210  0.00  0.00    +0.104 C 
ENDBRANCH  27   7
ENDBRANCH  26  27
ENDBRANCH   4  26
ENDBRANCH  11  19
BRANCH   8  13
ATOM     13  C   UNL     1      -2.607 -10.403  16.162  0.00  0.00    +0.026 C 
BRANCH  13  16
ATOM     16  C   UNL     1      -1.539 -10.928  15.196  0.00  0.00    -0.015 C 
ATOM     23  C   UNL     1      -1.309  -9.895  14.090  0.00  0.00    +0.007 C 
ATOM     24  C   UNL     1      -1.915 -12.274  14.576  0.00  0.00    +0.007 C 
ENDBRANCH  13  16
ENDBRANCH   8  13
BRANCH   3  21
ATOM     21  C   UNL     1      -9.130 -10.686  19.499  0.00  0.00    +0.196 C 
BRANCH  21  25
ATOM      5  N   UNL     1     -11.106 -12.186  19.063  0.00  0.00    -0.336 N 
ATOM      6  N   UNL     1      -9.423 -13.086  20.199  0.00  0.00    -0.239 NA
ATOM     25  C   UNL     1      -9.864 -12.000  19.603  0.00  0.00    +0.129 A 
ATOM     28  C   UNL     1     -11.482 -13.472  19.332  0.00  0.00    +0.106 A 
ATOM     29  C   UNL     1     -11.892 -11.214  18.340  0.00  0.00    +0.150 C 
ATOM     30  C   UNL     1     -10.427 -14.007  20.034  0.00  0.00    +0.130 A 
ENDBRANCH  21  25
ENDBRANCH   3  21
TORSDOF 8
ENDMDL
MODEL 10
REMARK VINA RESULT:      -6.0      2.428      4.017
REMARK  Name = 51138091
REMARK  13 active torsions:
REMARK  status: ('A' for Active; 'I' for Inactive)
REMARK    1  A    between atoms: N_3  and  C_21
REMARK    2  A    between atoms: N_4  and  C_26
REMARK    3  A    between atoms: N_5  and  C_29
REMARK    4  A    between atoms: N_7  and  C_27
REMARK    5  A    between atoms: N_7  and  C_31
REMARK    6  A    between atoms: N_7  and  C_32
REMARK    7  A    between atoms: C_8  and  C_13
REMARK    8  A    between atoms: C_11  and  C_19
REMARK    9  A    between atoms: C_13  and  C_16
REMARK   10  A    between atoms: C_16  and  C_23
REMARK   11  A    between atoms: C_16  and  C_24
REMARK   12  A    between atoms: C_21  and  C_25
REMARK   13  A    between atoms: C_26  and  C_27
REMARK                            x       y       z     vdW  Elec       q    Type
REMARK                         _______ _______ _______ _____ _____    ______ ____
ROOT
ATOM      2  N   UNL     1      -8.653 -10.423  17.940  0.00  0.00    -0.299 NA
ATOM      3  N   UNL     1      -3.974 -10.572  16.046  0.00  0.00    -0.339 N 
ATOM      8  C   UNL     1      -7.781 -10.797  19.062  0.00  0.00    +0.085 C 
ATOM      9  C   UNL     1      -6.320 -11.090  18.706  0.00  0.00    -0.021 A 
ATOM     10  C   UNL     1      -5.681 -10.713  17.489  0.00  0.00    +0.008 A 
ATOM     11  C   UNL     1      -8.295  -9.175  17.282  0.00  0.00    +0.145 C 
ATOM     12  C   UNL     1      -6.108 -10.002  16.314  0.00  0.00    -0.020 A 
ATOM     14  C   UNL     1      -7.452  -9.422  16.031  0.00  0.00    +0.065 C 
ATOM     15  C   UNL     1      -4.331 -11.030  17.292  0.00  0.00    +0.050 A 
ATOM     17  C   UNL     1      -5.031  -9.948  15.452  0.00  0.00    +0.091 A 
ATOM     18  C   UNL     1      -5.497 -11.716  19.675  0.00  0.00    +0.006 A 
ATOM     20  C   UNL     1      -3.550 -11.689  18.242  0.00  0.00    +0.026 A 
ATOM     22  C   UNL     1      -4.155 -12.017  19.448  0.00  0.00    +0.002 A 
ATOM     33  H   UNL     1      -8.728 -11.186  17.268  0.00  0.00    +0.123 HD
ENDROOT
BRANCH  11  19
ATOM      1  O   UNL     1     -10.064  -7.583  17.468  0.00  0.00    -0.274 OA
ATOM      4  N   UNL     1     -10.189  -9.221  15.818  0.00  0.00    -0.313 N 
ATOM     19  C   UNL     1      -9.599  -8.556  16.880  0.00  0.00    +0.230 C 
ATOM     34  H   UNL     1      -9.709 -10.009  15.394  0.00  0.00    +0.149 HD
BRANCH   4  26
ATOM     26  C   UNL     1     -11.463  -8.837  15.254  0.00  0.00    +0.119 C 
BRANCH  26  27
ATOM     27  C   UNL     1     -11.415  -8.835  13.734  0.00  0.00    +0.102 C 
BRANCH  27   7
ATOM      7  N   UNL     1     -12.419  -7.926  13.196  0.00  0.00    -0.307 NA
ATOM     31  C   UNL     1     -12.391  -6.647  13.909  0.00  0.00    +0.104 C 
ATOM     32  C   UNL     1     -12.208  -7.712  11.763  0.00  0.00    +0.104 C 
ENDBRANCH  27   7
ENDBRANCH  26  27
ENDBRANCH   4  26
ENDBRANCH  11  19
BRANCH   8  13
ATOM     13  C   UNL     1      -8.481 -12.002  19.715  0.00  0.00    +0.026 C 
BRANCH  13  16
ATOM     16  C   UNL     1      -9.318 -12.816  18.723  0.00  0.00    -0.015 C 
ATOM     23  C   UNL     1     -10.599 -13.289  19.415  0.00  0.00    +0.007 C 
ATOM     24  C   UNL     1      -8.561 -14.019  18.160  0.00  0.00    +0.007 C 
ENDBRANCH  13  16
ENDBRANCH   8  13
BRANCH   3  21
ATOM     21  C   UNL     1      -2.664 -10.704  15.443  0.00  0.00    +0.196 C 
BRANCH  21  25
ATOM      5  N   UNL     1      -2.895 -12.406  13.602  0.00  0.00    -0.336 N 
ATOM      6  N   UNL     1      -2.594 -10.302  12.960  0.00  0.00    -0.239 NA
ATOM     25  C   UNL     1      -2.713 -11.108  13.991  0.00  0.00    +0.129 A 
ATOM     28  C   UNL     1      -2.890 -12.430  12.235  0.00  0.00    +0.106 A 
ATOM     29  C   UNL     1      -3.061 -13.555  14.461  0.00  0.00    +0.150 C 
ATOM     30  C   UNL     1      -2.703 -11.119  11.863  0.00  0.00    +0.130 A 
ENDBRANCH  21  25
ENDBRANCH   3  21
TORSDOF 8
ENDMDL
