MODEL 1
REMARK VINA RESULT:      -7.3      0.000      0.000
REMARK  Name = 51137871
REMARK  4 active torsions:
REMARK  status: ('A' for Active; 'I' for Inactive)
REMARK    1  A    between atoms: N_2  and  C_12
REMARK    2  A    between atoms: C_7  and  C_11
REMARK    3  A    between atoms: C_12  and  C_15
REMARK    4  A    between atoms: C_16  and  C_21
REMARK                            x       y       z     vdW  Elec       q    Type
REMARK                         _______ _______ _______ _____ _____    ______ ____
ROOT
ATOM      3  N   UNL     1      15.269   8.592  21.979  0.00  0.00    -0.342 N 
ATOM      4  N   UNL     1      13.719   7.399  20.925  0.00  0.00    -0.231 NA
ATOM     11  C   UNL     1      14.978   7.443  21.300  0.00  0.00    +0.113 A 
ATOM     13  C   UNL     1      14.121   9.340  22.047  0.00  0.00    +0.067 A 
ATOM     14  C   UNL     1      13.168   8.574  21.382  0.00  0.00    +0.101 A 
ATOM     16  C   UNL     1      11.856   9.061  21.269  0.00  0.00    +0.064 A 
ATOM     17  C   UNL     1      13.843  10.584  22.616  0.00  0.00    +0.028 A 
ATOM     19  C   UNL     1      11.553  10.307  21.832  0.00  0.00    +0.015 A 
ATOM     20  C   UNL     1      12.532  11.053  22.494  0.00  0.00    +0.003 A 
ATOM     25  H   UNL     1      16.168   8.850  22.364  0.00  0.00    +0.167 HD
ENDROOT
BRANCH  16  21
ATOM      1  O   UNL     1      10.525   8.523  19.401  0.00  0.00    -0.270 OA
ATOM      6  N   UNL     1      10.209   7.264  21.292  0.00  0.00    -0.325 N 
ATOM     21  C   UNL     1      10.831   8.291  20.585  0.00  0.00    +0.244 C 
ATOM     26  H   UNL     1       9.493   6.701  20.845  0.00  0.00    +0.145 HD
ATOM     27  H   UNL     1      10.423   7.028  22.254  0.00  0.00    +0.145 HD
ENDBRANCH  16  21
BRANCH  11   7
ATOM      2  N   UNL     1      18.322   6.104  20.627  0.00  0.00    -0.296 NA
ATOM      7  C   UNL     1      16.033   6.390  21.048  0.00  0.00    +0.070 C 
ATOM      8  C   UNL     1      16.242   6.024  19.569  0.00  0.00    +0.028 C 
ATOM      9  C   UNL     1      17.423   6.807  21.546  0.00  0.00    +0.096 C 
ATOM     10  C   UNL     1      17.721   6.279  19.305  0.00  0.00    +0.085 C 
BRANCH   2  12
ATOM     12  C   UNL     1      19.685   6.612  20.688  0.00  0.00    +0.139 C 
BRANCH  12  15
ATOM      5  N   UNL     1      21.240   5.943  22.436  0.00  0.00    -0.259 NA
ATOM     15  C   UNL     1      20.633   5.602  21.277  0.00  0.00    +0.055 A 
ATOM     18  C   UNL     1      20.835   4.397  20.622  0.00  0.00    +0.024 A 
ATOM     22  C   UNL     1      21.716   3.486  21.192  0.00  0.00    +0.003 A 
ATOM     23  C   UNL     1      22.090   5.032  22.960  0.00  0.00    +0.111 A 
ATOM     24  C   UNL     1      22.360   3.801  22.383  0.00  0.00    +0.020 A 
ENDBRANCH  12  15
ENDBRANCH   2  12
ENDBRANCH  11   7
TORSDOF 4
ENDMDL
MODEL 2
REMARK VINA RESULT:      -7.3     17.006     18.739
REMARK  Name = 51137871
REMARK  4 active torsions:
REMARK  status: ('A' for Active; 'I' for Inactive)
REMARK    1  A    between atoms: N_2  and  C_12
REMARK    2  A    between atoms: C_7  and  C_11
REMARK    3  A    between atoms: C_12  and  C_15
REMARK    4  A    between atoms: C_16  and  C_21
REMARK                            x       y       z     vdW  Elec       q    Type
REMARK                         _______ _______ _______ _____ _____    ______ ____
ROOT
ATOM      3  N   UNL     1      10.256   4.190   5.475  0.00  0.00    -0.342 N 
ATOM      4  N   UNL     1       9.685   6.303   5.090  0.00  0.00    -0.231 NA
ATOM     11  C   UNL     1      10.119   5.187   4.550  0.00  0.00    +0.113 A 
ATOM     13  C   UNL     1       9.886   4.698   6.694  0.00  0.00    +0.067 A 
ATOM     14  C   UNL     1       9.533   6.018   6.428  0.00  0.00    +0.101 A 
ATOM     16  C   UNL     1       9.098   6.837   7.483  0.00  0.00    +0.064 A 
ATOM     17  C   UNL     1       9.831   4.133   7.969  0.00  0.00    +0.028 A 
ATOM     19  C   UNL     1       9.035   6.291   8.771  0.00  0.00    +0.015 A 
ATOM     20  C   UNL     1       9.395   4.962   9.007  0.00  0.00    +0.003 A 
ATOM     25  H   UNL     1      10.573   3.247   5.297  0.00  0.00    +0.167 HD
ENDROOT
BRANCH  16  21
ATOM      1  O   UNL     1       9.125   9.139   7.980  0.00  0.00    -0.270 OA
ATOM      6  N   UNL     1       7.896   8.490   6.156  0.00  0.00    -0.325 N 
ATOM     21  C   UNL     1       8.719   8.218   7.246  0.00  0.00    +0.244 C 
ATOM     26  H   UNL     1       7.615   9.444   5.955  0.00  0.00    +0.145 HD
ATOM     27  H   UNL     1       7.542   7.781   5.523  0.00  0.00    +0.145 HD
ENDBRANCH  16  21
BRANCH  11   7
ATOM      2  N   UNL     1      12.079   4.065   1.664  0.00  0.00    -0.296 NA
ATOM      7  C   UNL     1      10.446   4.956   3.092  0.00  0.00    +0.070 C 
ATOM      8  C   UNL     1      11.216   6.101   2.413  0.00  0.00    +0.028 C 
ATOM      9  C   UNL     1      11.318   3.714   2.865  0.00  0.00    +0.096 C 
ATOM     10  C   UNL     1      12.484   5.456   1.868  0.00  0.00    +0.085 C 
BRANCH   2  12
ATOM     12  C   UNL     1      13.216   3.182   1.450  0.00  0.00    +0.139 C 
BRANCH  12  15
ATOM      5  N   UNL     1      13.501   3.769  -0.895  0.00  0.00    -0.259 NA
ATOM     15  C   UNL     1      14.088   3.657   0.318  0.00  0.00    +0.055 A 
ATOM     18  C   UNL     1      15.420   3.951   0.564  0.00  0.00    +0.024 A 
ATOM     22  C   UNL     1      16.198   4.387  -0.502  0.00  0.00    +0.003 A 
ATOM     23  C   UNL     1      14.289   4.196  -1.907  0.00  0.00    +0.111 A 
ATOM     24  C   UNL     1      15.630   4.515  -1.765  0.00  0.00    +0.020 A 
ENDBRANCH  12  15
ENDBRANCH   2  12
ENDBRANCH  11   7
TORSDOF 4
ENDMDL
MODEL 3
REMARK VINA RESULT:      -7.1     27.221     28.645
REMARK  Name = 51137871
REMARK  4 active torsions:
REMARK  status: ('A' for Active; 'I' for Inactive)
REMARK    1  A    between atoms: N_2  and  C_12
REMARK    2  A    between atoms: C_7  and  C_11
REMARK    3  A    between atoms: C_12  and  C_15
REMARK    4  A    between atoms: C_16  and  C_21
REMARK                            x       y       z     vdW  Elec       q    Type
REMARK                         _______ _______ _______ _____ _____    ______ ____
ROOT
ATOM      3  N   UNL     1      -3.390 -11.374  17.128  0.00  0.00    -0.342 N 
ATOM      4  N   UNL     1      -4.895 -10.189  16.002  0.00  0.00    -0.231 NA
ATOM     11  C   UNL     1      -3.695 -10.725  15.965  0.00  0.00    +0.113 A 
ATOM     13  C   UNL     1      -4.463 -11.248  17.972  0.00  0.00    +0.067 A 
ATOM     14  C   UNL     1      -5.389 -10.505  17.246  0.00  0.00    +0.101 A 
ATOM     16  C   UNL     1      -6.626 -10.191  17.833  0.00  0.00    +0.064 A 
ATOM     17  C   UNL     1      -4.696 -11.707  19.269  0.00  0.00    +0.028 A 
ATOM     19  C   UNL     1      -6.883 -10.641  19.134  0.00  0.00    +0.015 A 
ATOM     20  C   UNL     1      -5.933 -11.386  19.837  0.00  0.00    +0.003 A 
ATOM     25  H   UNL     1      -2.528 -11.861  17.334  0.00  0.00    +0.167 HD
ENDROOT
BRANCH  16  21
ATOM      1  O   UNL     1      -8.465  -8.725  17.704  0.00  0.00    -0.270 OA
ATOM      6  N   UNL     1      -7.593  -9.465  15.717  0.00  0.00    -0.325 N 
ATOM     21  C   UNL     1      -7.621  -9.420  17.109  0.00  0.00    +0.244 C 
ATOM     26  H   UNL     1      -8.268  -8.935  15.176  0.00  0.00    +0.145 HD
ATOM     27  H   UNL     1      -6.925 -10.009  15.181  0.00  0.00    +0.145 HD
ENDBRANCH  16  21
BRANCH  11   7
ATOM      2  N   UNL     1      -2.344 -11.481  12.643  0.00  0.00    -0.296 NA
ATOM      7  C   UNL     1      -2.718 -10.673  14.813  0.00  0.00    +0.070 C 
ATOM      8  C   UNL     1      -1.621 -11.752  14.847  0.00  0.00    +0.028 C 
ATOM      9  C   UNL     1      -3.393 -10.849  13.447  0.00  0.00    +0.096 C 
ATOM     10  C   UNL     1      -1.754 -12.491  13.522  0.00  0.00    +0.085 C 
BRANCH   2  12
ATOM     12  C   UNL     1      -2.860 -12.053  11.409  0.00  0.00    +0.139 C 
BRANCH  12  15
ATOM      5  N   UNL     1      -4.816 -11.397  10.119  0.00  0.00    -0.259 NA
ATOM     15  C   UNL     1      -3.599 -11.034  10.585  0.00  0.00    +0.055 A 
ATOM     18  C   UNL     1      -3.015  -9.799  10.348  0.00  0.00    +0.024 A 
ATOM     22  C   UNL     1      -3.724  -8.880   9.584  0.00  0.00    +0.003 A 
ATOM     23  C   UNL     1      -5.475 -10.476   9.381  0.00  0.00    +0.111 A 
ATOM     24  C   UNL     1      -4.979  -9.216   9.087  0.00  0.00    +0.020 A 
ENDBRANCH  12  15
ENDBRANCH   2  12
ENDBRANCH  11   7
TORSDOF 4
ENDMDL
MODEL 4
REMARK VINA RESULT:      -7.0      1.764      2.172
REMARK  Name = 51137871
REMARK  4 active torsions:
REMARK  status: ('A' for Active; 'I' for Inactive)
REMARK    1  A    between atoms: N_2  and  C_12
REMARK    2  A    between atoms: C_7  and  C_11
REMARK    3  A    between atoms: C_12  and  C_15
REMARK    4  A    between atoms: C_16  and  C_21
REMARK                            x       y       z     vdW  Elec       q    Type
REMARK                         _______ _______ _______ _____ _____    ______ ____
ROOT
ATOM      3  N   UNL     1      14.130   6.959  21.658  0.00  0.00    -0.342 N 
ATOM      4  N   UNL     1      14.199   7.003  19.437  0.00  0.00    -0.231 NA
ATOM     11  C   UNL     1      14.831   6.636  20.529  0.00  0.00    +0.113 A 
ATOM     13  C   UNL     1      12.969   7.576  21.267  0.00  0.00    +0.067 A 
ATOM     14  C   UNL     1      13.036   7.591  19.877  0.00  0.00    +0.101 A 
ATOM     16  C   UNL     1      11.981   8.165  19.148  0.00  0.00    +0.064 A 
ATOM     17  C   UNL     1      11.899   8.107  21.990  0.00  0.00    +0.028 A 
ATOM     19  C   UNL     1      10.897   8.704  19.851  0.00  0.00    +0.015 A 
ATOM     20  C   UNL     1      10.859   8.673  21.247  0.00  0.00    +0.003 A 
ATOM     25  H   UNL     1      14.413   6.777  22.611  0.00  0.00    +0.167 HD
ENDROOT
BRANCH  16  21
ATOM      1  O   UNL     1      11.115   7.666  17.015  0.00  0.00    -0.270 OA
ATOM      6  N   UNL     1      13.068   8.867  17.082  0.00  0.00    -0.325 N 
ATOM     21  C   UNL     1      12.011   8.199  17.696  0.00  0.00    +0.244 C 
ATOM     26  H   UNL     1      13.118   8.917  16.070  0.00  0.00    +0.145 HD
ATOM     27  H   UNL     1      13.819   9.323  17.587  0.00  0.00    +0.145 HD
ENDBRANCH  16  21
BRANCH  11   7
ATOM      2  N   UNL     1      18.449   6.308  21.012  0.00  0.00    -0.296 NA
ATOM      7  C   UNL     1      16.168   5.937  20.608  0.00  0.00    +0.070 C 
ATOM      8  C   UNL     1      16.944   5.872  19.281  0.00  0.00    +0.028 C 
ATOM      9  C   UNL     1      17.137   6.607  21.591  0.00  0.00    +0.096 C 
ATOM     10  C   UNL     1      18.285   6.530  19.576  0.00  0.00    +0.085 C 
BRANCH   2  12
ATOM     12  C   UNL     1      19.507   7.127  21.583  0.00  0.00    +0.139 C 
BRANCH  12  15
ATOM      5  N   UNL     1      20.980   5.556  22.717  0.00  0.00    -0.259 NA
ATOM     15  C   UNL     1      20.813   6.382  21.659  0.00  0.00    +0.055 A 
ATOM     18  C   UNL     1      21.760   6.570  20.664  0.00  0.00    +0.024 A 
ATOM     22  C   UNL     1      22.955   5.867  20.763  0.00  0.00    +0.003 A 
ATOM     23  C   UNL     1      22.155   4.889  22.778  0.00  0.00    +0.111 A 
ATOM     24  C   UNL     1      23.165   5.008  21.836  0.00  0.00    +0.020 A 
ENDBRANCH  12  15
ENDBRANCH   2  12
ENDBRANCH  11   7
TORSDOF 4
ENDMDL
MODEL 5
REMARK VINA RESULT:      -6.9      1.723      2.072
REMARK  Name = 51137871
REMARK  4 active torsions:
REMARK  status: ('A' for Active; 'I' for Inactive)
REMARK    1  A    between atoms: N_2  and  C_12
REMARK    2  A    between atoms: C_7  and  C_11
REMARK    3  A    between atoms: C_12  and  C_15
REMARK    4  A    between atoms: C_16  and  C_21
REMARK                            x       y       z     vdW  Elec       q    Type
REMARK                         _______ _______ _______ _____ _____    ______ ____
ROOT
ATOM      3  N   UNL     1      14.787   9.767  21.795  0.00  0.00    -0.342 N 
ATOM      4  N   UNL     1      14.366   7.731  21.009  0.00  0.00    -0.231 NA
ATOM     11  C   UNL     1      15.287   8.652  21.183  0.00  0.00    +0.113 A 
ATOM     13  C   UNL     1      13.453   9.552  22.030  0.00  0.00    +0.067 A 
ATOM     14  C   UNL     1      13.214   8.274  21.531  0.00  0.00    +0.101 A 
ATOM     16  C   UNL     1      11.920   7.737  21.615  0.00  0.00    +0.064 A 
ATOM     17  C   UNL     1      12.464  10.341  22.618  0.00  0.00    +0.028 A 
ATOM     19  C   UNL     1      10.911   8.511  22.202  0.00  0.00    +0.015 A 
ATOM     20  C   UNL     1      11.181   9.790  22.694  0.00  0.00    +0.003 A 
ATOM     25  H   UNL     1      15.303  10.603  22.033  0.00  0.00    +0.167 HD
ENDROOT
BRANCH  16  21
ATOM      1  O   UNL     1      11.020   5.567  21.797  0.00  0.00    -0.270 OA
ATOM      6  N   UNL     1      12.040   6.100  19.813  0.00  0.00    -0.325 N 
ATOM     21  C   UNL     1      11.630   6.407  21.109  0.00  0.00    +0.244 C 
ATOM     26  H   UNL     1      11.850   5.183  19.423  0.00  0.00    +0.145 HD
ATOM     27  H   UNL     1      12.534   6.746  19.208  0.00  0.00    +0.145 HD
ENDBRANCH  16  21
BRANCH  11   7
ATOM      2  N   UNL     1      18.882   8.087  21.625  0.00  0.00    -0.296 NA
ATOM      7  C   UNL     1      16.743   8.560  20.786  0.00  0.00    +0.070 C 
ATOM      8  C   UNL     1      17.538   9.869  20.936  0.00  0.00    +0.028 C 
ATOM      9  C   UNL     1      17.526   7.533  21.614  0.00  0.00    +0.096 C 
ATOM     10  C   UNL     1      18.700   9.520  21.857  0.00  0.00    +0.085 C 
BRANCH   2  12
ATOM     12  C   UNL     1      19.728   7.465  22.631  0.00  0.00    +0.139 C 
BRANCH  12  15
ATOM      5  N   UNL     1      21.205   5.561  22.970  0.00  0.00    -0.259 NA
ATOM     15  C   UNL     1      20.404   6.227  22.107  0.00  0.00    +0.055 A 
ATOM     18  C   UNL     1      20.181   5.834  20.797  0.00  0.00    +0.024 A 
ATOM     22  C   UNL     1      20.820   4.686  20.344  0.00  0.00    +0.003 A 
ATOM     23  C   UNL     1      21.808   4.449  22.494  0.00  0.00    +0.111 A 
ATOM     24  C   UNL     1      21.651   3.974  21.202  0.00  0.00    +0.020 A 
ENDBRANCH  12  15
ENDBRANCH   2  12
ENDBRANCH  11   7
TORSDOF 4
ENDMDL
MODEL 6
REMARK VINA RESULT:      -6.9      3.071      8.661
REMARK  Name = 51137871
REMARK  4 active torsions:
REMARK  status: ('A' for Active; 'I' for Inactive)
REMARK    1  A    between atoms: N_2  and  C_12
REMARK    2  A    between atoms: C_7  and  C_11
REMARK    3  A    between atoms: C_12  and  C_15
REMARK    4  A    between atoms: C_16  and  C_21
REMARK                            x       y       z     vdW  Elec       q    Type
REMARK                         _______ _______ _______ _____ _____    ______ ____
ROOT
ATOM      3  N   UNL     1      15.115   7.165  19.228  0.00  0.00    -0.342 N 
ATOM      4  N   UNL     1      15.924   8.451  20.850  0.00  0.00    -0.231 NA
ATOM     11  C   UNL     1      14.889   8.212  20.077  0.00  0.00    +0.113 A 
ATOM     13  C   UNL     1      16.381   6.697  19.468  0.00  0.00    +0.067 A 
ATOM     14  C   UNL     1      16.866   7.516  20.485  0.00  0.00    +0.101 A 
ATOM     16  C   UNL     1      18.164   7.301  20.977  0.00  0.00    +0.064 A 
ATOM     17  C   UNL     1      17.123   5.660  18.901  0.00  0.00    +0.028 A 
ATOM     19  C   UNL     1      18.926   6.266  20.423  0.00  0.00    +0.015 A 
ATOM     20  C   UNL     1      18.412   5.461  19.403  0.00  0.00    +0.003 A 
ATOM     25  H   UNL     1      14.467   6.798  18.543  0.00  0.00    +0.167 HD
ENDROOT
BRANCH  16  21
ATOM      1  O   UNL     1      19.558   7.695  22.834  0.00  0.00    -0.270 OA
ATOM      6  N   UNL     1      18.255   9.446  22.131  0.00  0.00    -0.325 N 
ATOM     21  C   UNL     1      18.705   8.131  22.038  0.00  0.00    +0.244 C 
ATOM     26  H   UNL     1      18.615  10.057  22.856  0.00  0.00    +0.145 HD
ATOM     27  H   UNL     1      17.568   9.854  21.507  0.00  0.00    +0.145 HD
ENDBRANCH  16  21
BRANCH  11   7
ATOM      2  N   UNL     1      11.663   9.385  21.362  0.00  0.00    -0.296 NA
ATOM      7  C   UNL     1      13.574   8.959  20.071  0.00  0.00    +0.070 C 
ATOM      8  C   UNL     1      12.383   8.167  19.505  0.00  0.00    +0.028 C 
ATOM      9  C   UNL     1      13.124   9.387  21.474  0.00  0.00    +0.096 C 
ATOM     10  C   UNL     1      11.344   8.166  20.618  0.00  0.00    +0.085 C 
BRANCH   2  12
ATOM     12  C   UNL     1      11.007   9.430  22.660  0.00  0.00    +0.139 C 
BRANCH  12  15
ATOM      5  N   UNL     1      11.003  10.930  24.576  0.00  0.00    -0.259 NA
ATOM     15  C   UNL     1      10.984  10.824  23.228  0.00  0.00    +0.055 A 
ATOM     18  C   UNL     1      10.947  11.908  22.365  0.00  0.00    +0.024 A 
ATOM     22  C   UNL     1      10.927  13.182  22.922  0.00  0.00    +0.003 A 
ATOM     23  C   UNL     1      10.984  12.185  25.080  0.00  0.00    +0.111 A 
ATOM     24  C   UNL     1      10.946  13.332  24.304  0.00  0.00    +0.020 A 
ENDBRANCH  12  15
ENDBRANCH   2  12
ENDBRANCH  11   7
TORSDOF 4
ENDMDL
MODEL 7
REMARK VINA RESULT:      -6.8     14.291     15.292
REMARK  Name = 51137871
REMARK  4 active torsions:
REMARK  status: ('A' for Active; 'I' for Inactive)
REMARK    1  A    between atoms: N_2  and  C_12
REMARK    2  A    between atoms: C_7  and  C_11
REMARK    3  A    between atoms: C_12  and  C_15
REMARK    4  A    between atoms: C_16  and  C_21
REMARK                            x       y       z     vdW  Elec       q    Type
REMARK                         _______ _______ _______ _____ _____    ______ ____
ROOT
ATOM      3  N   UNL     1      12.106   8.216   5.862  0.00  0.00    -0.342 N 
ATOM      4  N   UNL     1      12.343   6.291   6.945  0.00  0.00    -0.231 NA
ATOM     11  C   UNL     1      12.910   7.142   6.120  0.00  0.00    +0.113 A 
ATOM     13  C   UNL     1      10.942   8.048   6.567  0.00  0.00    +0.067 A 
ATOM     14  C   UNL     1      11.115   6.839   7.236  0.00  0.00    +0.101 A 
ATOM     16  C   UNL     1      10.086   6.362   8.065  0.00  0.00    +0.064 A 
ATOM     17  C   UNL     1       9.788   8.825   6.675  0.00  0.00    +0.028 A 
ATOM     19  C   UNL     1       8.918   7.126   8.188  0.00  0.00    +0.015 A 
ATOM     20  C   UNL     1       8.775   8.335   7.504  0.00  0.00    +0.003 A 
ATOM     25  H   UNL     1      12.326   8.998   5.259  0.00  0.00    +0.167 HD
ENDROOT
BRANCH  16  21
ATOM      1  O   UNL     1      10.272   5.070  10.025  0.00  0.00    -0.270 OA
ATOM      6  N   UNL     1      10.292   3.934   8.034  0.00  0.00    -0.325 N 
ATOM     21  C   UNL     1      10.227   5.107   8.782  0.00  0.00    +0.244 C 
ATOM     26  H   UNL     1      10.384   3.038   8.500  0.00  0.00    +0.145 HD
ATOM     27  H   UNL     1      10.254   3.906   7.021  0.00  0.00    +0.145 HD
ENDBRANCH  16  21
BRANCH  11   7
ATOM      2  N   UNL     1      16.321   8.140   5.228  0.00  0.00    -0.296 NA
ATOM      7  C   UNL     1      14.280   7.017   5.493  0.00  0.00    +0.070 C 
ATOM      8  C   UNL     1      14.386   7.558   4.057  0.00  0.00    +0.028 C 
ATOM      9  C   UNL     1      15.365   7.770   6.274  0.00  0.00    +0.096 C 
ATOM     10  C   UNL     1      15.497   8.600   4.110  0.00  0.00    +0.085 C 
BRANCH   2  12
ATOM     12  C   UNL     1      17.266   9.154   5.673  0.00  0.00    +0.139 C 
BRANCH  12  15
ATOM      5  N   UNL     1      19.154   8.048   4.609  0.00  0.00    -0.259 NA
ATOM     15  C   UNL     1      18.672   8.620   5.735  0.00  0.00    +0.055 A 
ATOM     18  C   UNL     1      19.392   8.739   6.914  0.00  0.00    +0.024 A 
ATOM     22  C   UNL     1      20.688   8.236   6.938  0.00  0.00    +0.003 A 
ATOM     23  C   UNL     1      20.418   7.572   4.670  0.00  0.00    +0.111 A 
ATOM     24  C   UNL     1      21.219   7.641   5.799  0.00  0.00    +0.020 A 
ENDBRANCH  12  15
ENDBRANCH   2  12
ENDBRANCH  11   7
TORSDOF 4
ENDMDL
MODEL 8
REMARK VINA RESULT:      -6.8     17.087     18.786
REMARK  Name = 51137871
REMARK  4 active torsions:
REMARK  status: ('A' for Active; 'I' for Inactive)
REMARK    1  A    between atoms: N_2  and  C_12
REMARK    2  A    between atoms: C_7  and  C_11
REMARK    3  A    between atoms: C_12  and  C_15
REMARK    4  A    between atoms: C_16  and  C_21
REMARK                            x       y       z     vdW  Elec       q    Type
REMARK                         _______ _______ _______ _____ _____    ______ ____
ROOT
ATOM      3  N   UNL     1       9.599   7.014   4.360  0.00  0.00    -0.342 N 
ATOM      4  N   UNL     1       9.936   5.036   5.316  0.00  0.00    -0.231 NA
ATOM     11  C   UNL     1       9.932   5.701   4.182  0.00  0.00    +0.113 A 
ATOM     13  C   UNL     1       9.373   7.210   5.698  0.00  0.00    +0.067 A 
ATOM     14  C   UNL     1       9.589   5.961   6.273  0.00  0.00    +0.101 A 
ATOM     16  C   UNL     1       9.437   5.811   7.662  0.00  0.00    +0.064 A 
ATOM     17  C   UNL     1       9.007   8.339   6.433  0.00  0.00    +0.028 A 
ATOM     19  C   UNL     1       9.071   6.930   8.419  0.00  0.00    +0.015 A 
ATOM     20  C   UNL     1       8.861   8.171   7.813  0.00  0.00    +0.003 A 
ATOM     25  H   UNL     1       9.531   7.718   3.638  0.00  0.00    +0.167 HD
ENDROOT
BRANCH  16  21
ATOM      1  O   UNL     1       9.399   4.346   9.506  0.00  0.00    -0.270 OA
ATOM      6  N   UNL     1      10.150   3.485   7.518  0.00  0.00    -0.325 N 
ATOM     21  C   UNL     1       9.657   4.526   8.301  0.00  0.00    +0.244 C 
ATOM     26  H   UNL     1      10.310   2.571   7.928  0.00  0.00    +0.145 HD
ATOM     27  H   UNL     1      10.371   3.574   6.532  0.00  0.00    +0.145 HD
ENDBRANCH  16  21
BRANCH  11   7
ATOM      2  N   UNL     1      11.917   4.057   1.576  0.00  0.00    -0.296 NA
ATOM      7  C   UNL     1      10.249   5.149   2.810  0.00  0.00    +0.070 C 
ATOM      8  C   UNL     1      10.916   6.149   1.850  0.00  0.00    +0.028 C 
ATOM      9  C   UNL     1      11.208   3.953   2.854  0.00  0.00    +0.096 C 
ATOM     10  C   UNL     1      12.218   5.481   1.428  0.00  0.00    +0.085 C 
BRANCH   2  12
ATOM     12  C   UNL     1      13.114   3.230   1.537  0.00  0.00    +0.139 C 
BRANCH  12  15
ATOM      5  N   UNL     1      13.529   3.712  -0.812  0.00  0.00    -0.259 NA
ATOM     15  C   UNL     1      14.049   3.650   0.435  0.00  0.00    +0.055 A 
ATOM     18  C   UNL     1      15.368   3.949   0.741  0.00  0.00    +0.024 A 
ATOM     22  C   UNL     1      16.205   4.335  -0.300  0.00  0.00    +0.003 A 
ATOM     23  C   UNL     1      14.374   4.091  -1.797  0.00  0.00    +0.111 A 
ATOM     24  C   UNL     1      15.708   4.410  -1.596  0.00  0.00    +0.020 A 
ENDBRANCH  12  15
ENDBRANCH   2  12
ENDBRANCH  11   7
TORSDOF 4
ENDMDL
MODEL 9
REMARK VINA RESULT:      -6.8      2.879      8.608
REMARK  Name = 51137871
REMARK  4 active torsions:
REMARK  status: ('A' for Active; 'I' for Inactive)
REMARK    1  A    between atoms: N_2  and  C_12
REMARK    2  A    between atoms: C_7  and  C_11
REMARK    3  A    between atoms: C_12  and  C_15
REMARK    4  A    between atoms: C_16  and  C_21
REMARK                            x       y       z     vdW  Elec       q    Type
REMARK                         _______ _______ _______ _____ _____    ______ ____
ROOT
ATOM      3  N   UNL     1      18.541   6.193  19.896  0.00  0.00    -0.342 N 
ATOM      4  N   UNL     1      18.417   7.281  21.830  0.00  0.00    -0.231 NA
ATOM     11  C   UNL     1      17.839   7.077  20.667  0.00  0.00    +0.113 A 
ATOM     13  C   UNL     1      19.645   5.800  20.609  0.00  0.00    +0.067 A 
ATOM     14  C   UNL     1      19.544   6.493  21.813  0.00  0.00    +0.101 A 
ATOM     16  C   UNL     1      20.537   6.314  22.790  0.00  0.00    +0.064 A 
ATOM     17  C   UNL     1      20.691   4.925  20.314  0.00  0.00    +0.028 A 
ATOM     19  C   UNL     1      21.596   5.440  22.516  0.00  0.00    +0.015 A 
ATOM     20  C   UNL     1      21.670   4.759  21.299  0.00  0.00    +0.003 A 
ATOM     25  H   UNL     1      18.294   5.881  18.967  0.00  0.00    +0.167 HD
ENDROOT
BRANCH  16  21
ATOM      1  O   UNL     1      20.826   6.474  25.122  0.00  0.00    -0.270 OA
ATOM      6  N   UNL     1      20.004   8.329  24.053  0.00  0.00    -0.325 N 
ATOM     21  C   UNL     1      20.468   7.016  24.060  0.00  0.00    +0.244 C 
ATOM     26  H   UNL     1      19.948   8.853  24.920  0.00  0.00    +0.145 HD
ATOM     27  H   UNL     1      19.706   8.820  23.218  0.00  0.00    +0.145 HD
ENDBRANCH  16  21
BRANCH  11   7
ATOM      2  N   UNL     1      14.280   7.951  20.682  0.00  0.00    -0.296 NA
ATOM      7  C   UNL     1      16.557   7.705  20.173  0.00  0.00    +0.070 C 
ATOM      8  C   UNL     1      15.720   6.815  19.236  0.00  0.00    +0.028 C 
ATOM      9  C   UNL     1      15.598   8.081  21.310  0.00  0.00    +0.096 C 
ATOM     10  C   UNL     1      14.355   6.714  19.904  0.00  0.00    +0.085 C 
BRANCH   2  12
ATOM     12  C   UNL     1      13.201   7.928  21.657  0.00  0.00    +0.139 C 
BRANCH  12  15
ATOM      5  N   UNL     1      11.649   9.420  22.792  0.00  0.00    -0.259 NA
ATOM     15  C   UNL     1      12.515   9.264  21.765  0.00  0.00    +0.055 A 
ATOM     18  C   UNL     1      12.796  10.249  20.831  0.00  0.00    +0.024 A 
ATOM     22  C   UNL     1      12.146  11.471  20.959  0.00  0.00    +0.003 A 
ATOM     23  C   UNL     1      11.037  10.622  22.883  0.00  0.00    +0.111 A 
ATOM     24  C   UNL     1      11.248  11.670  22.002  0.00  0.00    +0.020 A 
ENDBRANCH  12  15
ENDBRANCH   2  12
ENDBRANCH  11   7
TORSDOF 4
ENDMDL
MODEL 10
REMARK VINA RESULT:      -6.7      2.684      7.664
REMARK  Name = 51137871
REMARK  4 active torsions:
REMARK  status: ('A' for Active; 'I' for Inactive)
REMARK    1  A    between atoms: N_2  and  C_12
REMARK    2  A    between atoms: C_7  and  C_11
REMARK    3  A    between atoms: C_12  and  C_15
REMARK    4  A    between atoms: C_16  and  C_21
REMARK                            x       y       z     vdW  Elec       q    Type
REMARK                         _______ _______ _______ _____ _____    ______ ____
ROOT
ATOM      3  N   UNL     1      17.570   9.699  22.247  0.00  0.00    -0.342 N 
ATOM      4  N   UNL     1      15.946   8.774  21.044  0.00  0.00    -0.231 NA
ATOM     11  C   UNL     1      16.271   9.777  21.828  0.00  0.00    +0.113 A 
ATOM     13  C   UNL     1      18.120   8.570  21.695  0.00  0.00    +0.067 A 
ATOM     14  C   UNL     1      17.087   8.010  20.949  0.00  0.00    +0.101 A 
ATOM     16  C   UNL     1      17.321   6.820  20.242  0.00  0.00    +0.064 A 
ATOM     17  C   UNL     1      19.394   8.008  21.783  0.00  0.00    +0.028 A 
ATOM     19  C   UNL     1      18.593   6.237  20.315  0.00  0.00    +0.015 A 
ATOM     20  C   UNL     1      19.609   6.823  21.073  0.00  0.00    +0.003 A 
ATOM     25  H   UNL     1      18.044  10.354  22.854  0.00  0.00    +0.167 HD
ENDROOT
BRANCH  16  21
ATOM      1  O   UNL     1      16.513   5.678  18.347  0.00  0.00    -0.270 OA
ATOM      6  N   UNL     1      14.979   6.203  19.969  0.00  0.00    -0.325 N 
ATOM     21  C   UNL     1      16.272   6.204  19.449  0.00  0.00    +0.244 C 
ATOM     26  H   UNL     1      14.221   5.777  19.447  0.00  0.00    +0.145 HD
ATOM     27  H   UNL     1      14.728   6.611  20.863  0.00  0.00    +0.145 HD
ENDBRANCH  16  21
BRANCH  11   7
ATOM      2  N   UNL     1      13.193  11.754  22.053  0.00  0.00    -0.296 NA
ATOM      7  C   UNL     1      15.374  10.914  22.258  0.00  0.00    +0.070 C 
ATOM      8  C   UNL     1      15.377  12.132  21.318  0.00  0.00    +0.028 C 
ATOM      9  C   UNL     1      13.898  10.507  22.360  0.00  0.00    +0.096 C 
ATOM     10  C   UNL     1      13.920  12.327  20.920  0.00  0.00    +0.085 C 
BRANCH   2  12
ATOM     12  C   UNL     1      11.785  11.536  21.755  0.00  0.00    +0.139 C 
BRANCH  12  15
ATOM      5  N   UNL     1      10.933   9.429  22.623  0.00  0.00    -0.259 NA
ATOM     15  C   UNL     1      11.472  10.076  21.565  0.00  0.00    +0.055 A 
ATOM     18  C   UNL     1      11.741   9.477  20.344  0.00  0.00    +0.024 A 
ATOM     22  C   UNL     1      11.439   8.128  20.201  0.00  0.00    +0.003 A 
ATOM     23  C   UNL     1      10.653   8.118  22.445  0.00  0.00    +0.111 A 
ATOM     24  C   UNL     1      10.884   7.428  21.266  0.00  0.00    +0.020 A 
ENDBRANCH  12  15
ENDBRANCH   2  12
ENDBRANCH  11   7
TORSDOF 4
ENDMDL
