MODEL 1
REMARK VINA RESULT:      -7.1      0.000      0.000
REMARK  Name = 7156243
REMARK  6 active torsions:
REMARK  status: ('A' for Active; 'I' for Inactive)
REMARK    1  A    between atoms: O_3  and  C_22
REMARK    2  A    between atoms: O_3  and  C_24
REMARK    3  A    between atoms: N_7  and  C_20
REMARK    4  A    between atoms: N_8  and  C_27
REMARK    5  A    between atoms: C_19  and  C_22
REMARK    6  A    between atoms: C_33  and  C_36
REMARK                            x       y       z     vdW  Elec       q    Type
REMARK                         _______ _______ _______ _____ _____    ______ ____
ROOT
ATOM      1  O   UNL     1      -8.642 -10.139  11.646  0.00  0.00    -0.266 OA
ATOM      2  O   UNL     1      -6.448 -13.823   8.438  0.00  0.00    -0.272 OA
ATOM      5  N   UNL     1      -6.371 -11.720   7.453  0.00  0.00    -0.298 N 
ATOM      6  N   UNL     1      -7.585  -9.695   9.610  0.00  0.00    -0.310 N 
ATOM     10  C   UNL     1      -8.531 -10.467   7.360  0.00  0.00    +0.027 C 
ATOM     11  C   UNL     1      -6.406  -9.233   7.431  0.00  0.00    +0.054 C 
ATOM     12  C   UNL     1      -7.793  -9.261   6.794  0.00  0.00    +0.018 C 
ATOM     13  C   UNL     1      -7.773 -11.765   7.031  0.00  0.00    +0.113 C 
ATOM     14  C   UNL     1      -8.713 -10.275   8.870  0.00  0.00    +0.130 C 
ATOM     15  C   UNL     1      -5.636 -10.512   7.051  0.00  0.00    +0.117 C 
ATOM     16  C   UNL     1      -6.501  -9.118   8.941  0.00  0.00    +0.027 A 
ATOM     17  C   UNL     1      -5.534  -8.492   9.635  0.00  0.00    +0.024 A 
ATOM     18  C   UNL     1      -7.699  -9.660  11.015  0.00  0.00    +0.273 A 
ATOM     19  C   UNL     1      -5.814 -12.818   8.108  0.00  0.00    +0.253 C 
ATOM     20  C   UNL     1      -6.591  -8.974  11.751  0.00  0.00    +0.100 A 
ATOM     21  C   UNL     1      -5.583  -8.422  11.068  0.00  0.00    +0.030 A 
ENDROOT
BRANCH  20   7
ATOM      4  O   UNL     1      -5.395 -10.826  13.549  0.00  0.00    -0.252 OA
ATOM      7  N   UNL     1      -6.658  -8.931  13.112  0.00  0.00    -0.265 N 
ATOM      8  N   UNL     1      -6.303  -9.547  15.295  0.00  0.00    -0.269 N 
ATOM     23  C   UNL     1      -6.050  -9.869  13.957  0.00  0.00    +0.308 C 
ATOM     37  H   UNL     1      -7.377  -8.339  13.519  0.00  0.00    +0.157 HD
ATOM     38  H   UNL     1      -6.862  -8.715  15.465  0.00  0.00    +0.156 HD
BRANCH   8  27
ATOM     27  C   UNL     1      -5.871 -10.238  16.452  0.00  0.00    +0.036 A 
ATOM     31  C   UNL     1      -6.809 -10.788  17.325  0.00  0.00    +0.042 A 
ATOM     32  C   UNL     1      -4.508 -10.367  16.717  0.00  0.00    +0.023 A 
ATOM     33  C   UNL     1      -6.382 -11.469  18.465  0.00  0.00    +0.054 A 
ATOM     34  C   UNL     1      -4.082 -11.047  17.858  0.00  0.00    +0.003 A 
ATOM     35  C   UNL     1      -5.019 -11.599  18.732  0.00  0.00    +0.019 A 
BRANCH  33  36
ATOM      9  N   UNL     1      -8.121 -12.493  20.089  0.00  0.00    -0.191 NA
ATOM     36  C   UNL     1      -7.342 -12.034  19.361  0.00  0.00    +0.099 C 
ENDBRANCH  33  36
ENDBRANCH   8  27
ENDBRANCH  20   7
BRANCH  19  22
ATOM     22  C   UNL     1      -4.343 -12.738   8.429  0.00  0.00    +0.324 C 
BRANCH  22   3
ATOM      3  O   UNL     1      -4.181 -13.277   9.719  0.00  0.00    -0.483 OA
BRANCH   3  24
ATOM     24  C   UNL     1      -3.494 -12.520  10.640  0.00  0.00    +0.121 A 
ATOM     25  C   UNL     1      -2.957 -13.124  11.778  0.00  0.00    +0.045 A 
ATOM     26  C   UNL     1      -3.332 -11.150  10.437  0.00  0.00    +0.045 A 
ATOM     28  C   UNL     1      -2.260 -12.358  12.712  0.00  0.00    +0.004 A 
ATOM     29  C   UNL     1      -2.634 -10.383  11.370  0.00  0.00    +0.004 A 
ATOM     30  C   UNL     1      -2.098 -10.987  12.507  0.00  0.00    +0.000 A 
ENDBRANCH   3  24
ENDBRANCH  22   3
ENDBRANCH  19  22
TORSDOF 6
ENDMDL
MODEL 2
REMARK VINA RESULT:      -7.1      2.384      8.432
REMARK  Name = 7156243
REMARK  6 active torsions:
REMARK  status: ('A' for Active; 'I' for Inactive)
REMARK    1  A    between atoms: O_3  and  C_22
REMARK    2  A    between atoms: O_3  and  C_24
REMARK    3  A    between atoms: N_7  and  C_20
REMARK    4  A    between atoms: N_8  and  C_27
REMARK    5  A    between atoms: C_19  and  C_22
REMARK    6  A    between atoms: C_33  and  C_36
REMARK                            x       y       z     vdW  Elec       q    Type
REMARK                         _______ _______ _______ _____ _____    ______ ____
ROOT
ATOM      1  O   UNL     1      -4.680 -12.523   9.788  0.00  0.00    -0.266 OA
ATOM      2  O   UNL     1      -5.875 -12.497  15.008  0.00  0.00    -0.272 OA
ATOM      5  N   UNL     1      -3.579 -12.360  14.687  0.00  0.00    -0.298 N 
ATOM      6  N   UNL     1      -3.141 -12.234  11.522  0.00  0.00    -0.310 N 
ATOM     10  C   UNL     1      -2.570 -14.089  13.191  0.00  0.00    +0.027 C 
ATOM     11  C   UNL     1      -1.501 -11.885  13.403  0.00  0.00    +0.054 C 
ATOM     12  C   UNL     1      -1.225 -13.383  13.302  0.00  0.00    +0.018 C 
ATOM     13  C   UNL     1      -3.436 -13.794  14.429  0.00  0.00    +0.113 C 
ATOM     14  C   UNL     1      -3.255 -13.651  11.892  0.00  0.00    +0.130 C 
ATOM     15  C   UNL     1      -2.323 -11.595  14.674  0.00  0.00    +0.117 C 
ATOM     16  C   UNL     1      -2.248 -11.384  12.181  0.00  0.00    +0.027 A 
ATOM     17  C   UNL     1      -2.074 -10.122  11.752  0.00  0.00    +0.024 A 
ATOM     18  C   UNL     1      -3.896 -11.807  10.411  0.00  0.00    +0.273 A 
ATOM     19  C   UNL     1      -4.833 -11.838  15.003  0.00  0.00    +0.253 C 
ATOM     20  C   UNL     1      -3.691 -10.387   9.979  0.00  0.00    +0.100 A 
ATOM     21  C   UNL     1      -2.813  -9.616  10.630  0.00  0.00    +0.030 A 
ENDROOT
BRANCH  20   7
ATOM      4  O   UNL     1      -6.288  -9.231  10.088  0.00  0.00    -0.252 OA
ATOM      7  N   UNL     1      -4.413  -9.931   8.916  0.00  0.00    -0.265 N 
ATOM      8  N   UNL     1      -6.161  -9.000   7.756  0.00  0.00    -0.269 N 
ATOM     23  C   UNL     1      -5.692  -9.368   9.022  0.00  0.00    +0.308 C 
ATOM     37  H   UNL     1      -4.116 -10.235   7.993  0.00  0.00    +0.157 HD
ATOM     38  H   UNL     1      -5.541  -9.179   6.971  0.00  0.00    +0.156 HD
BRANCH   8  27
ATOM     27  C   UNL     1      -7.401  -8.402   7.429  0.00  0.00    +0.036 A 
ATOM     31  C   UNL     1      -7.781  -7.208   8.040  0.00  0.00    +0.042 A 
ATOM     32  C   UNL     1      -8.241  -9.007   6.494  0.00  0.00    +0.023 A 
ATOM     33  C   UNL     1      -9.003  -6.618   7.717  0.00  0.00    +0.054 A 
ATOM     34  C   UNL     1      -9.464  -8.418   6.173  0.00  0.00    +0.003 A 
ATOM     35  C   UNL     1      -9.845  -7.224   6.783  0.00  0.00    +0.019 A 
BRANCH  33  36
ATOM      9  N   UNL     1      -9.712  -4.401   8.851  0.00  0.00    -0.191 NA
ATOM     36  C   UNL     1      -9.394  -5.395   8.343  0.00  0.00    +0.099 C 
ENDBRANCH  33  36
ENDBRANCH   8  27
ENDBRANCH  20   7
BRANCH  19  22
ATOM     22  C   UNL     1      -4.886 -10.371  15.348  0.00  0.00    +0.324 C 
BRANCH  22   3
ATOM      3  O   UNL     1      -4.528 -10.263  16.705  0.00  0.00    -0.483 OA
BRANCH   3  24
ATOM     24  C   UNL     1      -5.505 -10.518  17.640  0.00  0.00    +0.121 A 
ATOM     25  C   UNL     1      -5.196 -11.241  18.793  0.00  0.00    +0.045 A 
ATOM     26  C   UNL     1      -6.805 -10.055  17.436  0.00  0.00    +0.045 A 
ATOM     28  C   UNL     1      -6.186 -11.500  19.741  0.00  0.00    +0.004 A 
ATOM     29  C   UNL     1      -7.795 -10.312  18.384  0.00  0.00    +0.004 A 
ATOM     30  C   UNL     1      -7.485 -11.034  19.536  0.00  0.00    +0.000 A 
ENDBRANCH   3  24
ENDBRANCH  22   3
ENDBRANCH  19  22
TORSDOF 6
ENDMDL
MODEL 3
REMARK VINA RESULT:      -6.9     23.459     26.571
REMARK  Name = 7156243
REMARK  6 active torsions:
REMARK  status: ('A' for Active; 'I' for Inactive)
REMARK    1  A    between atoms: O_3  and  C_22
REMARK    2  A    between atoms: O_3  and  C_24
REMARK    3  A    between atoms: N_7  and  C_20
REMARK    4  A    between atoms: N_8  and  C_27
REMARK    5  A    between atoms: C_19  and  C_22
REMARK    6  A    between atoms: C_33  and  C_36
REMARK                            x       y       z     vdW  Elec       q    Type
REMARK                         _______ _______ _______ _____ _____    ______ ____
ROOT
ATOM      1  O   UNL     1       9.018   2.811  -3.858  0.00  0.00    -0.266 OA
ATOM      2  O   UNL     1       9.975   3.916   1.293  0.00  0.00    -0.272 OA
ATOM      5  N   UNL     1      11.698   4.703  -0.053  0.00  0.00    -0.298 N 
ATOM      6  N   UNL     1      10.821   4.066  -3.061  0.00  0.00    -0.310 N 
ATOM     10  C   UNL     1      12.695   3.053  -1.642  0.00  0.00    +0.027 C 
ATOM     11  C   UNL     1      12.736   5.450  -2.186  0.00  0.00    +0.054 C 
ATOM     12  C   UNL     1      13.554   4.162  -2.236  0.00  0.00    +0.018 C 
ATOM     13  C   UNL     1      12.319   3.384  -0.187  0.00  0.00    +0.113 C 
ATOM     14  C   UNL     1      11.458   2.856  -2.526  0.00  0.00    +0.130 C 
ATOM     15  C   UNL     1      12.412   5.801  -0.721  0.00  0.00    +0.117 C 
ATOM     16  C   UNL     1      11.450   5.312  -2.980  0.00  0.00    +0.027 A 
ATOM     17  C   UNL     1      10.905   6.386  -3.578  0.00  0.00    +0.024 A 
ATOM     18  C   UNL     1       9.601   3.891  -3.745  0.00  0.00    +0.273 A 
ATOM     19  C   UNL     1      10.560   4.851   0.741  0.00  0.00    +0.253 C 
ATOM     20  C   UNL     1       9.014   5.115  -4.376  0.00  0.00    +0.100 A 
ATOM     21  C   UNL     1       9.662   6.282  -4.287  0.00  0.00    +0.030 A 
ENDROOT
BRANCH  20   7
ATOM      4  O   UNL     1       6.487   6.061  -3.476  0.00  0.00    -0.252 OA
ATOM      7  N   UNL     1       7.827   4.989  -5.036  0.00  0.00    -0.265 N 
ATOM      8  N   UNL     1       5.580   5.188  -5.458  0.00  0.00    -0.269 N 
ATOM     23  C   UNL     1       6.606   5.474  -4.550  0.00  0.00    +0.308 C 
ATOM     37  H   UNL     1       7.789   4.307  -5.788  0.00  0.00    +0.157 HD
ATOM     38  H   UNL     1       5.847   4.696  -6.306  0.00  0.00    +0.156 HD
BRANCH   8  27
ATOM     27  C   UNL     1       4.206   5.505  -5.344  0.00  0.00    +0.036 A 
ATOM     31  C   UNL     1       3.296   4.525  -4.947  0.00  0.00    +0.042 A 
ATOM     32  C   UNL     1       3.762   6.796  -5.628  0.00  0.00    +0.023 A 
ATOM     33  C   UNL     1       1.941   4.838  -4.834  0.00  0.00    +0.054 A 
ATOM     34  C   UNL     1       2.407   7.108  -5.516  0.00  0.00    +0.003 A 
ATOM     35  C   UNL     1       1.497   6.129  -5.119  0.00  0.00    +0.019 A 
BRANCH  33  36
ATOM      9  N   UNL     1       0.249   3.021  -4.097  0.00  0.00    -0.191 NA
ATOM     36  C   UNL     1       1.008   3.835  -4.427  0.00  0.00    +0.099 C 
ENDBRANCH  33  36
ENDBRANCH   8  27
ENDBRANCH  20   7
BRANCH  19  22
ATOM     22  C   UNL     1      10.031   6.253   0.908  0.00  0.00    +0.324 C 
BRANCH  22   3
ATOM      3  O   UNL     1      10.585   6.752   2.102  0.00  0.00    -0.483 OA
BRANCH   3  24
ATOM     24  C   UNL     1       9.784   6.746   3.222  0.00  0.00    +0.121 A 
ATOM     25  C   UNL     1       9.997   5.801   4.226  0.00  0.00    +0.045 A 
ATOM     26  C   UNL     1       8.761   7.685   3.354  0.00  0.00    +0.045 A 
ATOM     28  C   UNL     1       9.186   5.795   5.361  0.00  0.00    +0.004 A 
ATOM     29  C   UNL     1       7.951   7.680   4.489  0.00  0.00    +0.004 A 
ATOM     30  C   UNL     1       8.164   6.734   5.492  0.00  0.00    +0.000 A 
ENDBRANCH   3  24
ENDBRANCH  22   3
ENDBRANCH  19  22
TORSDOF 6
ENDMDL
MODEL 4
REMARK VINA RESULT:      -6.9     28.207     30.978
REMARK  Name = 7156243
REMARK  6 active torsions:
REMARK  status: ('A' for Active; 'I' for Inactive)
REMARK    1  A    between atoms: O_3  and  C_22
REMARK    2  A    between atoms: O_3  and  C_24
REMARK    3  A    between atoms: N_7  and  C_20
REMARK    4  A    between atoms: N_8  and  C_27
REMARK    5  A    between atoms: C_19  and  C_22
REMARK    6  A    between atoms: C_33  and  C_36
REMARK                            x       y       z     vdW  Elec       q    Type
REMARK                         _______ _______ _______ _____ _____    ______ ____
ROOT
ATOM      1  O   UNL     1      14.000  11.720  18.105  0.00  0.00    -0.266 OA
ATOM      2  O   UNL     1      15.498   8.836  22.362  0.00  0.00    -0.272 OA
ATOM      5  N   UNL     1      13.569   7.959  21.409  0.00  0.00    -0.298 N 
ATOM      6  N   UNL     1      12.979   9.744  18.822  0.00  0.00    -0.310 N 
ATOM     10  C   UNL     1      11.697   9.570  21.031  0.00  0.00    +0.027 C 
ATOM     11  C   UNL     1      11.915   7.592  19.587  0.00  0.00    +0.054 C 
ATOM     12  C   UNL     1      10.910   8.472  20.327  0.00  0.00    +0.018 C 
ATOM     13  C   UNL     1      12.697   8.960  22.028  0.00  0.00    +0.113 C 
ATOM     14  C   UNL     1      12.392  10.438  19.976  0.00  0.00    +0.130 C 
ATOM     15  C   UNL     1      12.879   6.944  20.601  0.00  0.00    +0.117 C 
ATOM     16  C   UNL     1      12.702   8.397  18.570  0.00  0.00    +0.027 A 
ATOM     17  C   UNL     1      13.155   7.812  17.448  0.00  0.00    +0.024 A 
ATOM     18  C   UNL     1      13.745  10.527  17.935  0.00  0.00    +0.273 A 
ATOM     19  C   UNL     1      14.937   7.974  21.681  0.00  0.00    +0.253 C 
ATOM     20  C   UNL     1      14.251   9.832  16.709  0.00  0.00    +0.100 A 
ATOM     21  C   UNL     1      13.946   8.547  16.502  0.00  0.00    +0.030 A 
ENDROOT
BRANCH  20   7
ATOM      4  O   UNL     1      13.306  11.168  14.383  0.00  0.00    -0.252 OA
ATOM      7  N   UNL     1      15.008  10.551  15.832  0.00  0.00    -0.265 N 
ATOM      8  N   UNL     1      15.522  11.844  14.006  0.00  0.00    -0.269 N 
ATOM     23  C   UNL     1      14.494  11.193  14.697  0.00  0.00    +0.308 C 
ATOM     37  H   UNL     1      16.014  10.412  15.869  0.00  0.00    +0.157 HD
ATOM     38  H   UNL     1      16.455  11.771  14.403  0.00  0.00    +0.156 HD
BRANCH   8  27
ATOM     27  C   UNL     1      15.424  12.602  12.815  0.00  0.00    +0.036 A 
ATOM     31  C   UNL     1      16.174  12.242  11.696  0.00  0.00    +0.042 A 
ATOM     32  C   UNL     1      14.577  13.709  12.762  0.00  0.00    +0.023 A 
ATOM     33  C   UNL     1      16.076  12.990  10.523  0.00  0.00    +0.054 A 
ATOM     34  C   UNL     1      14.481  14.457  11.589  0.00  0.00    +0.003 A 
ATOM     35  C   UNL     1      15.230  14.098  10.469  0.00  0.00    +0.019 A 
BRANCH  33  36
ATOM      9  N   UNL     1      17.468  12.323   8.443  0.00  0.00    -0.191 NA
ATOM     36  C   UNL     1      16.844  12.622   9.375  0.00  0.00    +0.099 C 
ENDBRANCH  33  36
ENDBRANCH   8  27
ENDBRANCH  20   7
BRANCH  19  22
ATOM     22  C   UNL     1      15.757   6.859  21.084  0.00  0.00    +0.324 C 
BRANCH  22   3
ATOM      3  O   UNL     1      16.861   7.462  20.455  0.00  0.00    -0.483 OA
BRANCH   3  24
ATOM     24  C   UNL     1      18.113   7.002  20.796  0.00  0.00    +0.121 A 
ATOM     25  C   UNL     1      18.646   5.886  20.150  0.00  0.00    +0.045 A 
ATOM     26  C   UNL     1      18.850   7.650  21.787  0.00  0.00    +0.045 A 
ATOM     28  C   UNL     1      19.914   5.419  20.494  0.00  0.00    +0.004 A 
ATOM     29  C   UNL     1      20.119   7.184  22.132  0.00  0.00    +0.004 A 
ATOM     30  C   UNL     1      20.651   6.069  21.484  0.00  0.00    +0.000 A 
ENDBRANCH   3  24
ENDBRANCH  22   3
ENDBRANCH  19  22
TORSDOF 6
ENDMDL
MODEL 5
REMARK VINA RESULT:      -6.9     29.063     31.559
REMARK  Name = 7156243
REMARK  6 active torsions:
REMARK  status: ('A' for Active; 'I' for Inactive)
REMARK    1  A    between atoms: O_3  and  C_22
REMARK    2  A    between atoms: O_3  and  C_24
REMARK    3  A    between atoms: N_7  and  C_20
REMARK    4  A    between atoms: N_8  and  C_27
REMARK    5  A    between atoms: C_19  and  C_22
REMARK    6  A    between atoms: C_33  and  C_36
REMARK                            x       y       z     vdW  Elec       q    Type
REMARK                         _______ _______ _______ _____ _____    ______ ____
ROOT
ATOM      1  O   UNL     1      15.803   5.885  19.431  0.00  0.00    -0.266 OA
ATOM      2  O   UNL     1      12.794   9.673  17.135  0.00  0.00    -0.272 OA
ATOM      5  N   UNL     1      12.659   9.803  19.451  0.00  0.00    -0.298 N 
ATOM      6  N   UNL     1      14.645   7.563  20.573  0.00  0.00    -0.310 N 
ATOM     10  C   UNL     1      12.089   7.682  20.641  0.00  0.00    +0.027 C 
ATOM     11  C   UNL     1      13.422   9.403  21.785  0.00  0.00    +0.054 C 
ATOM     12  C   UNL     1      12.297   8.389  21.975  0.00  0.00    +0.018 C 
ATOM     13  C   UNL     1      11.706   8.696  19.549  0.00  0.00    +0.113 C 
ATOM     14  C   UNL     1      13.362   6.907  20.286  0.00  0.00    +0.130 C 
ATOM     15  C   UNL     1      13.006  10.444  20.727  0.00  0.00    +0.117 C 
ATOM     16  C   UNL     1      14.707   8.719  21.356  0.00  0.00    +0.027 A 
ATOM     17  C   UNL     1      15.898   9.238  21.704  0.00  0.00    +0.024 A 
ATOM     18  C   UNL     1      15.807   6.914  20.108  0.00  0.00    +0.273 A 
ATOM     19  C   UNL     1      13.097  10.226  18.196  0.00  0.00    +0.253 C 
ATOM     20  C   UNL     1      17.112   7.536  20.496  0.00  0.00    +0.100 A 
ATOM     21  C   UNL     1      17.122   8.633  21.261  0.00  0.00    +0.030 A 
ENDROOT
BRANCH  20   7
ATOM      4  O   UNL     1      19.114   6.339  22.123  0.00  0.00    -0.252 OA
ATOM      7  N   UNL     1      18.259   6.946  20.055  0.00  0.00    -0.265 N 
ATOM      8  N   UNL     1      20.273   5.848  20.141  0.00  0.00    -0.269 N 
ATOM     23  C   UNL     1      19.217   6.368  20.898  0.00  0.00    +0.308 C 
ATOM     37  H   UNL     1      18.545   7.150  19.101  0.00  0.00    +0.157 HD
ATOM     38  H   UNL     1      20.204   5.951  19.133  0.00  0.00    +0.156 HD
BRANCH   8  27
ATOM     27  C   UNL     1      21.434   5.187  20.608  0.00  0.00    +0.036 A 
ATOM     31  C   UNL     1      22.666   5.840  20.582  0.00  0.00    +0.042 A 
ATOM     32  C   UNL     1      21.344   3.883  21.095  0.00  0.00    +0.023 A 
ATOM     33  C   UNL     1      23.809   5.188  21.043  0.00  0.00    +0.054 A 
ATOM     34  C   UNL     1      22.489   3.231  21.555  0.00  0.00    +0.003 A 
ATOM     35  C   UNL     1      23.721   3.884  21.529  0.00  0.00    +0.019 A 
BRANCH  33  36
ATOM      9  N   UNL     1      26.099   6.399  20.994  0.00  0.00    -0.191 NA
ATOM     36  C   UNL     1      25.072   5.856  21.016  0.00  0.00    +0.099 C 
ENDBRANCH  33  36
ENDBRANCH   8  27
ENDBRANCH  20   7
BRANCH  19  22
ATOM     22  C   UNL     1      14.003  11.430  18.167  0.00  0.00    +0.324 C 
BRANCH  22   3
ATOM      3  O   UNL     1      14.131  11.806  16.817  0.00  0.00    -0.483 OA
BRANCH   3  24
ATOM     24  C   UNL     1      15.404  12.007  16.333  0.00  0.00    +0.121 A 
ATOM     25  C   UNL     1      15.794  11.418  15.130  0.00  0.00    +0.045 A 
ATOM     26  C   UNL     1      16.304  12.800  17.045  0.00  0.00    +0.045 A 
ATOM     28  C   UNL     1      17.084  11.621  14.640  0.00  0.00    +0.004 A 
ATOM     29  C   UNL     1      17.594  13.005  16.554  0.00  0.00    +0.004 A 
ATOM     30  C   UNL     1      17.983  12.415  15.352  0.00  0.00    +0.000 A 
ENDBRANCH   3  24
ENDBRANCH  22   3
ENDBRANCH  19  22
TORSDOF 6
ENDMDL
MODEL 6
REMARK VINA RESULT:      -6.8      5.576      8.350
REMARK  Name = 7156243
REMARK  6 active torsions:
REMARK  status: ('A' for Active; 'I' for Inactive)
REMARK    1  A    between atoms: O_3  and  C_22
REMARK    2  A    between atoms: O_3  and  C_24
REMARK    3  A    between atoms: N_7  and  C_20
REMARK    4  A    between atoms: N_8  and  C_27
REMARK    5  A    between atoms: C_19  and  C_22
REMARK    6  A    between atoms: C_33  and  C_36
REMARK                            x       y       z     vdW  Elec       q    Type
REMARK                         _______ _______ _______ _____ _____    ______ ____
ROOT
ATOM      1  O   UNL     1     -11.954  -9.824  17.310  0.00  0.00    -0.266 OA
ATOM      2  O   UNL     1     -12.961  -9.964  12.052  0.00  0.00    -0.272 OA
ATOM      5  N   UNL     1     -13.890  -8.067  13.020  0.00  0.00    -0.298 N 
ATOM      6  N   UNL     1     -13.023  -8.136  16.097  0.00  0.00    -0.310 N 
ATOM     10  C   UNL     1     -15.328  -8.446  15.027  0.00  0.00    +0.027 C 
ATOM     11  C   UNL     1     -14.138  -6.311  14.765  0.00  0.00    +0.054 C 
ATOM     12  C   UNL     1     -15.458  -6.939  15.204  0.00  0.00    +0.018 C 
ATOM     13  C   UNL     1     -15.044  -8.793  13.555  0.00  0.00    +0.113 C 
ATOM     14  C   UNL     1     -14.230  -8.963  15.963  0.00  0.00    +0.130 C 
ATOM     15  C   UNL     1     -13.889  -6.619  13.275  0.00  0.00    +0.117 C 
ATOM     16  C   UNL     1     -12.981  -6.831  15.598  0.00  0.00    +0.027 A 
ATOM     17  C   UNL     1     -11.911  -6.051  15.832  0.00  0.00    +0.024 A 
ATOM     18  C   UNL     1     -11.956  -8.687  16.837  0.00  0.00    +0.273 A 
ATOM     19  C   UNL     1     -12.943  -8.747  12.255  0.00  0.00    +0.253 C 
ATOM     20  C   UNL     1     -10.773  -7.795  17.054  0.00  0.00    +0.100 A 
ATOM     21  C   UNL     1     -10.786  -6.547  16.573  0.00  0.00    +0.030 A 
ENDROOT
BRANCH  20   7
ATOM      4  O   UNL     1      -8.555  -9.200  15.962  0.00  0.00    -0.252 OA
ATOM      7  N   UNL     1      -9.715  -8.295  17.754  0.00  0.00    -0.265 N 
ATOM      8  N   UNL     1      -7.723  -9.363  18.151  0.00  0.00    -0.269 N 
ATOM     23  C   UNL     1      -8.643  -8.982  17.168  0.00  0.00    +0.308 C 
ATOM     37  H   UNL     1      -9.830  -8.387  18.759  0.00  0.00    +0.157 HD
ATOM     38  H   UNL     1      -7.943  -9.101  19.108  0.00  0.00    +0.156 HD
BRANCH   8  27
ATOM     27  C   UNL     1      -6.511 -10.072  17.978  0.00  0.00    +0.036 A 
ATOM     31  C   UNL     1      -5.841 -10.019  16.755  0.00  0.00    +0.042 A 
ATOM     32  C   UNL     1      -5.987 -10.824  19.029  0.00  0.00    +0.023 A 
ATOM     33  C   UNL     1      -4.646 -10.718  16.585  0.00  0.00    +0.054 A 
ATOM     34  C   UNL     1      -4.792 -11.523  18.858  0.00  0.00    +0.003 A 
ATOM     35  C   UNL     1      -4.122 -11.470  17.637  0.00  0.00    +0.019 A 
BRANCH  33  36
ATOM      9  N   UNL     1      -3.401 -10.621  14.317  0.00  0.00    -0.191 NA
ATOM     36  C   UNL     1      -3.959 -10.664  15.333  0.00  0.00    +0.099 C 
ENDBRANCH  33  36
ENDBRANCH   8  27
ENDBRANCH  20   7
BRANCH  19  22
ATOM     22  C   UNL     1     -11.834  -7.917  11.658  0.00  0.00    +0.324 C 
BRANCH  22   3
ATOM      3  O   UNL     1     -12.344  -7.355  10.473  0.00  0.00    -0.483 OA
BRANCH   3  24
ATOM     24  C   UNL     1     -11.778  -6.179  10.035  0.00  0.00    +0.121 A 
ATOM     25  C   UNL     1     -12.287  -4.956  10.471  0.00  0.00    +0.045 A 
ATOM     26  C   UNL     1     -10.696  -6.210   9.156  0.00  0.00    +0.045 A 
ATOM     28  C   UNL     1     -11.714  -3.764  10.029  0.00  0.00    +0.004 A 
ATOM     29  C   UNL     1     -10.122  -5.019   8.713  0.00  0.00    +0.004 A 
ATOM     30  C   UNL     1     -10.631  -3.796   9.150  0.00  0.00    +0.000 A 
ENDBRANCH   3  24
ENDBRANCH  22   3
ENDBRANCH  19  22
TORSDOF 6
ENDMDL
MODEL 7
REMARK VINA RESULT:      -6.6     25.854     28.177
REMARK  Name = 7156243
REMARK  6 active torsions:
REMARK  status: ('A' for Active; 'I' for Inactive)
REMARK    1  A    between atoms: O_3  and  C_22
REMARK    2  A    between atoms: O_3  and  C_24
REMARK    3  A    between atoms: N_7  and  C_20
REMARK    4  A    between atoms: N_8  and  C_27
REMARK    5  A    between atoms: C_19  and  C_22
REMARK    6  A    between atoms: C_33  and  C_36
REMARK                            x       y       z     vdW  Elec       q    Type
REMARK                         _______ _______ _______ _____ _____    ______ ____
ROOT
ATOM      1  O   UNL     1      13.518   6.681   7.353  0.00  0.00    -0.266 OA
ATOM      2  O   UNL     1      11.332   3.982   3.277  0.00  0.00    -0.272 OA
ATOM      5  N   UNL     1       9.894   5.643   4.032  0.00  0.00    -0.298 N 
ATOM      6  N   UNL     1      11.479   7.195   6.336  0.00  0.00    -0.310 N 
ATOM     10  C   UNL     1       9.431   5.666   6.487  0.00  0.00    +0.027 C 
ATOM     11  C   UNL     1       9.300   7.758   5.201  0.00  0.00    +0.054 C 
ATOM     12  C   UNL     1       8.632   6.952   6.313  0.00  0.00    +0.018 C 
ATOM     13  C   UNL     1       9.438   4.855   5.179  0.00  0.00    +0.113 C 
ATOM     14  C   UNL     1      10.847   6.021   6.953  0.00  0.00    +0.130 C 
ATOM     15  C   UNL     1       9.254   6.959   3.884  0.00  0.00    +0.117 C 
ATOM     16  C   UNL     1      10.738   8.087   5.554  0.00  0.00    +0.027 A 
ATOM     17  C   UNL     1      11.307   9.216   5.094  0.00  0.00    +0.024 A 
ATOM     18  C   UNL     1      12.832   7.428   6.654  0.00  0.00    +0.273 A 
ATOM     19  C   UNL     1      10.806   5.089   3.134  0.00  0.00    +0.253 C 
ATOM     20  C   UNL     1      13.434   8.683   6.103  0.00  0.00    +0.100 A 
ATOM     21  C   UNL     1      12.682   9.515   5.375  0.00  0.00    +0.030 A 
ENDROOT
BRANCH  20   7
ATOM      4  O   UNL     1      15.677   7.597   4.732  0.00  0.00    -0.252 OA
ATOM      7  N   UNL     1      14.745   8.938   6.378  0.00  0.00    -0.265 N 
ATOM      8  N   UNL     1      17.031   8.836   6.195  0.00  0.00    -0.269 N 
ATOM     23  C   UNL     1      15.817   8.377   5.672  0.00  0.00    +0.308 C 
ATOM     37  H   UNL     1      14.954   9.355   7.281  0.00  0.00    +0.157 HD
ATOM     38  H   UNL     1      16.974   9.485   6.975  0.00  0.00    +0.156 HD
BRANCH   8  27
ATOM     27  C   UNL     1      18.340   8.510   5.768  0.00  0.00    +0.036 A 
ATOM     31  C   UNL     1      18.605   8.328   4.411  0.00  0.00    +0.042 A 
ATOM     32  C   UNL     1      19.364   8.371   6.705  0.00  0.00    +0.023 A 
ATOM     33  C   UNL     1      19.895   8.007   3.990  0.00  0.00    +0.054 A 
ATOM     34  C   UNL     1      20.654   8.049   6.284  0.00  0.00    +0.003 A 
ATOM     35  C   UNL     1      20.920   7.867   4.927  0.00  0.00    +0.019 A 
BRANCH  33  36
ATOM      9  N   UNL     1      20.390   7.668   1.471  0.00  0.00    -0.191 NA
ATOM     36  C   UNL     1      20.169   7.820   2.600  0.00  0.00    +0.099 C 
ENDBRANCH  33  36
ENDBRANCH   8  27
ENDBRANCH  20   7
BRANCH  19  22
ATOM     22  C   UNL     1      11.157   5.922   1.927  0.00  0.00    +0.324 C 
BRANCH  22   3
ATOM      3  O   UNL     1      12.211   5.258   1.273  0.00  0.00    -0.483 OA
BRANCH   3  24
ATOM     24  C   UNL     1      11.918   4.615   0.091  0.00  0.00    +0.121 A 
ATOM     25  C   UNL     1      10.848   5.049  -0.692  0.00  0.00    +0.045 A 
ATOM     26  C   UNL     1      12.690   3.531  -0.324  0.00  0.00    +0.045 A 
ATOM     28  C   UNL     1      10.550   4.399  -1.890  0.00  0.00    +0.004 A 
ATOM     29  C   UNL     1      12.394   2.880  -1.522  0.00  0.00    +0.004 A 
ATOM     30  C   UNL     1      11.324   3.315  -2.305  0.00  0.00    +0.000 A 
ENDBRANCH   3  24
ENDBRANCH  22   3
ENDBRANCH  19  22
TORSDOF 6
ENDMDL
MODEL 8
REMARK VINA RESULT:      -6.6     30.617     33.559
REMARK  Name = 7156243
REMARK  6 active torsions:
REMARK  status: ('A' for Active; 'I' for Inactive)
REMARK    1  A    between atoms: O_3  and  C_22
REMARK    2  A    between atoms: O_3  and  C_24
REMARK    3  A    between atoms: N_7  and  C_20
REMARK    4  A    between atoms: N_8  and  C_27
REMARK    5  A    between atoms: C_19  and  C_22
REMARK    6  A    between atoms: C_33  and  C_36
REMARK                            x       y       z     vdW  Elec       q    Type
REMARK                         _______ _______ _______ _____ _____    ______ ____
ROOT
ATOM      1  O   UNL     1      20.636   3.311  20.658  0.00  0.00    -0.266 OA
ATOM      2  O   UNL     1      22.241   3.470  25.764  0.00  0.00    -0.272 OA
ATOM      5  N   UNL     1      23.942   4.166  24.343  0.00  0.00    -0.298 N 
ATOM      6  N   UNL     1      22.694   4.132  21.399  0.00  0.00    -0.310 N 
ATOM     10  C   UNL     1      24.487   2.635  22.445  0.00  0.00    +0.027 C 
ATOM     11  C   UNL     1      24.893   5.049  22.221  0.00  0.00    +0.054 C 
ATOM     12  C   UNL     1      25.467   3.670  21.907  0.00  0.00    +0.018 C 
ATOM     13  C   UNL     1      24.311   2.800  23.965  0.00  0.00    +0.113 C 
ATOM     14  C   UNL     1      23.159   2.770  21.693  0.00  0.00    +0.130 C 
ATOM     15  C   UNL     1      24.770   5.224  23.747  0.00  0.00    +0.117 C 
ATOM     16  C   UNL     1      23.535   5.236  21.570  0.00  0.00    +0.027 A 
ATOM     17  C   UNL     1      23.131   6.460  21.186  0.00  0.00    +0.024 A 
ATOM     18  C   UNL     1      21.404   4.256  20.844  0.00  0.00    +0.273 A 
ATOM     19  C   UNL     1      22.926   4.372  25.276  0.00  0.00    +0.253 C 
ATOM     20  C   UNL     1      20.983   5.638  20.452  0.00  0.00    +0.100 A 
ATOM     21  C   UNL     1      21.828   6.661  20.618  0.00  0.00    +0.030 A 
ENDROOT
BRANCH  20   7
ATOM      4  O   UNL     1      18.686   6.585  21.836  0.00  0.00    -0.252 OA
ATOM      7  N   UNL     1      19.737   5.801  19.923  0.00  0.00    -0.265 N 
ATOM      8  N   UNL     1      17.505   6.327  19.824  0.00  0.00    -0.269 N 
ATOM     23  C   UNL     1      18.634   6.272  20.648  0.00  0.00    +0.308 C 
ATOM     37  H   UNL     1      19.546   5.334  19.042  0.00  0.00    +0.157 HD
ATOM     38  H   UNL     1      17.631   6.036  18.859  0.00  0.00    +0.156 HD
BRANCH   8  27
ATOM     27  C   UNL     1      16.197   6.744  20.168  0.00  0.00    +0.036 A 
ATOM     31  C   UNL     1      15.203   6.799  19.192  0.00  0.00    +0.042 A 
ATOM     32  C   UNL     1      15.903   7.100  21.485  0.00  0.00    +0.023 A 
ATOM     33  C   UNL     1      13.914   7.210  19.532  0.00  0.00    +0.054 A 
ATOM     34  C   UNL     1      14.615   7.512  21.824  0.00  0.00    +0.003 A 
ATOM     35  C   UNL     1      13.620   7.566  20.848  0.00  0.00    +0.019 A 
BRANCH  33  36
ATOM      9  N   UNL     1      12.067   7.312  17.720  0.00  0.00    -0.191 NA
ATOM     36  C   UNL     1      12.895   7.267  18.532  0.00  0.00    +0.099 C 
ENDBRANCH  33  36
ENDBRANCH   8  27
ENDBRANCH  20   7
BRANCH  19  22
ATOM     22  C   UNL     1      22.665   5.799  25.686  0.00  0.00    +0.324 C 
BRANCH  22   3
ATOM      3  O   UNL     1      21.538   6.228  24.960  0.00  0.00    -0.483 OA
BRANCH   3  24
ATOM     24  C   UNL     1      21.578   7.493  24.418  0.00  0.00    +0.121 A 
ATOM     25  C   UNL     1      20.403   8.097  23.971  0.00  0.00    +0.045 A 
ATOM     26  C   UNL     1      22.792   8.171  24.317  0.00  0.00    +0.045 A 
ATOM     28  C   UNL     1      20.442   9.379  23.422  0.00  0.00    +0.004 A 
ATOM     29  C   UNL     1      22.832   9.453  23.769  0.00  0.00    +0.004 A 
ATOM     30  C   UNL     1      21.656  10.057  23.322  0.00  0.00    +0.000 A 
ENDBRANCH   3  24
ENDBRANCH  22   3
ENDBRANCH  19  22
TORSDOF 6
ENDMDL
MODEL 9
REMARK VINA RESULT:      -6.5      3.842      6.451
REMARK  Name = 7156243
REMARK  6 active torsions:
REMARK  status: ('A' for Active; 'I' for Inactive)
REMARK    1  A    between atoms: O_3  and  C_22
REMARK    2  A    between atoms: O_3  and  C_24
REMARK    3  A    between atoms: N_7  and  C_20
REMARK    4  A    between atoms: N_8  and  C_27
REMARK    5  A    between atoms: C_19  and  C_22
REMARK    6  A    between atoms: C_33  and  C_36
REMARK                            x       y       z     vdW  Elec       q    Type
REMARK                         _______ _______ _______ _____ _____    ______ ____
ROOT
ATOM      1  O   UNL     1      -6.429  -9.574  13.679  0.00  0.00    -0.266 OA
ATOM      2  O   UNL     1      -5.506 -14.822  13.148  0.00  0.00    -0.272 OA
ATOM      5  N   UNL     1      -3.527 -13.673  13.551  0.00  0.00    -0.298 N 
ATOM      6  N   UNL     1      -4.360 -10.616  13.984  0.00  0.00    -0.310 N 
ATOM     10  C   UNL     1      -3.067 -11.716  12.068  0.00  0.00    +0.027 C 
ATOM     11  C   UNL     1      -2.146 -11.763  14.347  0.00  0.00    +0.054 C 
ATOM     12  C   UNL     1      -1.833 -11.391  12.900  0.00  0.00    +0.018 C 
ATOM     13  C   UNL     1      -3.403 -13.215  12.166  0.00  0.00    +0.113 C 
ATOM     14  C   UNL     1      -4.229 -10.834  12.537  0.00  0.00    +0.130 C 
ATOM     15  C   UNL     1      -2.428 -13.275  14.443  0.00  0.00    +0.117 C 
ATOM     16  C   UNL     1      -3.339 -10.982  14.866  0.00  0.00    +0.027 A 
ATOM     17  C   UNL     1      -3.428 -10.670  16.171  0.00  0.00    +0.024 A 
ATOM     18  C   UNL     1      -5.513  -9.932  14.420  0.00  0.00    +0.273 A 
ATOM     19  C   UNL     1      -4.592 -14.499  13.911  0.00  0.00    +0.253 C 
ATOM     20  C   UNL     1      -5.585  -9.624  15.884  0.00  0.00    +0.100 A 
ATOM     21  C   UNL     1      -4.576  -9.979  16.686  0.00  0.00    +0.030 A 
ENDROOT
BRANCH  20   7
ATOM      4  O   UNL     1      -8.176 -10.751  16.213  0.00  0.00    -0.252 OA
ATOM      7  N   UNL     1      -6.691  -8.975  16.348  0.00  0.00    -0.265 N 
ATOM      8  N   UNL     1      -8.870  -8.648  16.990  0.00  0.00    -0.269 N 
ATOM     23  C   UNL     1      -7.948  -9.576  16.492  0.00  0.00    +0.308 C 
ATOM     37  H   UNL     1      -6.659  -7.960  16.355  0.00  0.00    +0.157 HD
ATOM     38  H   UNL     1      -8.519  -7.712  17.174  0.00  0.00    +0.156 HD
BRANCH   8  27
ATOM     27  C   UNL     1     -10.240  -8.852  17.276  0.00  0.00    +0.036 A 
ATOM     31  C   UNL     1     -10.616  -9.548  18.424  0.00  0.00    +0.042 A 
ATOM     32  C   UNL     1     -11.214  -8.356  16.409  0.00  0.00    +0.023 A 
ATOM     33  C   UNL     1     -11.968  -9.749  18.706  0.00  0.00    +0.054 A 
ATOM     34  C   UNL     1     -12.565  -8.559  16.690  0.00  0.00    +0.003 A 
ATOM     35  C   UNL     1     -12.942  -9.254  17.838  0.00  0.00    +0.019 A 
BRANCH  33  36
ATOM      9  N   UNL     1     -12.668 -11.041  20.838  0.00  0.00    -0.191 NA
ATOM     36  C   UNL     1     -12.354 -10.462  19.882  0.00  0.00    +0.099 C 
ENDBRANCH  33  36
ENDBRANCH   8  27
ENDBRANCH  20   7
BRANCH  19  22
ATOM     22  C   UNL     1      -4.603 -15.008  15.330  0.00  0.00    +0.324 C 
BRANCH  22   3
ATOM      3  O   UNL     1      -5.945 -14.990  15.753  0.00  0.00    -0.483 OA
BRANCH   3  24
ATOM     24  C   UNL     1      -6.261 -14.182  16.822  0.00  0.00    +0.121 A 
ATOM     25  C   UNL     1      -7.581 -14.096  17.265  0.00  0.00    +0.045 A 
ATOM     26  C   UNL     1      -5.262 -13.450  17.463  0.00  0.00    +0.045 A 
ATOM     28  C   UNL     1      -7.903 -13.277  18.348  0.00  0.00    +0.004 A 
ATOM     29  C   UNL     1      -5.582 -12.632  18.547  0.00  0.00    +0.004 A 
ATOM     30  C   UNL     1      -6.902 -12.546  18.989  0.00  0.00    +0.000 A 
ENDBRANCH   3  24
ENDBRANCH  22   3
ENDBRANCH  19  22
TORSDOF 6
ENDMDL
MODEL 10
REMARK VINA RESULT:      -6.5     26.567     28.731
REMARK  Name = 7156243
REMARK  6 active torsions:
REMARK  status: ('A' for Active; 'I' for Inactive)
REMARK    1  A    between atoms: O_3  and  C_22
REMARK    2  A    between atoms: O_3  and  C_24
REMARK    3  A    between atoms: N_7  and  C_20
REMARK    4  A    between atoms: N_8  and  C_27
REMARK    5  A    between atoms: C_19  and  C_22
REMARK    6  A    between atoms: C_33  and  C_36
REMARK                            x       y       z     vdW  Elec       q    Type
REMARK                         _______ _______ _______ _____ _____    ______ ____
ROOT
ATOM      1  O   UNL     1      18.813  -8.470  27.219  0.00  0.00    -0.266 OA
ATOM      2  O   UNL     1      22.277  -4.477  26.364  0.00  0.00    -0.272 OA
ATOM      5  N   UNL     1      21.724  -5.531  24.369  0.00  0.00    -0.298 N 
ATOM      6  N   UNL     1      19.546  -7.748  25.121  0.00  0.00    -0.310 N 
ATOM     10  C   UNL     1      21.966  -8.017  24.332  0.00  0.00    +0.027 C 
ATOM     11  C   UNL     1      20.318  -6.930  22.866  0.00  0.00    +0.054 C 
ATOM     12  C   UNL     1      21.360  -8.044  22.934  0.00  0.00    +0.018 C 
ATOM     13  C   UNL     1      22.631  -6.656  24.604  0.00  0.00    +0.113 C 
ATOM     14  C   UNL     1      20.871  -8.339  25.354  0.00  0.00    +0.130 C 
ATOM     15  C   UNL     1      21.003  -5.567  23.088  0.00  0.00    +0.117 C 
ATOM     16  C   UNL     1      19.231  -7.135  23.905  0.00  0.00    +0.027 A 
ATOM     17  C   UNL     1      17.980  -6.704  23.669  0.00  0.00    +0.024 A 
ATOM     18  C   UNL     1      18.587  -7.921  26.140  0.00  0.00    +0.273 A 
ATOM     19  C   UNL     1      21.665  -4.489  25.294  0.00  0.00    +0.253 C 
ATOM     20  C   UNL     1      17.212  -7.406  25.847  0.00  0.00    +0.100 A 
ATOM     21  C   UNL     1      16.953  -6.843  24.663  0.00  0.00    +0.030 A 
ENDROOT
BRANCH  20   7
ATOM      4  O   UNL     1      16.611  -5.520  27.889  0.00  0.00    -0.252 OA
ATOM      7  N   UNL     1      16.259  -7.543  26.813  0.00  0.00    -0.265 N 
ATOM      8  N   UNL     1      14.966  -7.019  28.636  0.00  0.00    -0.269 N 
ATOM     23  C   UNL     1      16.000  -6.583  27.800  0.00  0.00    +0.308 C 
ATOM     37  H   UNL     1      15.893  -8.478  26.970  0.00  0.00    +0.157 HD
ATOM     38  H   UNL     1      14.561  -7.926  28.423  0.00  0.00    +0.156 HD
BRANCH   8  27
ATOM     27  C   UNL     1      14.407  -6.348  29.749  0.00  0.00    +0.036 A 
ATOM     31  C   UNL     1      15.119  -5.327  30.377  0.00  0.00    +0.042 A 
ATOM     32  C   UNL     1      13.143  -6.708  30.216  0.00  0.00    +0.023 A 
ATOM     33  C   UNL     1      14.567  -4.665  31.473  0.00  0.00    +0.054 A 
ATOM     34  C   UNL     1      12.592  -6.047  31.314  0.00  0.00    +0.003 A 
ATOM     35  C   UNL     1      13.304  -5.026  31.942  0.00  0.00    +0.019 A 
BRANCH  33  36
ATOM      9  N   UNL     1      15.889  -2.768  32.641  0.00  0.00    -0.191 NA
ATOM     36  C   UNL     1      15.297  -3.619  32.118  0.00  0.00    +0.099 C 
ENDBRANCH  33  36
ENDBRANCH   8  27
ENDBRANCH  20   7
BRANCH  19  22
ATOM     22  C   UNL     1      20.780  -3.320  24.939  0.00  0.00    +0.324 C 
BRANCH  22   3
ATOM      3  O   UNL     1      19.488  -3.640  25.396  0.00  0.00    -0.483 OA
BRANCH   3  24
ATOM     24  C   UNL     1      18.424  -3.239  24.619  0.00  0.00    +0.121 A 
ATOM     25  C   UNL     1      17.136  -3.229  25.153  0.00  0.00    +0.045 A 
ATOM     26  C   UNL     1      18.635  -2.842  23.299  0.00  0.00    +0.045 A 
ATOM     28  C   UNL     1      16.057  -2.822  24.367  0.00  0.00    +0.004 A 
ATOM     29  C   UNL     1      17.557  -2.434  22.512  0.00  0.00    +0.004 A 
ATOM     30  C   UNL     1      16.269  -2.424  23.047  0.00  0.00    +0.000 A 
ENDBRANCH   3  24
ENDBRANCH  22   3
ENDBRANCH  19  22
TORSDOF 6
ENDMDL
