MODEL 1
REMARK VINA RESULT:      -6.4      0.000      0.000
REMARK  Name = 71694021
REMARK  8 active torsions:
REMARK  status: ('A' for Active; 'I' for Inactive)
REMARK    1  A    between atoms: S_1  and  N_9
REMARK    2  A    between atoms: S_1  and  C_18
REMARK    3  A    between atoms: O_5  and  C_12
REMARK    4  A    between atoms: O_6  and  C_14
REMARK    5  A    between atoms: N_9  and  C_11
REMARK    6  A    between atoms: C_10  and  C_15
REMARK    7  A    between atoms: C_16  and  C_20
REMARK    8  A    between atoms: C_27  and  C_28
REMARK                            x       y       z     vdW  Elec       q    Type
REMARK                         _______ _______ _______ _____ _____    ______ ____
ROOT
ATOM     10  C   UNL     1      -8.701 -12.252  18.728  0.00  0.00    +0.043 C 
ATOM     11  C   UNL     1      -9.392 -10.865  18.614  0.00  0.00    +0.115 C 
ATOM     12  C   UNL     1     -10.495 -10.857  19.681  0.00  0.00    +0.162 C 
ATOM     13  C   UNL     1      -9.351 -12.934  19.944  0.00  0.00    +0.043 C 
ATOM     14  C   UNL     1     -10.748 -12.334  19.968  0.00  0.00    +0.145 C 
ENDROOT
BRANCH  10  15
ATOM     15  C   UNL     1      -7.193 -12.182  18.823  0.00  0.00    -0.040 A 
ATOM     16  C   UNL     1      -6.385 -13.003  18.037  0.00  0.00    -0.047 A 
ATOM     17  C   UNL     1      -6.612 -11.278  19.714  0.00  0.00    +0.004 A 
ATOM     19  C   UNL     1      -4.996 -12.922  18.142  0.00  0.00    +0.003 A 
ATOM     20  C   UNL     1      -6.984 -13.978  17.077  0.00  0.00    +0.044 C 
ATOM     21  C   UNL     1      -5.224 -11.197  19.818  0.00  0.00    +0.000 A 
ATOM     22  C   UNL     1      -4.416 -12.019  19.032  0.00  0.00    +0.000 A 
ENDBRANCH  10  15
BRANCH  12   5
ATOM      5  O   UNL     1      -9.984 -10.198  20.838  0.00  0.00    -0.388 OA
ATOM     30  H   UNL     1     -10.284 -10.700  21.615  0.00  0.00    +0.210 HD
ENDBRANCH  12   5
BRANCH  14   6
ATOM      6  O   UNL     1     -11.382 -12.547  21.214  0.00  0.00    -0.389 OA
ATOM     31  H   UNL     1     -10.782 -12.222  21.907  0.00  0.00    +0.210 HD
ENDBRANCH  14   6
BRANCH  11   9
ATOM      9  N   UNL     1     -10.008 -10.734  17.267  0.00  0.00    -0.184 NA
ATOM     29  H   UNL     1     -10.563 -11.523  16.914  0.00  0.00    +0.148 HD
BRANCH   9   1
ATOM      1  S   UNL     1      -9.516  -9.483  16.229  0.00  0.00    +0.059 S 
ATOM      7  O   UNL     1      -9.574  -8.218  16.935  0.00  0.00    -0.153 OA
ATOM      8  O   UNL     1     -10.190  -9.639  14.955  0.00  0.00    -0.153 OA
BRANCH   1  18
ATOM     18  C   UNL     1      -7.813  -9.880  15.964  0.00  0.00    +0.105 A 
ATOM     23  C   UNL     1      -6.823  -9.234  16.704  0.00  0.00    +0.029 A 
ATOM     24  C   UNL     1      -7.460 -10.839  15.013  0.00  0.00    +0.029 A 
ATOM     25  C   UNL     1      -5.480  -9.547  16.494  0.00  0.00    +0.014 A 
ATOM     26  C   UNL     1      -6.117 -11.151  14.803  0.00  0.00    +0.014 A 
ATOM     27  C   UNL     1      -5.127 -10.505  15.544  0.00  0.00    +0.055 A 
BRANCH  27  28
ATOM      2  F   UNL     1      -3.474 -12.182  15.219  0.00  0.00    -0.166 F 
ATOM      3  F   UNL     1      -3.173 -10.297  14.180  0.00  0.00    -0.166 F 
ATOM      4  F   UNL     1      -2.868 -10.411  16.324  0.00  0.00    -0.166 F 
ATOM     28  C   UNL     1      -3.691 -10.839  15.321  0.00  0.00    +0.417 C 
ENDBRANCH  27  28
ENDBRANCH   1  18
ENDBRANCH   9   1
ENDBRANCH  11   9
TORSDOF 7
ENDMDL
MODEL 2
REMARK VINA RESULT:      -5.9     27.477     29.650
REMARK  Name = 71694021
REMARK  8 active torsions:
REMARK  status: ('A' for Active; 'I' for Inactive)
REMARK    1  A    between atoms: S_1  and  N_9
REMARK    2  A    between atoms: S_1  and  C_18
REMARK    3  A    between atoms: O_5  and  C_12
REMARK    4  A    between atoms: O_6  and  C_14
REMARK    5  A    between atoms: N_9  and  C_11
REMARK    6  A    between atoms: C_10  and  C_15
REMARK    7  A    between atoms: C_16  and  C_20
REMARK    8  A    between atoms: C_27  and  C_28
REMARK                            x       y       z     vdW  Elec       q    Type
REMARK                         _______ _______ _______ _____ _____    ______ ____
ROOT
ATOM     10  C   UNL     1      11.144   5.296   2.943  0.00  0.00    +0.043 C 
ATOM     11  C   UNL     1      12.243   6.179   2.288  0.00  0.00    +0.115 C 
ATOM     12  C   UNL     1      12.445   5.619   0.874  0.00  0.00    +0.162 C 
ATOM     13  C   UNL     1      10.667   4.346   1.831  0.00  0.00    +0.043 C 
ATOM     14  C   UNL     1      11.902   4.195   0.955  0.00  0.00    +0.145 C 
ENDROOT
BRANCH  10  15
ATOM     15  C   UNL     1      10.018   6.084   3.574  0.00  0.00    -0.040 A 
ATOM     16  C   UNL     1       9.449   5.681   4.782  0.00  0.00    -0.047 A 
ATOM     17  C   UNL     1       9.547   7.229   2.929  0.00  0.00    +0.004 A 
ATOM     19  C   UNL     1       8.410   6.422   5.346  0.00  0.00    +0.003 A 
ATOM     20  C   UNL     1       9.935   4.459   5.490  0.00  0.00    +0.044 C 
ATOM     21  C   UNL     1       8.509   7.969   3.493  0.00  0.00    +0.000 A 
ATOM     22  C   UNL     1       7.940   7.566   4.701  0.00  0.00    +0.000 A 
ENDBRANCH  10  15
BRANCH  12   5
ATOM      5  O   UNL     1      11.666   6.405  -0.027  0.00  0.00    -0.388 OA
ATOM     30  H   UNL     1      11.249   5.795  -0.659  0.00  0.00    +0.210 HD
ENDBRANCH  12   5
BRANCH  14   6
ATOM      6  O   UNL     1      11.576   3.663  -0.313  0.00  0.00    -0.389 OA
ATOM     31  H   UNL     1      12.381   3.690  -0.858  0.00  0.00    +0.210 HD
ENDBRANCH  14   6
BRANCH  11   9
ATOM      9  N   UNL     1      13.507   6.040   3.059  0.00  0.00    -0.184 NA
ATOM     29  H   UNL     1      13.820   5.091   3.300  0.00  0.00    +0.148 HD
BRANCH   9   1
ATOM      1  S   UNL     1      14.199   7.400   3.804  0.00  0.00    +0.059 S 
ATOM      7  O   UNL     1      14.345   8.463   2.829  0.00  0.00    -0.153 OA
ATOM      8  O   UNL     1      15.337   6.973   4.594  0.00  0.00    -0.153 OA
BRANCH   1  18
ATOM     18  C   UNL     1      12.931   7.876   4.941  0.00  0.00    +0.105 A 
ATOM     23  C   UNL     1      12.189   9.034   4.712  0.00  0.00    +0.029 A 
ATOM     24  C   UNL     1      12.675   7.094   6.068  0.00  0.00    +0.029 A 
ATOM     25  C   UNL     1      11.189   9.411   5.609  0.00  0.00    +0.014 A 
ATOM     26  C   UNL     1      11.676   7.471   6.965  0.00  0.00    +0.014 A 
ATOM     27  C   UNL     1      10.933   8.629   6.736  0.00  0.00    +0.055 A 
BRANCH  27  28
ATOM      2  F   UNL     1       9.212   7.961   8.235  0.00  0.00    -0.166 F 
ATOM      3  F   UNL     1      10.324   9.755   8.757  0.00  0.00    -0.166 F 
ATOM      4  F   UNL     1       8.889   9.806   7.131  0.00  0.00    -0.166 F 
ATOM     28  C   UNL     1       9.863   9.031   7.694  0.00  0.00    +0.417 C 
ENDBRANCH  27  28
ENDBRANCH   1  18
ENDBRANCH   9   1
ENDBRANCH  11   9
TORSDOF 7
ENDMDL
MODEL 3
REMARK VINA RESULT:      -5.9     19.959     21.468
REMARK  Name = 71694021
REMARK  8 active torsions:
REMARK  status: ('A' for Active; 'I' for Inactive)
REMARK    1  A    between atoms: S_1  and  N_9
REMARK    2  A    between atoms: S_1  and  C_18
REMARK    3  A    between atoms: O_5  and  C_12
REMARK    4  A    between atoms: O_6  and  C_14
REMARK    5  A    between atoms: N_9  and  C_11
REMARK    6  A    between atoms: C_10  and  C_15
REMARK    7  A    between atoms: C_16  and  C_20
REMARK    8  A    between atoms: C_27  and  C_28
REMARK                            x       y       z     vdW  Elec       q    Type
REMARK                         _______ _______ _______ _____ _____    ______ ____
ROOT
ATOM     10  C   UNL     1     -15.019   6.973  21.144  0.00  0.00    +0.043 C 
ATOM     11  C   UNL     1     -14.951   7.356  22.648  0.00  0.00    +0.115 C 
ATOM     12  C   UNL     1     -15.421   6.115  23.419  0.00  0.00    +0.162 C 
ATOM     13  C   UNL     1     -15.402   5.483  21.118  0.00  0.00    +0.043 C 
ATOM     14  C   UNL     1     -16.217   5.316  22.391  0.00  0.00    +0.145 C 
ENDROOT
BRANCH  10  15
ATOM     15  C   UNL     1     -13.752   7.273  20.374  0.00  0.00    -0.040 A 
ATOM     16  C   UNL     1     -13.804   7.771  19.072  0.00  0.00    -0.047 A 
ATOM     17  C   UNL     1     -12.519   7.046  20.986  0.00  0.00    +0.004 A 
ATOM     19  C   UNL     1     -12.622   8.040  18.381  0.00  0.00    +0.003 A 
ATOM     20  C   UNL     1     -15.112   8.022  18.397  0.00  0.00    +0.044 C 
ATOM     21  C   UNL     1     -11.338   7.316  20.294  0.00  0.00    +0.000 A 
ATOM     22  C   UNL     1     -11.389   7.813  18.992  0.00  0.00    +0.000 A 
ENDBRANCH  10  15
BRANCH  12   5
ATOM      5  O   UNL     1     -14.265   5.390  23.835  0.00  0.00    -0.388 OA
ATOM     30  H   UNL     1     -13.490   5.826  23.439  0.00  0.00    +0.210 HD
ENDBRANCH  12   5
BRANCH  14   6
ATOM      6  O   UNL     1     -16.352   3.954  22.745  0.00  0.00    -0.389 OA
ATOM     31  H   UNL     1     -16.775   3.498  21.997  0.00  0.00    +0.210 HD
ENDBRANCH  14   6
BRANCH  11   9
ATOM      9  N   UNL     1     -15.886   8.482  22.910  0.00  0.00    -0.184 NA
ATOM     29  H   UNL     1     -16.842   8.408  22.541  0.00  0.00    +0.148 HD
BRANCH   9   1
ATOM      1  S   UNL     1     -15.286   9.965  23.482  0.00  0.00    +0.059 S 
ATOM      7  O   UNL     1     -14.483   9.736  24.667  0.00  0.00    -0.153 OA
ATOM      8  O   UNL     1     -16.369  10.928  23.509  0.00  0.00    -0.153 OA
BRANCH   1  18
ATOM     18  C   UNL     1     -14.200  10.447  22.172  0.00  0.00    +0.105 A 
ATOM     23  C   UNL     1     -14.724  10.868  20.951  0.00  0.00    +0.029 A 
ATOM     24  C   UNL     1     -12.818  10.403  22.361  0.00  0.00    +0.029 A 
ATOM     25  C   UNL     1     -13.868  11.247  19.917  0.00  0.00    +0.014 A 
ATOM     26  C   UNL     1     -11.961  10.782  21.327  0.00  0.00    +0.014 A 
ATOM     27  C   UNL     1     -12.486  11.204  20.106  0.00  0.00    +0.055 A 
BRANCH  27  28
ATOM      2  F   UNL     1     -12.089  11.348  17.766  0.00  0.00    -0.166 F 
ATOM      3  F   UNL     1     -11.274  12.943  18.998  0.00  0.00    -0.166 F 
ATOM      4  F   UNL     1     -10.361  10.976  19.032  0.00  0.00    -0.166 F 
ATOM     28  C   UNL     1     -11.571  11.610  19.000  0.00  0.00    +0.417 C 
ENDBRANCH  27  28
ENDBRANCH   1  18
ENDBRANCH   9   1
ENDBRANCH  11   9
TORSDOF 7
ENDMDL
MODEL 4
REMARK VINA RESULT:      -5.5     27.056     29.118
REMARK  Name = 71694021
REMARK  8 active torsions:
REMARK  status: ('A' for Active; 'I' for Inactive)
REMARK    1  A    between atoms: S_1  and  N_9
REMARK    2  A    between atoms: S_1  and  C_18
REMARK    3  A    between atoms: O_5  and  C_12
REMARK    4  A    between atoms: O_6  and  C_14
REMARK    5  A    between atoms: N_9  and  C_11
REMARK    6  A    between atoms: C_10  and  C_15
REMARK    7  A    between atoms: C_16  and  C_20
REMARK    8  A    between atoms: C_27  and  C_28
REMARK                            x       y       z     vdW  Elec       q    Type
REMARK                         _______ _______ _______ _____ _____    ______ ____
ROOT
ATOM     10  C   UNL     1      21.420  -4.055  25.224  0.00  0.00    +0.043 C 
ATOM     11  C   UNL     1      21.726  -5.563  25.010  0.00  0.00    +0.115 C 
ATOM     12  C   UNL     1      23.178  -5.764  25.463  0.00  0.00    +0.162 C 
ATOM     13  C   UNL     1      22.668  -3.477  25.913  0.00  0.00    +0.043 C 
ATOM     14  C   UNL     1      23.788  -4.368  25.397  0.00  0.00    +0.145 C 
ENDROOT
BRANCH  10  15
ATOM     15  C   UNL     1      20.143  -3.789  25.989  0.00  0.00    -0.040 A 
ATOM     16  C   UNL     1      19.431  -2.603  25.808  0.00  0.00    -0.047 A 
ATOM     17  C   UNL     1      19.679  -4.751  26.888  0.00  0.00    +0.004 A 
ATOM     19  C   UNL     1      18.255  -2.378  26.526  0.00  0.00    +0.003 A 
ATOM     20  C   UNL     1      19.907  -1.559  24.853  0.00  0.00    +0.044 C 
ATOM     21  C   UNL     1      18.504  -4.525  27.605  0.00  0.00    +0.000 A 
ATOM     22  C   UNL     1      17.792  -3.340  27.424  0.00  0.00    +0.000 A 
ENDBRANCH  10  15
BRANCH  12   5
ATOM      5  O   UNL     1      23.158  -6.243  26.807  0.00  0.00    -0.388 OA
ATOM     30  H   UNL     1      22.956  -7.193  26.775  0.00  0.00    +0.210 HD
ENDBRANCH  12   5
BRANCH  14   6
ATOM      6  O   UNL     1      24.954  -4.243  26.186  0.00  0.00    -0.389 OA
ATOM     31  H   UNL     1      25.700  -4.579  25.660  0.00  0.00    +0.210 HD
ENDBRANCH  14   6
BRANCH  11   9
ATOM      9  N   UNL     1      21.612  -5.886  23.563  0.00  0.00    -0.184 NA
ATOM     29  H   UNL     1      22.235  -5.394  22.911  0.00  0.00    +0.148 HD
BRANCH   9   1
ATOM      1  S   UNL     1      20.272  -6.761  22.994  0.00  0.00    +0.059 S 
ATOM      7  O   UNL     1      19.946  -7.813  23.937  0.00  0.00    -0.153 OA
ATOM      8  O   UNL     1      20.479  -7.075  21.594  0.00  0.00    -0.153 OA
BRANCH   1  18
ATOM     18  C   UNL     1      18.988  -5.547  23.067  0.00  0.00    +0.105 A 
ATOM     23  C   UNL     1      19.091  -4.378  22.314  0.00  0.00    +0.029 A 
ATOM     24  C   UNL     1      17.873  -5.759  23.879  0.00  0.00    +0.029 A 
ATOM     25  C   UNL     1      18.078  -3.420  22.372  0.00  0.00    +0.014 A 
ATOM     26  C   UNL     1      16.861  -4.801  23.937  0.00  0.00    +0.014 A 
ATOM     27  C   UNL     1      16.963  -3.631  23.184  0.00  0.00    +0.055 A 
BRANCH  27  28
ATOM      2  F   UNL     1      15.427  -2.398  24.514  0.00  0.00    -0.166 F 
ATOM      3  F   UNL     1      16.263  -1.379  22.785  0.00  0.00    -0.166 F 
ATOM      4  F   UNL     1      14.777  -2.935  22.510  0.00  0.00    -0.166 F 
ATOM     28  C   UNL     1      15.881  -2.607  23.245  0.00  0.00    +0.417 C 
ENDBRANCH  27  28
ENDBRANCH   1  18
ENDBRANCH   9   1
ENDBRANCH  11   9
TORSDOF 7
ENDMDL
MODEL 5
REMARK VINA RESULT:      -5.5     19.400     20.904
REMARK  Name = 71694021
REMARK  8 active torsions:
REMARK  status: ('A' for Active; 'I' for Inactive)
REMARK    1  A    between atoms: S_1  and  N_9
REMARK    2  A    between atoms: S_1  and  C_18
REMARK    3  A    between atoms: O_5  and  C_12
REMARK    4  A    between atoms: O_6  and  C_14
REMARK    5  A    between atoms: N_9  and  C_11
REMARK    6  A    between atoms: C_10  and  C_15
REMARK    7  A    between atoms: C_16  and  C_20
REMARK    8  A    between atoms: C_27  and  C_28
REMARK                            x       y       z     vdW  Elec       q    Type
REMARK                         _______ _______ _______ _____ _____    ______ ____
ROOT
ATOM     10  C   UNL     1     -13.328   6.712  20.846  0.00  0.00    +0.043 C 
ATOM     11  C   UNL     1     -14.823   6.897  21.227  0.00  0.00    +0.115 C 
ATOM     12  C   UNL     1     -15.050   6.026  22.470  0.00  0.00    +0.162 C 
ATOM     13  C   UNL     1     -12.726   5.843  21.964  0.00  0.00    +0.043 C 
ATOM     14  C   UNL     1     -13.911   5.012  22.429  0.00  0.00    +0.145 C 
ENDROOT
BRANCH  10  15
ATOM     15  C   UNL     1     -12.581   8.011  20.637  0.00  0.00    -0.040 A 
ATOM     16  C   UNL     1     -11.588   8.119  19.664  0.00  0.00    -0.047 A 
ATOM     17  C   UNL     1     -12.899   9.111  21.434  0.00  0.00    +0.004 A 
ATOM     19  C   UNL     1     -10.911   9.326  19.488  0.00  0.00    +0.003 A 
ATOM     20  C   UNL     1     -11.230   6.955  18.799  0.00  0.00    +0.044 C 
ATOM     21  C   UNL     1     -12.223  10.318  21.258  0.00  0.00    +0.000 A 
ATOM     22  C   UNL     1     -11.229  10.426  20.285  0.00  0.00    +0.000 A 
ENDBRANCH  10  15
BRANCH  12   5
ATOM      5  O   UNL     1     -14.940   6.862  23.620  0.00  0.00    -0.388 OA
ATOM     30  H   UNL     1     -15.710   7.455  23.624  0.00  0.00    +0.210 HD
ENDBRANCH  12   5
BRANCH  14   6
ATOM      6  O   UNL     1     -13.665   4.417  23.688  0.00  0.00    -0.389 OA
ATOM     31  H   UNL     1     -14.389   3.793  23.863  0.00  0.00    +0.210 HD
ENDBRANCH  14   6
BRANCH  11   9
ATOM      9  N   UNL     1     -15.677   6.402  20.115  0.00  0.00    -0.184 NA
ATOM     29  H   UNL     1     -15.487   5.462  19.746  0.00  0.00    +0.148 HD
BRANCH   9   1
ATOM      1  S   UNL     1     -16.678   7.483  19.270  0.00  0.00    +0.059 S 
ATOM      7  O   UNL     1     -17.444   8.271  20.215  0.00  0.00    -0.153 OA
ATOM      8  O   UNL     1     -17.350   6.764  18.206  0.00  0.00    -0.153 OA
BRANCH   1  18
ATOM     18  C   UNL     1     -15.494   8.551  18.505  0.00  0.00    +0.105 A 
ATOM     23  C   UNL     1     -14.675   8.066  17.486  0.00  0.00    +0.029 A 
ATOM     24  C   UNL     1     -15.379   9.878  18.921  0.00  0.00    +0.029 A 
ATOM     25  C   UNL     1     -13.740   8.908  16.882  0.00  0.00    +0.014 A 
ATOM     26  C   UNL     1     -14.445  10.719  18.318  0.00  0.00    +0.014 A 
ATOM     27  C   UNL     1     -13.625  10.235  17.298  0.00  0.00    +0.055 A 
BRANCH  27  28
ATOM      2  F   UNL     1     -12.216  12.141  17.476  0.00  0.00    -0.166 F 
ATOM      3  F   UNL     1     -11.486  10.494  16.260  0.00  0.00    -0.166 F 
ATOM      4  F   UNL     1     -13.095  11.750  15.526  0.00  0.00    -0.166 F 
ATOM     28  C   UNL     1     -12.627  11.134  16.652  0.00  0.00    +0.417 C 
ENDBRANCH  27  28
ENDBRANCH   1  18
ENDBRANCH   9   1
ENDBRANCH  11   9
TORSDOF 7
ENDMDL
MODEL 6
REMARK VINA RESULT:      -5.4      5.105      7.175
REMARK  Name = 71694021
REMARK  8 active torsions:
REMARK  status: ('A' for Active; 'I' for Inactive)
REMARK    1  A    between atoms: S_1  and  N_9
REMARK    2  A    between atoms: S_1  and  C_18
REMARK    3  A    between atoms: O_5  and  C_12
REMARK    4  A    between atoms: O_6  and  C_14
REMARK    5  A    between atoms: N_9  and  C_11
REMARK    6  A    between atoms: C_10  and  C_15
REMARK    7  A    between atoms: C_16  and  C_20
REMARK    8  A    between atoms: C_27  and  C_28
REMARK                            x       y       z     vdW  Elec       q    Type
REMARK                         _______ _______ _______ _____ _____    ______ ____
ROOT
ATOM     10  C   UNL     1      -3.498 -14.123  14.839  0.00  0.00    +0.043 C 
ATOM     11  C   UNL     1      -2.533 -13.291  13.949  0.00  0.00    +0.115 C 
ATOM     12  C   UNL     1      -1.649 -14.312  13.221  0.00  0.00    +0.162 C 
ATOM     13  C   UNL     1      -3.216 -15.593  14.485  0.00  0.00    +0.043 C 
ATOM     14  C   UNL     1      -1.751 -15.572  14.074  0.00  0.00    +0.145 C 
ENDROOT
BRANCH  10  15
ATOM     15  C   UNL     1      -4.955 -13.745  14.685  0.00  0.00    -0.040 A 
ATOM     16  C   UNL     1      -5.841 -13.854  15.756  0.00  0.00    -0.047 A 
ATOM     17  C   UNL     1      -5.408 -13.282  13.449  0.00  0.00    +0.004 A 
ATOM     19  C   UNL     1      -7.181 -13.500  15.592  0.00  0.00    +0.003 A 
ATOM     20  C   UNL     1      -5.380 -14.346  17.088  0.00  0.00    +0.044 C 
ATOM     21  C   UNL     1      -6.747 -12.930  13.285  0.00  0.00    +0.000 A 
ATOM     22  C   UNL     1      -7.634 -13.038  14.357  0.00  0.00    +0.000 A 
ENDBRANCH  10  15
BRANCH  12   5
ATOM      5  O   UNL     1      -2.207 -14.533  11.926  0.00  0.00    -0.388 OA
ATOM     30  H   UNL     1      -2.606 -13.696  11.634  0.00  0.00    +0.210 HD
ENDBRANCH  12   5
BRANCH  14   6
ATOM      6  O   UNL     1      -1.395 -16.742  13.366  0.00  0.00    -0.389 OA
ATOM     31  H   UNL     1      -0.732 -16.490  12.700  0.00  0.00    +0.210 HD
ENDBRANCH  14   6
BRANCH  11   9
ATOM      9  N   UNL     1      -1.683 -12.434  14.818  0.00  0.00    -0.184 NA
ATOM     29  H   UNL     1      -1.080 -12.898  15.508  0.00  0.00    +0.148 HD
BRANCH   9   1
ATOM      1  S   UNL     1      -1.970 -10.762  14.898  0.00  0.00    +0.059 S 
ATOM      7  O   UNL     1      -2.337 -10.271  13.585  0.00  0.00    -0.153 OA
ATOM      8  O   UNL     1      -0.888 -10.136  15.635  0.00  0.00    -0.153 OA
BRANCH   1  18
ATOM     18  C   UNL     1      -3.406 -10.689  15.928  0.00  0.00    +0.105 A 
ATOM     23  C   UNL     1      -4.609 -10.211  15.412  0.00  0.00    +0.029 A 
ATOM     24  C   UNL     1      -3.333 -11.107  17.257  0.00  0.00    +0.029 A 
ATOM     25  C   UNL     1      -5.743 -10.152  16.224  0.00  0.00    +0.014 A 
ATOM     26  C   UNL     1      -4.465 -11.048  18.069  0.00  0.00    +0.014 A 
ATOM     27  C   UNL     1      -5.670 -10.571  17.553  0.00  0.00    +0.055 A 
BRANCH  27  28
ATOM      2  F   UNL     1      -7.761  -9.544  18.025  0.00  0.00    -0.166 F 
ATOM      3  F   UNL     1      -7.598 -11.671  18.444  0.00  0.00    -0.166 F 
ATOM      4  F   UNL     1      -6.602 -10.236  19.730  0.00  0.00    -0.166 F 
ATOM     28  C   UNL     1      -6.881 -10.509  18.420  0.00  0.00    +0.417 C 
ENDBRANCH  27  28
ENDBRANCH   1  18
ENDBRANCH   9   1
ENDBRANCH  11   9
TORSDOF 7
ENDMDL
MODEL 7
REMARK VINA RESULT:      -5.3      6.574      8.478
REMARK  Name = 71694021
REMARK  8 active torsions:
REMARK  status: ('A' for Active; 'I' for Inactive)
REMARK    1  A    between atoms: S_1  and  N_9
REMARK    2  A    between atoms: S_1  and  C_18
REMARK    3  A    between atoms: O_5  and  C_12
REMARK    4  A    between atoms: O_6  and  C_14
REMARK    5  A    between atoms: N_9  and  C_11
REMARK    6  A    between atoms: C_10  and  C_15
REMARK    7  A    between atoms: C_16  and  C_20
REMARK    8  A    between atoms: C_27  and  C_28
REMARK                            x       y       z     vdW  Elec       q    Type
REMARK                         _______ _______ _______ _____ _____    ______ ____
ROOT
ATOM     10  C   UNL     1      -2.848 -11.046  12.900  0.00  0.00    +0.043 C 
ATOM     11  C   UNL     1      -3.219 -12.460  13.428  0.00  0.00    +0.115 C 
ATOM     12  C   UNL     1      -2.570 -12.574  14.814  0.00  0.00    +0.162 C 
ATOM     13  C   UNL     1      -2.110 -10.357  14.061  0.00  0.00    +0.043 C 
ATOM     14  C   UNL     1      -1.466 -11.521  14.798  0.00  0.00    +0.145 C 
ENDROOT
BRANCH  10  15
ATOM     15  C   UNL     1      -4.029 -10.250  12.392  0.00  0.00    -0.040 A 
ATOM     16  C   UNL     1      -3.928  -9.470  11.240  0.00  0.00    -0.047 A 
ATOM     17  C   UNL     1      -5.234 -10.304  13.094  0.00  0.00    +0.004 A 
ATOM     19  C   UNL     1      -5.030  -8.744  10.790  0.00  0.00    +0.003 A 
ATOM     20  C   UNL     1      -2.649  -9.397  10.472  0.00  0.00    +0.044 C 
ATOM     21  C   UNL     1      -6.336  -9.577  12.644  0.00  0.00    +0.000 A 
ATOM     22  C   UNL     1      -6.235  -8.797  11.492  0.00  0.00    +0.000 A 
ENDBRANCH  10  15
BRANCH  12   5
ATOM      5  O   UNL     1      -3.559 -12.253  15.791  0.00  0.00    -0.388 OA
ATOM     30  H   UNL     1      -3.714 -11.294  15.744  0.00  0.00    +0.210 HD
ENDBRANCH  12   5
BRANCH  14   6
ATOM      6  O   UNL     1      -1.050 -11.146  16.096  0.00  0.00    -0.389 OA
ATOM     31  H   UNL     1      -0.097 -10.959  16.055  0.00  0.00    +0.210 HD
ENDBRANCH  14   6
BRANCH  11   9
ATOM      9  N   UNL     1      -2.636 -13.488  12.525  0.00  0.00    -0.184 NA
ATOM     29  H   UNL     1      -1.646 -13.394  12.266  0.00  0.00    +0.148 HD
BRANCH   9   1
ATOM      1  S   UNL     1      -3.658 -14.555  11.687  0.00  0.00    +0.059 S 
ATOM      7  O   UNL     1      -4.593 -15.158  12.616  0.00  0.00    -0.153 OA
ATOM      8  O   UNL     1      -2.850 -15.391  10.819  0.00  0.00    -0.153 OA
BRANCH   1  18
ATOM     18  C   UNL     1      -4.561 -13.449  10.644  0.00  0.00    +0.105 A 
ATOM     23  C   UNL     1      -3.929 -12.838   9.563  0.00  0.00    +0.029 A 
ATOM     24  C   UNL     1      -5.907 -13.187  10.905  0.00  0.00    +0.029 A 
ATOM     25  C   UNL     1      -4.641 -11.965   8.740  0.00  0.00    +0.014 A 
ATOM     26  C   UNL     1      -6.619 -12.313  10.083  0.00  0.00    +0.014 A 
ATOM     27  C   UNL     1      -5.986 -11.702   9.001  0.00  0.00    +0.055 A 
BRANCH  27  28
ATOM      2  F   UNL     1      -7.377 -11.411   7.095  0.00  0.00    -0.166 F 
ATOM      3  F   UNL     1      -7.725 -10.076   8.775  0.00  0.00    -0.166 F 
ATOM      4  F   UNL     1      -5.967  -9.815   7.533  0.00  0.00    -0.166 F 
ATOM     28  C   UNL     1      -6.747 -10.769   8.121  0.00  0.00    +0.417 C 
ENDBRANCH  27  28
ENDBRANCH   1  18
ENDBRANCH   9   1
ENDBRANCH  11   9
TORSDOF 7
ENDMDL
MODEL 8
REMARK VINA RESULT:      -5.3      4.127      5.886
REMARK  Name = 71694021
REMARK  8 active torsions:
REMARK  status: ('A' for Active; 'I' for Inactive)
REMARK    1  A    between atoms: S_1  and  N_9
REMARK    2  A    between atoms: S_1  and  C_18
REMARK    3  A    between atoms: O_5  and  C_12
REMARK    4  A    between atoms: O_6  and  C_14
REMARK    5  A    between atoms: N_9  and  C_11
REMARK    6  A    between atoms: C_10  and  C_15
REMARK    7  A    between atoms: C_16  and  C_20
REMARK    8  A    between atoms: C_27  and  C_28
REMARK                            x       y       z     vdW  Elec       q    Type
REMARK                         _______ _______ _______ _____ _____    ______ ____
ROOT
ATOM     10  C   UNL     1      -5.252 -11.070  17.000  0.00  0.00    +0.043 C 
ATOM     11  C   UNL     1      -5.092 -11.398  15.490  0.00  0.00    +0.115 C 
ATOM     12  C   UNL     1      -3.585 -11.563  15.254  0.00  0.00    +0.162 C 
ATOM     13  C   UNL     1      -3.840 -11.190  17.597  0.00  0.00    +0.043 C 
ATOM     14  C   UNL     1      -2.940 -10.828  16.425  0.00  0.00    +0.145 C 
ENDROOT
BRANCH  10  15
ATOM     15  C   UNL     1      -6.272 -11.932  17.711  0.00  0.00    -0.040 A 
ATOM     16  C   UNL     1      -6.814 -11.541  18.935  0.00  0.00    -0.047 A 
ATOM     17  C   UNL     1      -6.668 -13.136  17.126  0.00  0.00    +0.004 A 
ATOM     19  C   UNL     1      -7.753 -12.351  19.573  0.00  0.00    +0.003 A 
ATOM     20  C   UNL     1      -6.406 -10.258  19.581  0.00  0.00    +0.044 C 
ATOM     21  C   UNL     1      -7.606 -13.946  17.765  0.00  0.00    +0.000 A 
ATOM     22  C   UNL     1      -8.149 -13.554  18.989  0.00  0.00    +0.000 A 
ENDBRANCH  10  15
BRANCH  12   5
ATOM      5  O   UNL     1      -3.281 -12.957  15.305  0.00  0.00    -0.388 OA
ATOM     30  H   UNL     1      -2.783 -13.176  14.499  0.00  0.00    +0.210 HD
ENDBRANCH  12   5
BRANCH  14   6
ATOM      6  O   UNL     1      -1.604 -11.231  16.653  0.00  0.00    -0.389 OA
ATOM     31  H   UNL     1      -1.313 -11.735  15.874  0.00  0.00    +0.210 HD
ENDBRANCH  14   6
BRANCH  11   9
ATOM      9  N   UNL     1      -5.594 -10.253  14.684  0.00  0.00    -0.184 NA
ATOM     29  H   UNL     1      -5.119  -9.349  14.788  0.00  0.00    +0.148 HD
BRANCH   9   1
ATOM      1  S   UNL     1      -7.100 -10.362  13.906  0.00  0.00    +0.059 S 
ATOM      7  O   UNL     1      -7.234 -11.669  13.294  0.00  0.00    -0.153 OA
ATOM      8  O   UNL     1      -7.307  -9.162  13.118  0.00  0.00    -0.153 OA
BRANCH   1  18
ATOM     18  C   UNL     1      -8.221 -10.282  15.271  0.00  0.00    +0.105 A 
ATOM     23  C   UNL     1      -8.181  -9.195  16.143  0.00  0.00    +0.029 A 
ATOM     24  C   UNL     1      -9.144 -11.308  15.477  0.00  0.00    +0.029 A 
ATOM     25  C   UNL     1      -9.064  -9.131  17.221  0.00  0.00    +0.014 A 
ATOM     26  C   UNL     1     -10.027 -11.246  16.555  0.00  0.00    +0.014 A 
ATOM     27  C   UNL     1      -9.987 -10.157  17.427  0.00  0.00    +0.055 A 
BRANCH  27  28
ATOM      2  F   UNL     1     -11.752  -9.000  18.522  0.00  0.00    -0.166 F 
ATOM      3  F   UNL     1     -11.763 -11.169  18.670  0.00  0.00    -0.166 F 
ATOM      4  F   UNL     1     -10.309 -10.016  19.792  0.00  0.00    -0.166 F 
ATOM     28  C   UNL     1     -10.932 -10.089  18.578  0.00  0.00    +0.417 C 
ENDBRANCH  27  28
ENDBRANCH   1  18
ENDBRANCH   9   1
ENDBRANCH  11   9
TORSDOF 7
ENDMDL
MODEL 9
REMARK VINA RESULT:      -5.3     26.921     28.789
REMARK  Name = 71694021
REMARK  8 active torsions:
REMARK  status: ('A' for Active; 'I' for Inactive)
REMARK    1  A    between atoms: S_1  and  N_9
REMARK    2  A    between atoms: S_1  and  C_18
REMARK    3  A    between atoms: O_5  and  C_12
REMARK    4  A    between atoms: O_6  and  C_14
REMARK    5  A    between atoms: N_9  and  C_11
REMARK    6  A    between atoms: C_10  and  C_15
REMARK    7  A    between atoms: C_16  and  C_20
REMARK    8  A    between atoms: C_27  and  C_28
REMARK                            x       y       z     vdW  Elec       q    Type
REMARK                         _______ _______ _______ _____ _____    ______ ____
ROOT
ATOM     10  C   UNL     1      19.376  -5.987  26.849  0.00  0.00    +0.043 C 
ATOM     11  C   UNL     1      20.436  -4.998  27.406  0.00  0.00    +0.115 C 
ATOM     12  C   UNL     1      21.493  -5.865  28.103  0.00  0.00    +0.162 C 
ATOM     13  C   UNL     1      19.935  -7.391  27.135  0.00  0.00    +0.043 C 
ATOM     14  C   UNL     1      20.771  -7.178  28.388  0.00  0.00    +0.145 C 
ENDROOT
BRANCH  10  15
ATOM     15  C   UNL     1      19.039  -5.769  25.390  0.00  0.00    -0.040 A 
ATOM     16  C   UNL     1      17.723  -5.860  24.936  0.00  0.00    -0.047 A 
ATOM     17  C   UNL     1      20.067  -5.474  24.494  0.00  0.00    +0.004 A 
ATOM     19  C   UNL     1      17.435  -5.656  23.587  0.00  0.00    +0.003 A 
ATOM     20  C   UNL     1      16.606  -6.175  25.876  0.00  0.00    +0.044 C 
ATOM     21  C   UNL     1      19.778  -5.270  23.145  0.00  0.00    +0.000 A 
ATOM     22  C   UNL     1      18.463  -5.361  22.691  0.00  0.00    +0.000 A 
ENDBRANCH  10  15
BRANCH  12   5
ATOM      5  O   UNL     1      22.569  -6.069  27.188  0.00  0.00    -0.388 OA
ATOM     30  H   UNL     1      22.885  -6.981  27.309  0.00  0.00    +0.210 HD
ENDBRANCH  12   5
BRANCH  14   6
ATOM      6  O   UNL     1      21.662  -8.254  28.606  0.00  0.00    -0.389 OA
ATOM     31  H   UNL     1      22.276  -8.282  27.853  0.00  0.00    +0.210 HD
ENDBRANCH  14   6
BRANCH  11   9
ATOM      9  N   UNL     1      19.794  -4.104  28.407  0.00  0.00    -0.184 NA
ATOM     29  H   UNL     1      19.182  -4.534  29.111  0.00  0.00    +0.148 HD
BRANCH   9   1
ATOM      1  S   UNL     1      19.798  -2.423  28.166  0.00  0.00    +0.059 S 
ATOM      7  O   UNL     1      21.160  -1.964  27.978  0.00  0.00    -0.153 OA
ATOM      8  O   UNL     1      18.951  -1.805  29.167  0.00  0.00    -0.153 OA
BRANCH   1  18
ATOM     18  C   UNL     1      18.957  -2.276  26.617  0.00  0.00    +0.105 A 
ATOM     23  C   UNL     1      19.674  -1.974  25.460  0.00  0.00    +0.029 A 
ATOM     24  C   UNL     1      17.575  -2.461  26.553  0.00  0.00    +0.029 A 
ATOM     25  C   UNL     1      19.011  -1.858  24.238  0.00  0.00    +0.014 A 
ATOM     26  C   UNL     1      16.912  -2.344  25.332  0.00  0.00    +0.014 A 
ATOM     27  C   UNL     1      17.629  -2.042  24.175  0.00  0.00    +0.055 A 
BRANCH  27  28
ATOM      2  F   UNL     1      15.925  -2.839  22.721  0.00  0.00    -0.166 F 
ATOM      3  F   UNL     1      16.327  -0.703  22.680  0.00  0.00    -0.166 F 
ATOM      4  F   UNL     1      17.738  -2.087  21.786  0.00  0.00    -0.166 F 
ATOM     28  C   UNL     1      16.921  -1.918  22.868  0.00  0.00    +0.417 C 
ENDBRANCH  27  28
ENDBRANCH   1  18
ENDBRANCH   9   1
ENDBRANCH  11   9
TORSDOF 7
ENDMDL
MODEL 10
REMARK VINA RESULT:      -5.2      4.119      5.763
REMARK  Name = 71694021
REMARK  8 active torsions:
REMARK  status: ('A' for Active; 'I' for Inactive)
REMARK    1  A    between atoms: S_1  and  N_9
REMARK    2  A    between atoms: S_1  and  C_18
REMARK    3  A    between atoms: O_5  and  C_12
REMARK    4  A    between atoms: O_6  and  C_14
REMARK    5  A    between atoms: N_9  and  C_11
REMARK    6  A    between atoms: C_10  and  C_15
REMARK    7  A    between atoms: C_16  and  C_20
REMARK    8  A    between atoms: C_27  and  C_28
REMARK                            x       y       z     vdW  Elec       q    Type
REMARK                         _______ _______ _______ _____ _____    ______ ____
ROOT
ATOM     10  C   UNL     1      -4.411 -11.747  17.159  0.00  0.00    +0.043 C 
ATOM     11  C   UNL     1      -5.402 -12.931  17.334  0.00  0.00    +0.115 C 
ATOM     12  C   UNL     1      -6.314 -12.545  18.506  0.00  0.00    +0.162 C 
ATOM     13  C   UNL     1      -4.878 -10.671  18.154  0.00  0.00    +0.043 C 
ATOM     14  C   UNL     1      -5.518 -11.488  19.267  0.00  0.00    +0.145 C 
ENDROOT
BRANCH  10  15
ATOM     15  C   UNL     1      -4.308 -11.236  15.739  0.00  0.00    -0.040 A 
ATOM     16  C   UNL     1      -3.072 -10.906  15.182  0.00  0.00    -0.047 A 
ATOM     17  C   UNL     1      -5.473 -11.097  14.983  0.00  0.00    +0.004 A 
ATOM     19  C   UNL     1      -3.000 -10.436  13.871  0.00  0.00    +0.003 A 
ATOM     20  C   UNL     1      -1.812 -11.047  15.971  0.00  0.00    +0.044 C 
ATOM     21  C   UNL     1      -5.400 -10.627  13.672  0.00  0.00    +0.000 A 
ATOM     22  C   UNL     1      -4.165 -10.297  13.115  0.00  0.00    +0.000 A 
ENDBRANCH  10  15
BRANCH  12   5
ATOM      5  O   UNL     1      -7.510 -11.984  17.968  0.00  0.00    -0.388 OA
ATOM     30  H   UNL     1      -7.927 -11.457  18.671  0.00  0.00    +0.210 HD
ENDBRANCH  12   5
BRANCH  14   6
ATOM      6  O   UNL     1      -6.332 -10.684  20.097  0.00  0.00    -0.389 OA
ATOM     31  H   UNL     1      -7.027 -10.295  19.537  0.00  0.00    +0.210 HD
ENDBRANCH  14   6
BRANCH  11   9
ATOM      9  N   UNL     1      -4.641 -14.159  17.685  0.00  0.00    -0.184 NA
ATOM     29  H   UNL     1      -3.884 -14.074  18.375  0.00  0.00    +0.148 HD
BRANCH   9   1
ATOM      1  S   UNL     1      -4.790 -15.552  16.724  0.00  0.00    +0.059 S 
ATOM      7  O   UNL     1      -6.166 -16.008  16.746  0.00  0.00    -0.153 OA
ATOM      8  O   UNL     1      -3.713 -16.464  17.053  0.00  0.00    -0.153 OA
BRANCH   1  18
ATOM     18  C   UNL     1      -4.454 -14.916  15.109  0.00  0.00    +0.105 A 
ATOM     23  C   UNL     1      -3.145 -14.606  14.741  0.00  0.00    +0.029 A 
ATOM     24  C   UNL     1      -5.498 -14.722  14.203  0.00  0.00    +0.029 A 
ATOM     25  C   UNL     1      -2.879 -14.103  13.467  0.00  0.00    +0.014 A 
ATOM     26  C   UNL     1      -5.232 -14.219  12.930  0.00  0.00    +0.014 A 
ATOM     27  C   UNL     1      -3.923 -13.910  12.561  0.00  0.00    +0.055 A 
BRANCH  27  28
ATOM      2  F   UNL     1      -2.582 -12.509  11.186  0.00  0.00    -0.166 F 
ATOM      3  F   UNL     1      -3.332 -14.339  10.283  0.00  0.00    -0.166 F 
ATOM      4  F   UNL     1      -4.683 -12.684  10.654  0.00  0.00    -0.166 F 
ATOM     28  C   UNL     1      -3.638 -13.373  11.199  0.00  0.00    +0.417 C 
ENDBRANCH  27  28
ENDBRANCH   1  18
ENDBRANCH   9   1
ENDBRANCH  11   9
TORSDOF 7
ENDMDL
