REMARK  Name = 38027531
REMARK  12 active torsions:
REMARK  status: ('A' for Active; 'I' for Inactive)
REMARK    1  A    between atoms: N_4  and  C_14
REMARK    2  A    between atoms: N_5  and  C_21
REMARK    3  A    between atoms: N_6  and  C_23
REMARK    4  A    between atoms: C_7  and  C_11
REMARK    5  A    between atoms: C_8  and  C_14
REMARK    6  A    between atoms: C_10  and  C_15
REMARK    7  A    between atoms: C_11  and  C_16
REMARK    8  A    between atoms: C_11  and  C_17
REMARK    9  A    between atoms: C_12  and  C_18
REMARK   10  A    between atoms: C_15  and  C_19
REMARK   11  A    between atoms: C_21  and  C_22
REMARK   12  A    between atoms: C_23  and  C_26
REMARK                            x       y       z     vdW  Elec       q    Type
REMARK                         _______ _______ _______ _____ _____    ______ ____
ROOT
ATOM      7  C   UNL     1       1.464   0.534  -1.277  0.00  0.00    +0.000 C 
ATOM      8  C   UNL     1       3.001   0.395  -1.415  0.00  0.00    +0.032 C 
ATOM      9  C   UNL     1       1.089   1.968  -0.874  0.00  0.00    +0.012 C 
ATOM     10  C   UNL     1       1.739   2.388   0.458  0.00  0.00    +0.023 C 
ATOM     12  C   UNL     1       3.212   2.035   0.502  0.00  0.00    -0.073 C 
ATOM     13  C   UNL     1       3.761   1.153  -0.352  0.00  0.00    -0.022 C 
ATOM     18  C   UNL     1       4.051   2.756   1.521  0.00  0.00    +0.039 C 
ENDROOT
BRANCH   7  11
ATOM     11  C   UNL     1       0.740   0.153  -2.572  0.00  0.00    -0.013 C 
ATOM     16  C   UNL     1      -0.691  -0.282  -2.273  0.00  0.00    +0.007 C 
ATOM     17  C   UNL     1       0.756   1.320  -3.554  0.00  0.00    +0.007 C 
ENDBRANCH   7  11
BRANCH   8  14
ATOM     14  C   UNL     1       3.427  -1.078  -1.395  0.00  0.00    +0.113 C 
BRANCH  14   4
ATOM      3  O   UNL     1       1.708  -3.332  -0.853  0.00  0.00    -0.253 OA
ATOM      4  N   UNL     1       3.156  -1.667  -0.122  0.00  0.00    -0.299 N 
ATOM      6  N   UNL     1       2.222  -3.135   1.401  0.00  0.00    -0.300 N 
ATOM     20  C   UNL     1       2.306  -2.765   0.061  0.00  0.00    +0.300 C 
ATOM     30  H   UNL     1       3.655  -1.317   0.690  0.00  0.00    +0.150 HD
ATOM     32  H   UNL     1       2.741  -2.599   2.089  0.00  0.00    +0.150 HD
BRANCH   6  23
ATOM     23  C   UNL     1       1.411  -4.239   1.859  0.00  0.00    +0.102 C 
ATOM     26  C   UNL     1      -0.047  -3.845   1.975  0.00  0.00    +0.024 C 
ENDBRANCH   6  23
ENDBRANCH  14   4
ENDBRANCH   8  14
BRANCH  10  15
ATOM     15  C   UNL     1       0.994   1.780   1.651  0.00  0.00    +0.103 C 
BRANCH  15  19
ATOM      2  O   UNL     1      -0.948   3.129   1.139  0.00  0.00    -0.276 OA
ATOM      5  N   UNL     1      -1.225   1.084   2.208  0.00  0.00    -0.311 N 
ATOM     19  C   UNL     1      -0.484   2.100   1.622  0.00  0.00    +0.214 C 
ATOM     31  H   UNL     1      -0.750   0.263   2.573  0.00  0.00    +0.149 HD
BRANCH   5  21
ATOM     21  C   UNL     1      -2.665   1.122   2.321  0.00  0.00    +0.139 C 
BRANCH  21  22
ATOM      1  F   UNL     1      -5.191  -1.186  -2.151  0.00  0.00    -0.205 F 
ATOM     22  C   UNL     1      -3.338   0.506   1.128  0.00  0.00    -0.030 A 
ATOM     24  C   UNL     1      -3.666   1.298   0.027  0.00  0.00    +0.008 A 
ATOM     25  C   UNL     1      -3.637  -0.856   1.121  0.00  0.00    +0.008 A 
ATOM     27  C   UNL     1      -4.292   0.726  -1.081  0.00  0.00    +0.038 A 
ATOM     28  C   UNL     1      -4.263  -1.428   0.014  0.00  0.00    +0.038 A 
ATOM     29  C   UNL     1      -4.590  -0.636  -1.087  0.00  0.00    +0.123 A 
ENDBRANCH  21  22
ENDBRANCH   5  21
ENDBRANCH  15  19
ENDBRANCH  10  15
TORSDOF 8
