MODEL 1
REMARK VINA RESULT:      -6.7      0.000      0.000
REMARK  Name = 7156591
REMARK  7 active torsions:
REMARK  status: ('A' for Active; 'I' for Inactive)
REMARK    1  A    between atoms: O_3  and  C_22
REMARK    2  A    between atoms: N_8  and  C_24
REMARK    3  A    between atoms: C_9  and  C_12
REMARK    4  A    between atoms: C_9  and  C_17
REMARK    5  A    between atoms: C_12  and  C_20
REMARK    6  A    between atoms: C_17  and  C_22
REMARK    7  A    between atoms: C_29  and  C_30
REMARK                            x       y       z     vdW  Elec       q    Type
REMARK                         _______ _______ _______ _____ _____    ______ ____
ROOT
ATOM      1  O   UNL     1      -7.060  -9.933  15.192  0.00  0.00    -0.276 OA
ATOM      2  O   UNL     1      -5.912 -11.127  12.571  0.00  0.00    -0.273 OA
ATOM      5  O   UNL     1      -1.528  -9.947  11.346  0.00  0.00    -0.252 OA
ATOM      6  N   UNL     1      -5.139 -11.221  15.167  0.00  0.00    -0.288 N 
ATOM      7  N   UNL     1      -2.039 -10.402  13.498  0.00  0.00    -0.293 N 
ATOM      8  N   UNL     1      -3.749 -10.537  11.858  0.00  0.00    -0.193 N 
ATOM     15  C   UNL     1      -4.374 -10.372  14.252  0.00  0.00    +0.183 C 
ATOM     16  C   UNL     1      -2.941 -10.755  14.554  0.00  0.00    +0.105 C 
ATOM     18  C   UNL     1      -3.033 -12.253  14.839  0.00  0.00    +0.043 C 
ATOM     19  C   UNL     1      -4.333 -12.353  15.627  0.00  0.00    +0.110 C 
ATOM     20  C   UNL     1      -6.413 -10.897  15.604  0.00  0.00    +0.217 C 
ATOM     21  C   UNL     1      -4.773 -10.726  12.822  0.00  0.00    +0.250 C 
ATOM     23  C   UNL     1      -2.385 -10.291  12.166  0.00  0.00    +0.313 C 
ATOM     31  H   UNL     1      -1.068 -10.237  13.744  0.00  0.00    +0.151 HD
ENDROOT
BRANCH   8  24
ATOM     24  C   UNL     1      -4.120 -10.620  10.459  0.00  0.00    +0.045 A 
ATOM     25  C   UNL     1      -4.100 -11.851   9.817  0.00  0.00    +0.024 A 
ATOM     26  C   UNL     1      -4.491  -9.467   9.781  0.00  0.00    +0.024 A 
ATOM     27  C   UNL     1      -4.457 -11.931   8.471  0.00  0.00    +0.005 A 
ATOM     28  C   UNL     1      -4.848  -9.546   8.434  0.00  0.00    +0.005 A 
ATOM     29  C   UNL     1      -4.832 -10.779   7.780  0.00  0.00    -0.050 A 
ATOM     30  C   UNL     1      -5.214 -10.863   6.340  0.00  0.00    +0.044 C 
ENDBRANCH   8  24
BRANCH  20  12
ATOM     12  C   UNL     1      -6.997 -11.820  16.644  0.00  0.00    +0.103 C 
BRANCH  12   9
ATOM      9  C   UNL     1      -7.003 -11.128  18.014  0.00  0.00    -0.011 C 
ATOM     10  C   UNL     1      -6.984 -12.180  19.148  0.00  0.00    +0.008 C 
ATOM     11  C   UNL     1      -5.716 -10.296  18.211  0.00  0.00    +0.008 C 
ATOM     13  C   UNL     1      -5.849 -11.766  20.076  0.00  0.00    +0.001 C 
ATOM     14  C   UNL     1      -4.841 -11.130  19.136  0.00  0.00    +0.001 C 
BRANCH   9  17
ATOM     17  C   UNL     1      -8.243 -10.231  18.117  0.00  0.00    +0.127 C 
BRANCH  17  22
ATOM      4  O   UNL     1     -10.060 -11.783  18.596  0.00  0.00    -0.251 OA
ATOM     22  C   UNL     1      -9.317 -10.877  18.941  0.00  0.00    +0.305 C 
BRANCH  22   3
ATOM      3  O   UNL     1      -9.354 -10.297  20.169  0.00  0.00    -0.481 OA
ATOM     32  H   UNL     1      -8.944 -10.866  20.855  0.00  0.00    +0.295 HD
ENDBRANCH  22   3
ENDBRANCH  17  22
ENDBRANCH   9  17
ENDBRANCH  12   9
ENDBRANCH  20  12
TORSDOF 6
ENDMDL
MODEL 2
REMARK VINA RESULT:      -6.6      2.669      7.754
REMARK  Name = 7156591
REMARK  7 active torsions:
REMARK  status: ('A' for Active; 'I' for Inactive)
REMARK    1  A    between atoms: O_3  and  C_22
REMARK    2  A    between atoms: N_8  and  C_24
REMARK    3  A    between atoms: C_9  and  C_12
REMARK    4  A    between atoms: C_9  and  C_17
REMARK    5  A    between atoms: C_12  and  C_20
REMARK    6  A    between atoms: C_17  and  C_22
REMARK    7  A    between atoms: C_29  and  C_30
REMARK                            x       y       z     vdW  Elec       q    Type
REMARK                         _______ _______ _______ _____ _____    ______ ____
ROOT
ATOM      1  O   UNL     1      -5.997 -13.091  14.777  0.00  0.00    -0.276 OA
ATOM      2  O   UNL     1      -7.519 -10.602  15.826  0.00  0.00    -0.273 OA
ATOM      5  O   UNL     1      -9.479 -10.853  20.093  0.00  0.00    -0.252 OA
ATOM      6  N   UNL     1      -5.399 -12.021  16.739  0.00  0.00    -0.288 N 
ATOM      7  N   UNL     1      -7.430 -11.724  19.714  0.00  0.00    -0.293 N 
ATOM      8  N   UNL     1      -8.580 -10.670  17.925  0.00  0.00    -0.193 N 
ATOM     15  C   UNL     1      -6.683 -12.186  17.423  0.00  0.00    +0.183 C 
ATOM     16  C   UNL     1      -6.307 -12.045  18.883  0.00  0.00    +0.105 C 
ATOM     18  C   UNL     1      -5.207 -10.985  18.860  0.00  0.00    +0.043 C 
ATOM     19  C   UNL     1      -4.423 -11.360  17.607  0.00  0.00    +0.110 C 
ATOM     20  C   UNL     1      -5.148 -12.540  15.479  0.00  0.00    +0.217 C 
ATOM     21  C   UNL     1      -7.619 -11.073  16.961  0.00  0.00    +0.250 C 
ATOM     23  C   UNL     1      -8.557 -11.046  19.294  0.00  0.00    +0.313 C 
ATOM     31  H   UNL     1      -7.387 -11.998  20.690  0.00  0.00    +0.151 HD
ENDROOT
BRANCH   8  24
ATOM     24  C   UNL     1      -9.648  -9.796  17.483  0.00  0.00    +0.045 A 
ATOM     25  C   UNL     1      -9.453  -8.422  17.482  0.00  0.00    +0.024 A 
ATOM     26  C   UNL     1     -10.853 -10.346  17.067  0.00  0.00    +0.024 A 
ATOM     27  C   UNL     1     -10.481  -7.581  17.056  0.00  0.00    +0.005 A 
ATOM     28  C   UNL     1     -11.883  -9.505  16.641  0.00  0.00    +0.005 A 
ATOM     29  C   UNL     1     -11.696  -8.123  16.636  0.00  0.00    -0.050 A 
ATOM     30  C   UNL     1     -12.796  -7.224  16.180  0.00  0.00    +0.044 C 
ENDBRANCH   8  24
BRANCH  20  12
ATOM     12  C   UNL     1      -3.731 -12.387  14.984  0.00  0.00    +0.103 C 
BRANCH  12   9
ATOM      9  C   UNL     1      -3.689 -11.389  13.818  0.00  0.00    -0.011 C 
ATOM     10  C   UNL     1      -2.275 -10.778  13.684  0.00  0.00    +0.008 C 
ATOM     11  C   UNL     1      -3.951 -12.108  12.476  0.00  0.00    +0.008 C 
ATOM     13  C   UNL     1      -1.890 -10.950  12.219  0.00  0.00    +0.001 C 
ATOM     14  C   UNL     1      -2.583 -12.241  11.822  0.00  0.00    +0.001 C 
BRANCH   9  17
ATOM     17  C   UNL     1      -4.739 -10.297  14.056  0.00  0.00    +0.127 C 
BRANCH  17  22
ATOM      4  O   UNL     1      -5.215  -9.393  11.843  0.00  0.00    -0.251 OA
ATOM     22  C   UNL     1      -5.552 -10.043  12.821  0.00  0.00    +0.305 C 
BRANCH  22   3
ATOM      3  O   UNL     1      -6.758 -10.656  12.941  0.00  0.00    -0.481 OA
ATOM     32  H   UNL     1      -7.142 -10.882  12.067  0.00  0.00    +0.295 HD
ENDBRANCH  22   3
ENDBRANCH  17  22
ENDBRANCH   9  17
ENDBRANCH  12   9
ENDBRANCH  20  12
TORSDOF 6
ENDMDL
MODEL 3
REMARK VINA RESULT:      -6.5      2.080      2.836
REMARK  Name = 7156591
REMARK  7 active torsions:
REMARK  status: ('A' for Active; 'I' for Inactive)
REMARK    1  A    between atoms: O_3  and  C_22
REMARK    2  A    between atoms: N_8  and  C_24
REMARK    3  A    between atoms: C_9  and  C_12
REMARK    4  A    between atoms: C_9  and  C_17
REMARK    5  A    between atoms: C_12  and  C_20
REMARK    6  A    between atoms: C_17  and  C_22
REMARK    7  A    between atoms: C_29  and  C_30
REMARK                            x       y       z     vdW  Elec       q    Type
REMARK                         _______ _______ _______ _____ _____    ______ ____
ROOT
ATOM      1  O   UNL     1      -3.468 -10.634  16.055  0.00  0.00    -0.276 OA
ATOM      2  O   UNL     1      -5.302 -10.543  13.557  0.00  0.00    -0.273 OA
ATOM      5  O   UNL     1      -3.636 -12.313   9.531  0.00  0.00    -0.252 OA
ATOM      6  N   UNL     1      -4.091 -12.550  14.917  0.00  0.00    -0.288 N 
ATOM      7  N   UNL     1      -3.262 -13.366  11.495  0.00  0.00    -0.293 N 
ATOM      8  N   UNL     1      -4.519 -11.353  11.491  0.00  0.00    -0.193 N 
ATOM     15  C   UNL     1      -3.536 -12.166  13.618  0.00  0.00    +0.183 C 
ATOM     16  C   UNL     1      -3.364 -13.498  12.918  0.00  0.00    +0.105 C 
ATOM     18  C   UNL     1      -4.571 -14.303  13.399  0.00  0.00    +0.043 C 
ATOM     19  C   UNL     1      -4.670 -13.893  14.864  0.00  0.00    +0.110 C 
ATOM     20  C   UNL     1      -3.962 -11.763  16.050  0.00  0.00    +0.217 C 
ATOM     21  C   UNL     1      -4.549 -11.272  12.908  0.00  0.00    +0.250 C 
ATOM     23  C   UNL     1      -3.816 -12.342  10.753  0.00  0.00    +0.313 C 
ATOM     31  H   UNL     1      -2.761 -14.089  10.990  0.00  0.00    +0.151 HD
ENDROOT
BRANCH   8  24
ATOM     24  C   UNL     1      -5.275 -10.366  10.747  0.00  0.00    +0.045 A 
ATOM     25  C   UNL     1      -4.693  -9.142  10.444  0.00  0.00    +0.024 A 
ATOM     26  C   UNL     1      -6.571 -10.658  10.345  0.00  0.00    +0.024 A 
ATOM     27  C   UNL     1      -5.420  -8.192   9.727  0.00  0.00    +0.005 A 
ATOM     28  C   UNL     1      -7.300  -9.708   9.628  0.00  0.00    +0.005 A 
ATOM     29  C   UNL     1      -6.724  -8.476   9.319  0.00  0.00    -0.050 A 
ATOM     30  C   UNL     1      -7.503  -7.461   8.551  0.00  0.00    +0.044 C 
ENDBRANCH   8  24
BRANCH  20  12
ATOM     12  C   UNL     1      -4.481 -12.374  17.327  0.00  0.00    +0.103 C 
BRANCH  12   9
ATOM      9  C   UNL     1      -5.796 -11.694  17.736  0.00  0.00    -0.011 C 
ATOM     10  C   UNL     1      -6.728 -12.706  18.441  0.00  0.00    +0.008 C 
ATOM     11  C   UNL     1      -5.535 -10.586  18.781  0.00  0.00    +0.008 C 
ATOM     13  C   UNL     1      -7.158 -12.034  19.740  0.00  0.00    +0.001 C 
ATOM     14  C   UNL     1      -5.954 -11.189  20.114  0.00  0.00    +0.001 C 
BRANCH   9  17
ATOM     17  C   UNL     1      -6.466 -11.107  16.487  0.00  0.00    +0.127 C 
BRANCH  17  22
ATOM      4  O   UNL     1      -7.745  -9.185  17.268  0.00  0.00    -0.251 OA
ATOM     22  C   UNL     1      -6.787  -9.654  16.672  0.00  0.00    +0.305 C 
BRANCH  22   3
ATOM      3  O   UNL     1      -5.835  -8.901  16.063  0.00  0.00    -0.481 OA
ATOM     32  H   UNL     1      -5.744  -9.125  15.112  0.00  0.00    +0.295 HD
ENDBRANCH  22   3
ENDBRANCH  17  22
ENDBRANCH   9  17
ENDBRANCH  12   9
ENDBRANCH  20  12
TORSDOF 6
ENDMDL
MODEL 4
REMARK VINA RESULT:      -6.4      3.186      9.078
REMARK  Name = 7156591
REMARK  7 active torsions:
REMARK  status: ('A' for Active; 'I' for Inactive)
REMARK    1  A    between atoms: O_3  and  C_22
REMARK    2  A    between atoms: N_8  and  C_24
REMARK    3  A    between atoms: C_9  and  C_12
REMARK    4  A    between atoms: C_9  and  C_17
REMARK    5  A    between atoms: C_12  and  C_20
REMARK    6  A    between atoms: C_17  and  C_22
REMARK    7  A    between atoms: C_29  and  C_30
REMARK                            x       y       z     vdW  Elec       q    Type
REMARK                         _______ _______ _______ _____ _____    ______ ____
ROOT
ATOM      1  O   UNL     1      -7.381 -11.015  15.294  0.00  0.00    -0.276 OA
ATOM      2  O   UNL     1      -9.246 -10.182  17.626  0.00  0.00    -0.273 OA
ATOM      5  O   UNL     1     -10.290 -13.415  20.878  0.00  0.00    -0.252 OA
ATOM      6  N   UNL     1      -6.718 -11.149  17.506  0.00  0.00    -0.288 N 
ATOM      7  N   UNL     1      -8.193 -13.243  20.055  0.00  0.00    -0.293 N 
ATOM      8  N   UNL     1      -9.865 -11.759  19.259  0.00  0.00    -0.193 N 
ATOM     15  C   UNL     1      -7.779 -12.054  17.949  0.00  0.00    +0.183 C 
ATOM     16  C   UNL     1      -7.194 -12.673  19.201  0.00  0.00    +0.105 C 
ATOM     18  C   UNL     1      -6.405 -11.522  19.823  0.00  0.00    +0.043 C 
ATOM     19  C   UNL     1      -5.791 -10.852  18.600  0.00  0.00    +0.110 C 
ATOM     20  C   UNL     1      -6.578 -10.745  16.188  0.00  0.00    +0.217 C 
ATOM     21  C   UNL     1      -9.024 -11.223  18.249  0.00  0.00    +0.250 C 
ATOM     23  C   UNL     1      -9.507 -12.826  20.126  0.00  0.00    +0.313 C 
ATOM     31  H   UNL     1      -7.910 -14.001  20.670  0.00  0.00    +0.151 HD
ENDROOT
BRANCH   8  24
ATOM     24  C   UNL     1     -11.174 -11.162  19.430  0.00  0.00    +0.045 A 
ATOM     25  C   UNL     1     -11.361 -10.188  20.401  0.00  0.00    +0.024 A 
ATOM     26  C   UNL     1     -12.224 -11.572  18.620  0.00  0.00    +0.024 A 
ATOM     27  C   UNL     1     -12.621  -9.612  20.566  0.00  0.00    +0.005 A 
ATOM     28  C   UNL     1     -13.485 -10.996  18.784  0.00  0.00    +0.005 A 
ATOM     29  C   UNL     1     -13.683 -10.016  19.757  0.00  0.00    -0.050 A 
ATOM     30  C   UNL     1     -15.031  -9.402  19.931  0.00  0.00    +0.044 C 
ENDBRANCH   8  24
BRANCH  20  12
ATOM     12  C   UNL     1      -5.354  -9.917  15.889  0.00  0.00    +0.103 C 
BRANCH  12   9
ATOM      9  C   UNL     1      -4.226 -10.820  15.369  0.00  0.00    -0.011 C 
ATOM     10  C   UNL     1      -4.651 -12.306  15.439  0.00  0.00    +0.008 C 
ATOM     11  C   UNL     1      -3.954 -10.546  13.872  0.00  0.00    +0.008 C 
ATOM     13  C   UNL     1      -4.372 -12.880  14.056  0.00  0.00    +0.001 C 
ATOM     14  C   UNL     1      -4.612 -11.701  13.130  0.00  0.00    +0.001 C 
BRANCH   9  17
ATOM     17  C   UNL     1      -2.961 -10.570  16.199  0.00  0.00    +0.127 C 
BRANCH  17  22
ATOM      4  O   UNL     1      -1.214 -11.702  14.931  0.00  0.00    -0.251 OA
ATOM     22  C   UNL     1      -1.725 -10.677  15.356  0.00  0.00    +0.305 C 
BRANCH  22   3
ATOM      3  O   UNL     1      -1.231  -9.434  15.119  0.00  0.00    -0.481 OA
ATOM     32  H   UNL     1      -1.851  -8.732  15.414  0.00  0.00    +0.295 HD
ENDBRANCH  22   3
ENDBRANCH  17  22
ENDBRANCH   9  17
ENDBRANCH  12   9
ENDBRANCH  20  12
TORSDOF 6
ENDMDL
MODEL 5
REMARK VINA RESULT:      -6.3     25.612     28.742
REMARK  Name = 7156591
REMARK  7 active torsions:
REMARK  status: ('A' for Active; 'I' for Inactive)
REMARK    1  A    between atoms: O_3  and  C_22
REMARK    2  A    between atoms: N_8  and  C_24
REMARK    3  A    between atoms: C_9  and  C_12
REMARK    4  A    between atoms: C_9  and  C_17
REMARK    5  A    between atoms: C_12  and  C_20
REMARK    6  A    between atoms: C_17  and  C_22
REMARK    7  A    between atoms: C_29  and  C_30
REMARK                            x       y       z     vdW  Elec       q    Type
REMARK                         _______ _______ _______ _____ _____    ______ ____
ROOT
ATOM      1  O   UNL     1      12.490   6.535   5.369  0.00  0.00    -0.276 OA
ATOM      2  O   UNL     1      15.326   7.499   6.169  0.00  0.00    -0.273 OA
ATOM      5  O   UNL     1      16.975  11.414   4.152  0.00  0.00    -0.252 OA
ATOM      6  N   UNL     1      12.863   8.624   6.290  0.00  0.00    -0.288 N 
ATOM      7  N   UNL     1      14.824  11.284   4.827  0.00  0.00    -0.293 N 
ATOM      8  N   UNL     1      16.246   9.414   5.159  0.00  0.00    -0.193 N 
ATOM     15  C   UNL     1      13.788   9.103   5.261  0.00  0.00    +0.183 C 
ATOM     16  C   UNL     1      13.699  10.608   5.402  0.00  0.00    +0.105 C 
ATOM     18  C   UNL     1      13.536  10.808   6.908  0.00  0.00    +0.043 C 
ATOM     19  C   UNL     1      12.605   9.663   7.288  0.00  0.00    +0.110 C 
ATOM     20  C   UNL     1      12.246   7.385   6.226  0.00  0.00    +0.217 C 
ATOM     21  C   UNL     1      15.184   8.578   5.589  0.00  0.00    +0.250 C 
ATOM     23  C   UNL     1      16.089  10.747   4.695  0.00  0.00    +0.313 C 
ATOM     31  H   UNL     1      14.687  12.238   4.508  0.00  0.00    +0.151 HD
ENDROOT
BRANCH   8  24
ATOM     24  C   UNL     1      17.591   8.875   5.217  0.00  0.00    +0.045 A 
ATOM     25  C   UNL     1      18.110   8.213   4.114  0.00  0.00    +0.024 A 
ATOM     26  C   UNL     1      18.340   9.029   6.376  0.00  0.00    +0.024 A 
ATOM     27  C   UNL     1      19.404   7.694   4.168  0.00  0.00    +0.005 A 
ATOM     28  C   UNL     1      19.634   8.510   6.432  0.00  0.00    +0.005 A 
ATOM     29  C   UNL     1      20.166   7.843   5.328  0.00  0.00    -0.050 A 
ATOM     30  C   UNL     1      21.550   7.289   5.388  0.00  0.00    +0.044 C 
ENDBRANCH   8  24
BRANCH  20  12
ATOM     12  C   UNL     1      11.226   7.112   7.303  0.00  0.00    +0.103 C 
BRANCH  12   9
ATOM      9  C   UNL     1       9.841   6.907   6.673  0.00  0.00    -0.011 C 
ATOM     10  C   UNL     1       8.798   7.818   7.361  0.00  0.00    +0.008 C 
ATOM     11  C   UNL     1       9.846   7.344   5.191  0.00  0.00    +0.008 C 
ATOM     13  C   UNL     1       8.082   8.551   6.233  0.00  0.00    +0.001 C 
ATOM     14  C   UNL     1       9.158   8.702   5.173  0.00  0.00    +0.001 C 
BRANCH   9  17
ATOM     17  C   UNL     1       9.448   5.430   6.796  0.00  0.00    +0.127 C 
BRANCH  17  22
ATOM      4  O   UNL     1       9.166   5.321   9.215  0.00  0.00    -0.251 OA
ATOM     22  C   UNL     1       9.684   4.916   8.186  0.00  0.00    +0.305 C 
BRANCH  22   3
ATOM      3  O   UNL     1      10.584   3.900   8.143  0.00  0.00    -0.481 OA
ATOM     32  H   UNL     1      10.496   3.300   8.915  0.00  0.00    +0.295 HD
ENDBRANCH  22   3
ENDBRANCH  17  22
ENDBRANCH   9  17
ENDBRANCH  12   9
ENDBRANCH  20  12
TORSDOF 6
ENDMDL
MODEL 6
REMARK VINA RESULT:      -6.3      3.061      7.980
REMARK  Name = 7156591
REMARK  7 active torsions:
REMARK  status: ('A' for Active; 'I' for Inactive)
REMARK    1  A    between atoms: O_3  and  C_22
REMARK    2  A    between atoms: N_8  and  C_24
REMARK    3  A    between atoms: C_9  and  C_12
REMARK    4  A    between atoms: C_9  and  C_17
REMARK    5  A    between atoms: C_12  and  C_20
REMARK    6  A    between atoms: C_17  and  C_22
REMARK    7  A    between atoms: C_29  and  C_30
REMARK                            x       y       z     vdW  Elec       q    Type
REMARK                         _______ _______ _______ _____ _____    ______ ____
ROOT
ATOM      1  O   UNL     1      -6.617 -12.814  15.270  0.00  0.00    -0.276 OA
ATOM      2  O   UNL     1      -8.060 -10.188  16.066  0.00  0.00    -0.273 OA
ATOM      5  O   UNL     1     -10.874 -10.271  19.832  0.00  0.00    -0.252 OA
ATOM      6  N   UNL     1      -6.330 -11.834  17.346  0.00  0.00    -0.288 N 
ATOM      7  N   UNL     1      -8.890 -11.352  19.852  0.00  0.00    -0.293 N 
ATOM      8  N   UNL     1      -9.532 -10.163  17.900  0.00  0.00    -0.193 N 
ATOM     15  C   UNL     1      -7.737 -11.869  17.748  0.00  0.00    +0.183 C 
ATOM     16  C   UNL     1      -7.659 -11.783  19.258  0.00  0.00    +0.105 C 
ATOM     18  C   UNL     1      -6.476 -10.847  19.494  0.00  0.00    +0.043 C 
ATOM     19  C   UNL     1      -5.493 -11.291  18.417  0.00  0.00    +0.110 C 
ATOM     20  C   UNL     1      -5.879 -12.365  16.148  0.00  0.00    +0.217 C 
ATOM     21  C   UNL     1      -8.440 -10.656  17.141  0.00  0.00    +0.250 C 
ATOM     23  C   UNL     1      -9.832 -10.554  19.232  0.00  0.00    +0.313 C 
ATOM     31  H   UNL     1      -9.078 -11.640  20.807  0.00  0.00    +0.151 HD
ENDROOT
BRANCH   8  24
ATOM     24  C   UNL     1     -10.391  -9.176  17.278  0.00  0.00    +0.045 A 
ATOM     25  C   UNL     1     -10.062  -7.830  17.366  0.00  0.00    +0.024 A 
ATOM     26  C   UNL     1     -11.531  -9.590  16.603  0.00  0.00    +0.024 A 
ATOM     27  C   UNL     1     -10.889  -6.879  16.766  0.00  0.00    +0.005 A 
ATOM     28  C   UNL     1     -12.358  -8.639  16.003  0.00  0.00    +0.005 A 
ATOM     29  C   UNL     1     -12.037  -7.284  16.085  0.00  0.00    -0.050 A 
ATOM     30  C   UNL     1     -12.921  -6.269  15.443  0.00  0.00    +0.044 C 
ENDBRANCH   8  24
BRANCH  20  12
ATOM     12  C   UNL     1      -4.383 -12.358  15.958  0.00  0.00    +0.103 C 
BRANCH  12   9
ATOM      9  C   UNL     1      -3.960 -11.107  15.175  0.00  0.00    -0.011 C 
ATOM     10  C   UNL     1      -3.266 -11.511  13.853  0.00  0.00    +0.008 C 
ATOM     11  C   UNL     1      -5.198 -10.286  14.749  0.00  0.00    +0.008 C 
ATOM     13  C   UNL     1      -3.970 -10.717  12.759  0.00  0.00    +0.001 C 
ATOM     14  C   UNL     1      -5.393 -10.597  13.272  0.00  0.00    +0.001 C 
BRANCH   9  17
ATOM     17  C   UNL     1      -3.028 -10.260  16.049  0.00  0.00    +0.127 C 
BRANCH  17  22
ATOM      4  O   UNL     1      -1.127  -9.530  14.709  0.00  0.00    -0.251 OA
ATOM     22  C   UNL     1      -1.620 -10.287  15.532  0.00  0.00    +0.305 C 
BRANCH  22   3
ATOM      3  O   UNL     1      -0.941 -11.302  16.126  0.00  0.00    -0.481 OA
ATOM     32  H   UNL     1      -0.900 -11.195  17.100  0.00  0.00    +0.295 HD
ENDBRANCH  22   3
ENDBRANCH  17  22
ENDBRANCH   9  17
ENDBRANCH  12   9
ENDBRANCH  20  12
TORSDOF 6
ENDMDL
MODEL 7
REMARK VINA RESULT:      -6.2      4.258      6.999
REMARK  Name = 7156591
REMARK  7 active torsions:
REMARK  status: ('A' for Active; 'I' for Inactive)
REMARK    1  A    between atoms: O_3  and  C_22
REMARK    2  A    between atoms: N_8  and  C_24
REMARK    3  A    between atoms: C_9  and  C_12
REMARK    4  A    between atoms: C_9  and  C_17
REMARK    5  A    between atoms: C_12  and  C_20
REMARK    6  A    between atoms: C_17  and  C_22
REMARK    7  A    between atoms: C_29  and  C_30
REMARK                            x       y       z     vdW  Elec       q    Type
REMARK                         _______ _______ _______ _____ _____    ______ ____
ROOT
ATOM      1  O   UNL     1      -3.132  -8.933  10.376  0.00  0.00    -0.276 OA
ATOM      2  O   UNL     1      -6.193  -8.665   9.961  0.00  0.00    -0.273 OA
ATOM      5  O   UNL     1      -7.832  -8.709   5.553  0.00  0.00    -0.252 OA
ATOM      6  N   UNL     1      -4.369 -10.551   9.279  0.00  0.00    -0.288 N 
ATOM      7  N   UNL     1      -6.183 -10.119   6.183  0.00  0.00    -0.293 N 
ATOM      8  N   UNL     1      -7.085  -8.617   7.784  0.00  0.00    -0.193 N 
ATOM     15  C   UNL     1      -4.888  -9.683   8.222  0.00  0.00    +0.183 C 
ATOM     16  C   UNL     1      -5.255 -10.665   7.129  0.00  0.00    +0.105 C 
ATOM     18  C   UNL     1      -5.772 -11.874   7.905  0.00  0.00    +0.043 C 
ATOM     19  C   UNL     1      -4.814 -11.933   9.089  0.00  0.00    +0.110 C 
ATOM     20  C   UNL     1      -3.483 -10.107  10.247  0.00  0.00    +0.217 C 
ATOM     21  C   UNL     1      -6.111  -8.945   8.763  0.00  0.00    +0.250 C 
ATOM     23  C   UNL     1      -7.101  -9.125   6.458  0.00  0.00    +0.313 C 
ATOM     31  H   UNL     1      -6.179 -10.504   5.244  0.00  0.00    +0.151 HD
ENDROOT
BRANCH   8  24
ATOM     24  C   UNL     1      -8.149  -7.713   8.173  0.00  0.00    +0.045 A 
ATOM     25  C   UNL     1      -9.334  -8.229   8.681  0.00  0.00    +0.024 A 
ATOM     26  C   UNL     1      -7.969  -6.344   8.033  0.00  0.00    +0.024 A 
ATOM     27  C   UNL     1     -10.358  -7.360   9.057  0.00  0.00    +0.005 A 
ATOM     28  C   UNL     1      -8.994  -5.474   8.408  0.00  0.00    +0.005 A 
ATOM     29  C   UNL     1     -10.188  -5.982   8.920  0.00  0.00    -0.050 A 
ATOM     30  C   UNL     1     -11.283  -5.051   9.320  0.00  0.00    +0.044 C 
ENDBRANCH   8  24
BRANCH  20  12
ATOM     12  C   UNL     1      -2.953 -11.168  11.179  0.00  0.00    +0.103 C 
BRANCH  12   9
ATOM      9  C   UNL     1      -3.643 -11.058  12.545  0.00  0.00    -0.011 C 
ATOM     10  C   UNL     1      -4.798 -10.031  12.483  0.00  0.00    +0.008 C 
ATOM     11  C   UNL     1      -4.311 -12.398  12.929  0.00  0.00    +0.008 C 
ATOM     13  C   UNL     1      -6.014 -10.744  13.062  0.00  0.00    +0.001 C 
ATOM     14  C   UNL     1      -5.796 -12.192  12.665  0.00  0.00    +0.001 C 
BRANCH   9  17
ATOM     17  C   UNL     1      -2.605 -10.655  13.599  0.00  0.00    +0.127 C 
BRANCH  17  22
ATOM      4  O   UNL     1      -1.290 -12.703  13.724  0.00  0.00    -0.251 OA
ATOM     22  C   UNL     1      -1.995 -11.859  14.255  0.00  0.00    +0.305 C 
BRANCH  22   3
ATOM      3  O   UNL     1      -2.346 -11.884  15.566  0.00  0.00    -0.481 OA
ATOM     32  H   UNL     1      -1.613 -11.589  16.147  0.00  0.00    +0.295 HD
ENDBRANCH  22   3
ENDBRANCH  17  22
ENDBRANCH   9  17
ENDBRANCH  12   9
ENDBRANCH  20  12
TORSDOF 6
ENDMDL
MODEL 8
REMARK VINA RESULT:      -6.2     22.941     25.904
REMARK  Name = 7156591
REMARK  7 active torsions:
REMARK  status: ('A' for Active; 'I' for Inactive)
REMARK    1  A    between atoms: O_3  and  C_22
REMARK    2  A    between atoms: N_8  and  C_24
REMARK    3  A    between atoms: C_9  and  C_12
REMARK    4  A    between atoms: C_9  and  C_17
REMARK    5  A    between atoms: C_12  and  C_20
REMARK    6  A    between atoms: C_17  and  C_22
REMARK    7  A    between atoms: C_29  and  C_30
REMARK                            x       y       z     vdW  Elec       q    Type
REMARK                         _______ _______ _______ _____ _____    ______ ____
ROOT
ATOM      1  O   UNL     1       7.738   5.853   5.413  0.00  0.00    -0.276 OA
ATOM      2  O   UNL     1      10.106   5.941   3.413  0.00  0.00    -0.273 OA
ATOM      5  O   UNL     1       9.639   8.589  -0.444  0.00  0.00    -0.252 OA
ATOM      6  N   UNL     1       8.796   7.831   4.845  0.00  0.00    -0.288 N 
ATOM      7  N   UNL     1       8.901   9.330   1.558  0.00  0.00    -0.293 N 
ATOM      8  N   UNL     1       9.926   7.193   1.430  0.00  0.00    -0.193 N 
ATOM     15  C   UNL     1       8.538   7.757   3.406  0.00  0.00    +0.183 C 
ATOM     16  C   UNL     1       8.667   9.200   2.966  0.00  0.00    +0.105 C 
ATOM     18  C   UNL     1       9.791   9.736   3.851  0.00  0.00    +0.043 C 
ATOM     19  C   UNL     1       9.493   9.071   5.190  0.00  0.00    +0.110 C 
ATOM     20  C   UNL     1       8.322   6.887   5.742  0.00  0.00    +0.217 C 
ATOM     21  C   UNL     1       9.604   6.867   2.773  0.00  0.00    +0.250 C 
ATOM     23  C   UNL     1       9.520   8.382   0.767  0.00  0.00    +0.313 C 
ATOM     31  H   UNL     1       8.607  10.192   1.109  0.00  0.00    +0.151 HD
ENDROOT
BRANCH   8  24
ATOM     24  C   UNL     1      10.745   6.254   0.689  0.00  0.00    +0.045 A 
ATOM     25  C   UNL     1      10.141   5.193   0.028  0.00  0.00    +0.024 A 
ATOM     26  C   UNL     1      12.121   6.430   0.649  0.00  0.00    +0.024 A 
ATOM     27  C   UNL     1      10.928   4.290  -0.686  0.00  0.00    +0.005 A 
ATOM     28  C   UNL     1      12.910   5.526  -0.065  0.00  0.00    +0.005 A 
ATOM     29  C   UNL     1      12.312   4.457  -0.733  0.00  0.00    -0.050 A 
ATOM     30  C   UNL     1      13.155   3.491  -1.496  0.00  0.00    +0.044 C 
ENDBRANCH   8  24
BRANCH  20  12
ATOM     12  C   UNL     1       8.572   7.192   7.197  0.00  0.00    +0.103 C 
BRANCH  12   9
ATOM      9  C   UNL     1       9.777   6.385   7.702  0.00  0.00    -0.011 C 
ATOM     10  C   UNL     1       9.490   5.816   9.111  0.00  0.00    +0.008 C 
ATOM     11  C   UNL     1      10.019   5.149   6.807  0.00  0.00    +0.008 C 
ATOM     13  C   UNL     1       9.818   4.330   9.029  0.00  0.00    +0.001 C 
ATOM     14  C   UNL     1       9.469   3.971   7.597  0.00  0.00    +0.001 C 
BRANCH   9  17
ATOM     17  C   UNL     1      11.015   7.290   7.715  0.00  0.00    +0.127 C 
BRANCH  17  22
ATOM      4  O   UNL     1      12.333   6.859   5.711  0.00  0.00    -0.251 OA
ATOM     22  C   UNL     1      12.131   6.700   6.905  0.00  0.00    +0.305 C 
BRANCH  22   3
ATOM      3  O   UNL     1      12.916   5.936   7.708  0.00  0.00    -0.481 OA
ATOM     32  H   UNL     1      12.547   5.035   7.831  0.00  0.00    +0.295 HD
ENDBRANCH  22   3
ENDBRANCH  17  22
ENDBRANCH   9  17
ENDBRANCH  12   9
ENDBRANCH  20  12
TORSDOF 6
ENDMDL
MODEL 9
REMARK VINA RESULT:      -6.2     28.453     31.023
REMARK  Name = 7156591
REMARK  7 active torsions:
REMARK  status: ('A' for Active; 'I' for Inactive)
REMARK    1  A    between atoms: O_3  and  C_22
REMARK    2  A    between atoms: N_8  and  C_24
REMARK    3  A    between atoms: C_9  and  C_12
REMARK    4  A    between atoms: C_9  and  C_17
REMARK    5  A    between atoms: C_12  and  C_20
REMARK    6  A    between atoms: C_17  and  C_22
REMARK    7  A    between atoms: C_29  and  C_30
REMARK                            x       y       z     vdW  Elec       q    Type
REMARK                         _______ _______ _______ _____ _____    ______ ____
ROOT
ATOM      1  O   UNL     1      18.747   9.523  21.406  0.00  0.00    -0.276 OA
ATOM      2  O   UNL     1      15.703   9.809  21.916  0.00  0.00    -0.273 OA
ATOM      5  O   UNL     1      12.771   8.829  18.372  0.00  0.00    -0.252 OA
ATOM      6  N   UNL     1      17.285   7.748  21.150  0.00  0.00    -0.288 N 
ATOM      7  N   UNL     1      14.581   7.536  18.761  0.00  0.00    -0.293 N 
ATOM      8  N   UNL     1      14.174   9.397  20.176  0.00  0.00    -0.193 N 
ATOM     15  C   UNL     1      16.432   8.373  20.138  0.00  0.00    +0.183 C 
ATOM     16  C   UNL     1      15.777   7.183  19.468  0.00  0.00    +0.105 C 
ATOM     18  C   UNL     1      15.570   6.203  20.621  0.00  0.00    +0.043 C 
ATOM     19  C   UNL     1      16.851   6.378  21.428  0.00  0.00    +0.110 C 
ATOM     20  C   UNL     1      18.414   8.365  21.664  0.00  0.00    +0.217 C 
ATOM     21  C   UNL     1      15.416   9.262  20.850  0.00  0.00    +0.250 C 
ATOM     23  C   UNL     1      13.761   8.602  19.074  0.00  0.00    +0.313 C 
ATOM     31  H   UNL     1      14.305   6.948  17.981  0.00  0.00    +0.151 HD
ENDROOT
BRANCH   8  24
ATOM     24  C   UNL     1      13.254  10.407  20.661  0.00  0.00    +0.045 A 
ATOM     25  C   UNL     1      13.377  11.715  20.216  0.00  0.00    +0.024 A 
ATOM     26  C   UNL     1      12.261  10.050  21.564  0.00  0.00    +0.024 A 
ATOM     27  C   UNL     1      12.492  12.687  20.681  0.00  0.00    +0.005 A 
ATOM     28  C   UNL     1      11.375  11.022  22.031  0.00  0.00    +0.005 A 
ATOM     29  C   UNL     1      11.490  12.340  21.589  0.00  0.00    -0.050 A 
ATOM     30  C   UNL     1      10.543  13.379  22.087  0.00  0.00    +0.044 C 
ENDBRANCH   8  24
BRANCH  20  12
ATOM     12  C   UNL     1      19.245   7.523  22.600  0.00  0.00    +0.103 C 
BRANCH  12   9
ATOM      9  C   UNL     1      20.542   7.090  21.903  0.00  0.00    -0.011 C 
ATOM     10  C   UNL     1      21.128   5.834  22.589  0.00  0.00    +0.008 C 
ATOM     11  C   UNL     1      20.261   6.662  20.445  0.00  0.00    +0.008 C 
ATOM     13  C   UNL     1      21.389   4.836  21.468  0.00  0.00    +0.001 C 
ATOM     14  C   UNL     1      20.293   5.141  20.464  0.00  0.00    +0.001 C 
BRANCH   9  17
ATOM     17  C   UNL     1      21.542   8.253  21.938  0.00  0.00    +0.127 C 
BRANCH  17  22
ATOM      4  O   UNL     1      22.705   8.000  19.811  0.00  0.00    -0.251 OA
ATOM     22  C   UNL     1      21.978   8.640  20.556  0.00  0.00    +0.305 C 
BRANCH  22   3
ATOM      3  O   UNL     1      21.435   9.842  20.233  0.00  0.00    -0.481 OA
ATOM     32  H   UNL     1      20.682   9.748  19.611  0.00  0.00    +0.295 HD
ENDBRANCH  22   3
ENDBRANCH  17  22
ENDBRANCH   9  17
ENDBRANCH  12   9
ENDBRANCH  20  12
TORSDOF 6
ENDMDL
MODEL 10
REMARK VINA RESULT:      -6.2      4.739      8.077
REMARK  Name = 7156591
REMARK  7 active torsions:
REMARK  status: ('A' for Active; 'I' for Inactive)
REMARK    1  A    between atoms: O_3  and  C_22
REMARK    2  A    between atoms: N_8  and  C_24
REMARK    3  A    between atoms: C_9  and  C_12
REMARK    4  A    between atoms: C_9  and  C_17
REMARK    5  A    between atoms: C_12  and  C_20
REMARK    6  A    between atoms: C_17  and  C_22
REMARK    7  A    between atoms: C_29  and  C_30
REMARK                            x       y       z     vdW  Elec       q    Type
REMARK                         _______ _______ _______ _____ _____    ______ ____
ROOT
ATOM      1  O   UNL     1      -4.216  -8.805   8.874  0.00  0.00    -0.276 OA
ATOM      2  O   UNL     1      -7.250  -8.300   9.263  0.00  0.00    -0.273 OA
ATOM      5  O   UNL     1      -9.862  -7.505   5.434  0.00  0.00    -0.252 OA
ATOM      6  N   UNL     1      -5.822 -10.142   7.881  0.00  0.00    -0.288 N 
ATOM      7  N   UNL     1      -8.254  -9.091   5.423  0.00  0.00    -0.293 N 
ATOM      8  N   UNL     1      -8.614  -7.834   7.403  0.00  0.00    -0.193 N 
ATOM     15  C   UNL     1      -6.487  -9.079   7.125  0.00  0.00    +0.183 C 
ATOM     16  C   UNL     1      -7.188  -9.840   6.019  0.00  0.00    +0.105 C 
ATOM     18  C   UNL     1      -7.624 -11.132   6.707  0.00  0.00    +0.043 C 
ATOM     19  C   UNL     1      -6.428 -11.444   7.598  0.00  0.00    +0.110 C 
ATOM     20  C   UNL     1      -4.697  -9.918   8.659  0.00  0.00    +0.217 C 
ATOM     21  C   UNL     1      -7.475  -8.377   8.053  0.00  0.00    +0.250 C 
ATOM     23  C   UNL     1      -8.985  -8.108   6.060  0.00  0.00    +0.313 C 
ATOM     31  H   UNL     1      -8.504  -9.310   4.464  0.00  0.00    +0.151 HD
ENDROOT
BRANCH   8  24
ATOM     24  C   UNL     1      -9.468  -6.951   8.172  0.00  0.00    +0.045 A 
ATOM     25  C   UNL     1     -10.520  -7.484   8.905  0.00  0.00    +0.024 A 
ATOM     26  C   UNL     1      -9.223  -5.585   8.165  0.00  0.00    +0.024 A 
ATOM     27  C   UNL     1     -11.342  -6.635   9.646  0.00  0.00    +0.005 A 
ATOM     28  C   UNL     1     -10.046  -4.734   8.905  0.00  0.00    +0.005 A 
ATOM     29  C   UNL     1     -11.105  -5.260   9.646  0.00  0.00    -0.050 A 
ATOM     30  C   UNL     1     -11.983  -4.350  10.437  0.00  0.00    +0.044 C 
ENDBRANCH   8  24
BRANCH  20  12
ATOM     12  C   UNL     1      -4.069 -11.150   9.261  0.00  0.00    +0.103 C 
BRANCH  12   9
ATOM      9  C   UNL     1      -4.116 -11.066  10.793  0.00  0.00    -0.011 C 
ATOM     10  C   UNL     1      -3.551 -12.362  11.420  0.00  0.00    +0.008 C 
ATOM     11  C   UNL     1      -3.198  -9.933  11.305  0.00  0.00    +0.008 C 
ATOM     13  C   UNL     1      -2.514 -11.907  12.440  0.00  0.00    +0.001 C 
ATOM     14  C   UNL     1      -1.954 -10.635  11.830  0.00  0.00    +0.001 C 
BRANCH   9  17
ATOM     17  C   UNL     1      -5.564 -10.826  11.238  0.00  0.00    +0.127 C 
BRANCH  17  22
ATOM      4  O   UNL     1      -5.494  -9.921  13.500  0.00  0.00    -0.251 OA
ATOM     22  C   UNL     1      -5.642  -9.767  12.297  0.00  0.00    +0.305 C 
BRANCH  22   3
ATOM      3  O   UNL     1      -5.909  -8.568  11.717  0.00  0.00    -0.481 OA
ATOM     32  H   UNL     1      -5.189  -7.919  11.869  0.00  0.00    +0.295 HD
ENDBRANCH  22   3
ENDBRANCH  17  22
ENDBRANCH   9  17
ENDBRANCH  12   9
ENDBRANCH  20  12
TORSDOF 6
ENDMDL
