MODEL 1
REMARK VINA RESULT:      -7.4      0.000      0.000
REMARK  Name = 51136980
REMARK  9 active torsions:
REMARK  status: ('A' for Active; 'I' for Inactive)
REMARK    1  A    between atoms: O_5  and  C_15
REMARK    2  A    between atoms: O_6  and  C_22
REMARK    3  A    between atoms: N_8  and  C_13
REMARK    4  A    between atoms: N_9  and  C_23
REMARK    5  A    between atoms: N_10  and  C_19
REMARK    6  A    between atoms: C_14  and  C_19
REMARK    7  A    between atoms: C_16  and  C_22
REMARK    8  A    between atoms: C_24  and  C_28
REMARK    9  A    between atoms: C_27  and  C_31
REMARK                            x       y       z     vdW  Elec       q    Type
REMARK                         _______ _______ _______ _____ _____    ______ ____
ROOT
ATOM      4  O   UNL     1      -9.715 -11.282  16.697  0.00  0.00    -0.365 OA
ATOM     13  C   UNL     1     -10.840  -9.264  16.124  0.00  0.00    +0.118 C 
ATOM     14  C   UNL     1     -10.356 -10.617  15.586  0.00  0.00    +0.155 C 
ATOM     15  C   UNL     1      -9.888  -8.994  17.279  0.00  0.00    +0.165 C 
ATOM     16  C   UNL     1      -9.717 -10.402  17.837  0.00  0.00    +0.174 C 
ENDROOT
BRANCH  13   8
ATOM      8  N   UNL     1     -10.957  -8.192  15.152  0.00  0.00    -0.292 NA
ATOM      9  N   UNL     1     -12.302  -6.170  13.648  0.00  0.00    -0.327 N 
ATOM     17  C   UNL     1     -11.402  -6.953  15.803  0.00  0.00    +0.104 C 
ATOM     18  C   UNL     1     -11.896  -8.561  14.086  0.00  0.00    +0.104 C 
ATOM     20  C   UNL     1     -11.474  -5.799  14.800  0.00  0.00    +0.120 C 
ATOM     21  C   UNL     1     -11.984  -7.461  13.025  0.00  0.00    +0.120 C 
BRANCH   9  23
ATOM     23  C   UNL     1     -12.856  -5.169  12.841  0.00  0.00    +0.030 A 
ATOM     25  C   UNL     1     -12.312  -4.907  11.583  0.00  0.00    +0.035 A 
ATOM     26  C   UNL     1     -13.951  -4.435  13.294  0.00  0.00    +0.023 A 
ATOM     27  C   UNL     1     -12.864  -3.911  10.778  0.00  0.00    +0.057 A 
ATOM     29  C   UNL     1     -14.503  -3.437  12.489  0.00  0.00    +0.002 A 
ATOM     30  C   UNL     1     -13.959  -3.175  11.233  0.00  0.00    +0.012 A 
BRANCH  27  31
ATOM      1  F   UNL     1     -13.092  -2.844   8.665  0.00  0.00    -0.166 F 
ATOM      2  F   UNL     1     -11.081  -2.983   9.481  0.00  0.00    -0.166 F 
ATOM      3  F   UNL     1     -12.052  -4.754   8.692  0.00  0.00    -0.166 F 
ATOM     31  C   UNL     1     -12.283  -3.631   9.433  0.00  0.00    +0.417 C 
ENDBRANCH  27  31
ENDBRANCH   9  23
ENDBRANCH  13   8
BRANCH  15   5
ATOM      5  O   UNL     1      -8.641  -8.489  16.818  0.00  0.00    -0.388 OA
ATOM     38  H   UNL     1      -8.709  -8.370  15.856  0.00  0.00    +0.210 HD
ENDBRANCH  15   5
BRANCH  14  19
ATOM     19  C   UNL     1      -9.350 -10.577  14.441  0.00  0.00    +0.137 C 
BRANCH  19  10
ATOM      7  O   UNL     1      -6.996  -9.578  13.134  0.00  0.00    -0.270 OA
ATOM     10  N   UNL     1      -8.007 -10.639  14.933  0.00  0.00    -0.309 N 
ATOM     24  C   UNL     1      -6.918 -10.127  14.230  0.00  0.00    +0.244 C 
ATOM     39  H   UNL     1      -7.864 -11.145  15.800  0.00  0.00    +0.149 HD
BRANCH  24  28
ATOM     11  N   UNL     1      -1.997 -11.039  14.253  0.00  0.00    -0.344 N 
ATOM     12  N   UNL     1      -1.786 -10.805  16.452  0.00  0.00    -0.236 NA
ATOM     28  C   UNL     1      -5.586 -10.295  14.864  0.00  0.00    +0.039 A 
ATOM     32  C   UNL     1      -4.481 -10.600  14.062  0.00  0.00    +0.040 A 
ATOM     33  C   UNL     1      -5.460 -10.148  16.247  0.00  0.00    +0.015 A 
ATOM     34  C   UNL     1      -3.255 -10.748  14.713  0.00  0.00    +0.067 A 
ATOM     35  C   UNL     1      -4.218 -10.300  16.878  0.00  0.00    +0.030 A 
ATOM     36  C   UNL     1      -3.098 -10.606  16.088  0.00  0.00    +0.089 A 
ATOM     37  C   UNL     1      -1.155 -11.062  15.329  0.00  0.00    +0.197 A 
ATOM     41  H   UNL     1      -1.738 -11.206  13.289  0.00  0.00    +0.167 HD
ENDBRANCH  24  28
ENDBRANCH  19  10
ENDBRANCH  14  19
BRANCH  16  22
ATOM     22  C   UNL     1      -8.457 -10.633  18.650  0.00  0.00    +0.190 C 
BRANCH  22   6
ATOM      6  O   UNL     1      -8.750 -10.416  20.021  0.00  0.00    -0.392 OA
ATOM     40  H   UNL     1      -7.944 -10.060  20.434  0.00  0.00    +0.210 HD
ENDBRANCH  22   6
ENDBRANCH  16  22
TORSDOF 9
ENDMDL
MODEL 2
REMARK VINA RESULT:      -7.3      6.240     11.550
REMARK  Name = 51136980
REMARK  9 active torsions:
REMARK  status: ('A' for Active; 'I' for Inactive)
REMARK    1  A    between atoms: O_5  and  C_15
REMARK    2  A    between atoms: O_6  and  C_22
REMARK    3  A    between atoms: N_8  and  C_13
REMARK    4  A    between atoms: N_9  and  C_23
REMARK    5  A    between atoms: N_10  and  C_19
REMARK    6  A    between atoms: C_14  and  C_19
REMARK    7  A    between atoms: C_16  and  C_22
REMARK    8  A    between atoms: C_24  and  C_28
REMARK    9  A    between atoms: C_27  and  C_31
REMARK                            x       y       z     vdW  Elec       q    Type
REMARK                         _______ _______ _______ _____ _____    ______ ____
ROOT
ATOM      4  O   UNL     1      -7.745  -9.835   7.488  0.00  0.00    -0.365 OA
ATOM     13  C   UNL     1      -6.216 -10.541   9.170  0.00  0.00    +0.118 C 
ATOM     14  C   UNL     1      -7.515  -9.766   8.913  0.00  0.00    +0.155 C 
ATOM     15  C   UNL     1      -5.481 -10.429   7.843  0.00  0.00    +0.165 C 
ATOM     16  C   UNL     1      -6.648 -10.531   6.867  0.00  0.00    +0.174 C 
ENDROOT
BRANCH  13   8
ATOM      8  N   UNL     1      -5.451 -10.142  10.338  0.00  0.00    -0.292 NA
ATOM      9  N   UNL     1      -4.048 -10.532  12.795  0.00  0.00    -0.327 N 
ATOM     17  C   UNL     1      -4.142 -10.808  10.350  0.00  0.00    +0.104 C 
ATOM     18  C   UNL     1      -6.185 -10.461  11.569  0.00  0.00    +0.104 C 
ATOM     20  C   UNL     1      -3.303 -10.352  11.545  0.00  0.00    +0.120 C 
ATOM     21  C   UNL     1      -5.413  -9.992  12.806  0.00  0.00    +0.120 C 
BRANCH   9  23
ATOM     23  C   UNL     1      -3.357 -10.597  14.011  0.00  0.00    +0.030 A 
ATOM     25  C   UNL     1      -4.040 -10.921  15.185  0.00  0.00    +0.035 A 
ATOM     26  C   UNL     1      -1.988 -10.338  14.050  0.00  0.00    +0.023 A 
ATOM     27  C   UNL     1      -3.352 -10.985  16.396  0.00  0.00    +0.057 A 
ATOM     29  C   UNL     1      -1.300 -10.402  15.262  0.00  0.00    +0.002 A 
ATOM     30  C   UNL     1      -1.982 -10.725  16.434  0.00  0.00    +0.012 A 
BRANCH  27  31
ATOM      1  F   UNL     1      -4.835 -10.296  18.123  0.00  0.00    -0.166 F 
ATOM      2  F   UNL     1      -4.948 -12.379  17.508  0.00  0.00    -0.166 F 
ATOM      3  F   UNL     1      -3.259 -11.688  18.681  0.00  0.00    -0.166 F 
ATOM     31  C   UNL     1      -4.081 -11.332  17.650  0.00  0.00    +0.417 C 
ENDBRANCH  27  31
ENDBRANCH   9  23
ENDBRANCH  13   8
BRANCH  15   5
ATOM      5  O   UNL     1      -4.833  -9.171   7.711  0.00  0.00    -0.388 OA
ATOM     38  H   UNL     1      -5.132  -8.772   6.877  0.00  0.00    +0.210 HD
ENDBRANCH  15   5
BRANCH  14  19
ATOM     19  C   UNL     1      -7.519  -8.292   9.301  0.00  0.00    +0.137 C 
BRANCH  19  10
ATOM      7  O   UNL     1      -8.302  -5.808   8.090  0.00  0.00    -0.270 OA
ATOM     10  N   UNL     1      -8.843  -7.748   9.245  0.00  0.00    -0.309 N 
ATOM     24  C   UNL     1      -9.135  -6.530   8.634  0.00  0.00    +0.244 C 
ATOM     39  H   UNL     1      -9.565  -8.259   9.738  0.00  0.00    +0.149 HD
BRANCH  24  28
ATOM     11  N   UNL     1     -12.825  -3.162   8.944  0.00  0.00    -0.344 N 
ATOM     12  N   UNL     1     -14.451  -4.674   8.842  0.00  0.00    -0.236 NA
ATOM     28  C   UNL     1     -10.553  -6.091   8.684  0.00  0.00    +0.039 A 
ATOM     32  C   UNL     1     -10.843  -4.727   8.796  0.00  0.00    +0.040 A 
ATOM     33  C   UNL     1     -11.570  -7.046   8.620  0.00  0.00    +0.015 A 
ATOM     34  C   UNL     1     -12.192  -4.374   8.840  0.00  0.00    +0.067 A 
ATOM     35  C   UNL     1     -12.919  -6.667   8.666  0.00  0.00    +0.030 A 
ATOM     36  C   UNL     1     -13.227  -5.302   8.778  0.00  0.00    +0.089 A 
ATOM     37  C   UNL     1     -14.172  -3.394   8.941  0.00  0.00    +0.197 A 
ATOM     41  H   UNL     1     -12.376  -2.258   9.011  0.00  0.00    +0.167 HD
ENDBRANCH  24  28
ENDBRANCH  19  10
ENDBRANCH  14  19
BRANCH  16  22
ATOM     22  C   UNL     1      -6.399  -9.946   5.490  0.00  0.00    +0.190 C 
BRANCH  22   6
ATOM      6  O   UNL     1      -6.705  -8.561   5.517  0.00  0.00    -0.392 OA
ATOM     40  H   UNL     1      -7.632  -8.478   5.800  0.00  0.00    +0.210 HD
ENDBRANCH  22   6
ENDBRANCH  16  22
TORSDOF 9
ENDMDL
MODEL 3
REMARK VINA RESULT:      -7.3      4.687      7.088
REMARK  Name = 51136980
REMARK  9 active torsions:
REMARK  status: ('A' for Active; 'I' for Inactive)
REMARK    1  A    between atoms: O_5  and  C_15
REMARK    2  A    between atoms: O_6  and  C_22
REMARK    3  A    between atoms: N_8  and  C_13
REMARK    4  A    between atoms: N_9  and  C_23
REMARK    5  A    between atoms: N_10  and  C_19
REMARK    6  A    between atoms: C_14  and  C_19
REMARK    7  A    between atoms: C_16  and  C_22
REMARK    8  A    between atoms: C_24  and  C_28
REMARK    9  A    between atoms: C_27  and  C_31
REMARK                            x       y       z     vdW  Elec       q    Type
REMARK                         _______ _______ _______ _____ _____    ______ ____
ROOT
ATOM      4  O   UNL     1      -2.059 -12.679  13.392  0.00  0.00    -0.365 OA
ATOM     13  C   UNL     1      -3.589 -12.103  11.663  0.00  0.00    +0.118 C 
ATOM     14  C   UNL     1      -2.359 -11.628  12.447  0.00  0.00    +0.155 C 
ATOM     15  C   UNL     1      -4.270 -13.054  12.635  0.00  0.00    +0.165 C 
ATOM     16  C   UNL     1      -3.056 -13.712  13.281  0.00  0.00    +0.174 C 
ENDROOT
BRANCH  13   8
ATOM      8  N   UNL     1      -4.441 -11.063  11.113  0.00  0.00    -0.292 NA
ATOM      9  N   UNL     1      -5.953  -9.728   9.091  0.00  0.00    -0.327 N 
ATOM     17  C   UNL     1      -5.706 -11.633  10.631  0.00  0.00    +0.104 C 
ATOM     18  C   UNL     1      -3.759 -10.363  10.017  0.00  0.00    +0.104 C 
ATOM     20  C   UNL     1      -6.636 -10.540  10.102  0.00  0.00    +0.120 C 
ATOM     21  C   UNL     1      -4.626  -9.227   9.468  0.00  0.00    +0.120 C 
BRANCH   9  23
ATOM     23  C   UNL     1      -6.705  -8.976   8.180  0.00  0.00    +0.030 A 
ATOM     25  C   UNL     1      -7.549  -7.965   8.640  0.00  0.00    +0.035 A 
ATOM     26  C   UNL     1      -6.610  -9.238   6.814  0.00  0.00    +0.023 A 
ATOM     27  C   UNL     1      -8.298  -7.216   7.733  0.00  0.00    +0.057 A 
ATOM     29  C   UNL     1      -7.359  -8.489   5.906  0.00  0.00    +0.002 A 
ATOM     30  C   UNL     1      -8.203  -7.479   6.366  0.00  0.00    +0.012 A 
BRANCH  27  31
ATOM      1  F   UNL     1     -10.122  -5.756   7.291  0.00  0.00    -0.166 F 
ATOM      2  F   UNL     1      -9.922  -6.484   9.330  0.00  0.00    -0.166 F 
ATOM      3  F   UNL     1      -8.542  -4.990   8.575  0.00  0.00    -0.166 F 
ATOM     31  C   UNL     1      -9.200  -6.134   8.224  0.00  0.00    +0.417 C 
ENDBRANCH  27  31
ENDBRANCH   9  23
ENDBRANCH  13   8
BRANCH  15   5
ATOM      5  O   UNL     1      -5.027 -12.348  13.610  0.00  0.00    -0.388 OA
ATOM     38  H   UNL     1      -5.261 -11.483  13.231  0.00  0.00    +0.210 HD
ENDBRANCH  15   5
BRANCH  14  19
ATOM     19  C   UNL     1      -2.512 -10.336  13.240  0.00  0.00    +0.137 C 
BRANCH  19  10
ATOM      7  O   UNL     1      -1.583 -10.402  15.957  0.00  0.00    -0.270 OA
ATOM     10  N   UNL     1      -3.309 -10.541  14.412  0.00  0.00    -0.309 N 
ATOM     24  C   UNL     1      -2.774 -10.558  15.698  0.00  0.00    +0.244 C 
ATOM     39  H   UNL     1      -4.290 -10.749  14.262  0.00  0.00    +0.149 HD
BRANCH  24  28
ATOM     11  N   UNL     1      -7.188 -10.223  18.034  0.00  0.00    -0.344 N 
ATOM     12  N   UNL     1      -6.543 -11.409  19.799  0.00  0.00    -0.236 NA
ATOM     28  C   UNL     1      -3.731 -10.811  16.806  0.00  0.00    +0.039 A 
ATOM     32  C   UNL     1      -5.028 -10.295  16.719  0.00  0.00    +0.040 A 
ATOM     33  C   UNL     1      -3.319 -11.556  17.913  0.00  0.00    +0.015 A 
ATOM     34  C   UNL     1      -5.883 -10.564  17.789  0.00  0.00    +0.067 A 
ATOM     35  C   UNL     1      -4.195 -11.813  18.976  0.00  0.00    +0.030 A 
ATOM     36  C   UNL     1      -5.502 -11.303  18.905  0.00  0.00    +0.089 A 
ATOM     37  C   UNL     1      -7.537 -10.751  19.246  0.00  0.00    +0.197 A 
ATOM     41  H   UNL     1      -7.787  -9.680  17.426  0.00  0.00    +0.167 HD
ENDBRANCH  24  28
ENDBRANCH  19  10
ENDBRANCH  14  19
BRANCH  16  22
ATOM     22  C   UNL     1      -3.296 -14.326  14.647  0.00  0.00    +0.190 C 
BRANCH  22   6
ATOM      6  O   UNL     1      -2.274 -15.274  14.910  0.00  0.00    -0.392 OA
ATOM     40  H   UNL     1      -1.423 -14.818  14.795  0.00  0.00    +0.210 HD
ENDBRANCH  22   6
ENDBRANCH  16  22
TORSDOF 9
ENDMDL
MODEL 4
REMARK VINA RESULT:      -7.3      8.037     11.560
REMARK  Name = 51136980
REMARK  9 active torsions:
REMARK  status: ('A' for Active; 'I' for Inactive)
REMARK    1  A    between atoms: O_5  and  C_15
REMARK    2  A    between atoms: O_6  and  C_22
REMARK    3  A    between atoms: N_8  and  C_13
REMARK    4  A    between atoms: N_9  and  C_23
REMARK    5  A    between atoms: N_10  and  C_19
REMARK    6  A    between atoms: C_14  and  C_19
REMARK    7  A    between atoms: C_16  and  C_22
REMARK    8  A    between atoms: C_24  and  C_28
REMARK    9  A    between atoms: C_27  and  C_31
REMARK                            x       y       z     vdW  Elec       q    Type
REMARK                         _______ _______ _______ _____ _____    ______ ____
ROOT
ATOM      4  O   UNL     1      -6.268  -9.536   6.787  0.00  0.00    -0.365 OA
ATOM     13  C   UNL     1      -5.656  -9.317   9.077  0.00  0.00    +0.118 C 
ATOM     14  C   UNL     1      -5.216  -9.876   7.718  0.00  0.00    +0.155 C 
ATOM     15  C   UNL     1      -7.172  -9.286   8.960  0.00  0.00    +0.165 C 
ATOM     16  C   UNL     1      -7.333  -8.880   7.500  0.00  0.00    +0.174 C 
ENDROOT
BRANCH  13   8
ATOM      8  N   UNL     1      -5.139 -10.000  10.250  0.00  0.00    -0.292 NA
ATOM      9  N   UNL     1      -3.853 -10.206  12.792  0.00  0.00    -0.327 N 
ATOM     17  C   UNL     1      -5.810  -9.520  11.464  0.00  0.00    +0.104 C 
ATOM     18  C   UNL     1      -3.689  -9.797  10.367  0.00  0.00    +0.104 C 
ATOM     20  C   UNL     1      -5.314 -10.272  12.701  0.00  0.00    +0.120 C 
ATOM     21  C   UNL     1      -3.123 -10.559  11.568  0.00  0.00    +0.120 C 
BRANCH   9  23
ATOM     23  C   UNL     1      -3.222 -10.433  14.021  0.00  0.00    +0.030 A 
ATOM     25  C   UNL     1      -3.983 -10.743  15.148  0.00  0.00    +0.035 A 
ATOM     26  C   UNL     1      -1.834 -10.349  14.118  0.00  0.00    +0.023 A 
ATOM     27  C   UNL     1      -3.356 -10.969  16.373  0.00  0.00    +0.057 A 
ATOM     29  C   UNL     1      -1.206 -10.575  15.343  0.00  0.00    +0.002 A 
ATOM     30  C   UNL     1      -1.966 -10.884  16.470  0.00  0.00    +0.012 A 
BRANCH  27  31
ATOM      1  F   UNL     1      -3.405 -11.724  18.628  0.00  0.00    -0.166 F 
ATOM      2  F   UNL     1      -4.895 -10.247  18.056  0.00  0.00    -0.166 F 
ATOM      3  F   UNL     1      -5.082 -12.294  17.366  0.00  0.00    -0.166 F 
ATOM     31  C   UNL     1      -4.169 -11.301  17.578  0.00  0.00    +0.417 C 
ENDBRANCH  27  31
ENDBRANCH   9  23
ENDBRANCH  13   8
BRANCH  15   5
ATOM      5  O   UNL     1      -7.738 -10.571   9.182  0.00  0.00    -0.388 OA
ATOM     38  H   UNL     1      -7.007 -11.191   9.342  0.00  0.00    +0.210 HD
ENDBRANCH  15   5
BRANCH  14  19
ATOM     19  C   UNL     1      -5.008 -11.384   7.634  0.00  0.00    +0.137 C 
BRANCH  19  10
ATOM      7  O   UNL     1      -3.707 -13.890   7.107  0.00  0.00    -0.270 OA
ATOM     10  N   UNL     1      -4.282 -11.739   6.451  0.00  0.00    -0.309 N 
ATOM     24  C   UNL     1      -3.680 -12.984   6.278  0.00  0.00    +0.244 C 
ATOM     39  H   UNL     1      -4.160 -11.010   5.757  0.00  0.00    +0.149 HD
BRANCH  24  28
ATOM     11  N   UNL     1      -0.002 -14.817   3.420  0.00  0.00    -0.344 N 
ATOM     12  N   UNL     1      -0.741 -13.866   1.553  0.00  0.00    -0.236 NA
ATOM     28  C   UNL     1      -2.941 -13.186   5.006  0.00  0.00    +0.039 A 
ATOM     32  C   UNL     1      -1.786 -13.976   5.004  0.00  0.00    +0.040 A 
ATOM     33  C   UNL     1      -3.410 -12.585   3.835  0.00  0.00    +0.015 A 
ATOM     34  C   UNL     1      -1.133 -14.131   3.781  0.00  0.00    +0.067 A 
ATOM     35  C   UNL     1      -2.737 -12.755   2.618  0.00  0.00    +0.030 A 
ATOM     36  C   UNL     1      -1.576 -13.545   2.599  0.00  0.00    +0.089 A 
ATOM     37  C   UNL     1       0.190 -14.628   2.080  0.00  0.00    +0.197 A 
ATOM     41  H   UNL     1       0.584 -15.366   4.035  0.00  0.00    +0.167 HD
ENDBRANCH  24  28
ENDBRANCH  19  10
ENDBRANCH  14  19
BRANCH  16  22
ATOM     22  C   UNL     1      -8.661  -9.244   6.864  0.00  0.00    +0.190 C 
BRANCH  22   6
ATOM      6  O   UNL     1      -8.592 -10.580   6.391  0.00  0.00    -0.392 OA
ATOM     40  H   UNL     1      -9.324 -11.069   6.804  0.00  0.00    +0.210 HD
ENDBRANCH  22   6
ENDBRANCH  16  22
TORSDOF 9
ENDMDL
MODEL 5
REMARK VINA RESULT:      -7.3      1.424      2.007
REMARK  Name = 51136980
REMARK  9 active torsions:
REMARK  status: ('A' for Active; 'I' for Inactive)
REMARK    1  A    between atoms: O_5  and  C_15
REMARK    2  A    between atoms: O_6  and  C_22
REMARK    3  A    between atoms: N_8  and  C_13
REMARK    4  A    between atoms: N_9  and  C_23
REMARK    5  A    between atoms: N_10  and  C_19
REMARK    6  A    between atoms: C_14  and  C_19
REMARK    7  A    between atoms: C_16  and  C_22
REMARK    8  A    between atoms: C_24  and  C_28
REMARK    9  A    between atoms: C_27  and  C_31
REMARK                            x       y       z     vdW  Elec       q    Type
REMARK                         _______ _______ _______ _____ _____    ______ ____
ROOT
ATOM      4  O   UNL     1      -9.862 -10.978  17.801  0.00  0.00    -0.365 OA
ATOM     13  C   UNL     1     -11.425  -9.588  16.664  0.00  0.00    +0.118 C 
ATOM     14  C   UNL     1      -9.961 -10.046  16.701  0.00  0.00    +0.155 C 
ATOM     15  C   UNL     1     -11.880  -9.777  18.103  0.00  0.00    +0.165 C 
ATOM     16  C   UNL     1     -11.137 -11.058  18.466  0.00  0.00    +0.174 C 
ENDROOT
BRANCH  13   8
ATOM      8  N   UNL     1     -11.671  -8.271  16.104  0.00  0.00    -0.292 NA
ATOM      9  N   UNL     1     -12.727  -6.388  14.233  0.00  0.00    -0.327 N 
ATOM     17  C   UNL     1     -13.112  -7.988  16.065  0.00  0.00    +0.104 C 
ATOM     18  C   UNL     1     -11.106  -8.171  14.752  0.00  0.00    +0.104 C 
ATOM     20  C   UNL     1     -13.382  -6.580  15.530  0.00  0.00    +0.120 C 
ATOM     21  C   UNL     1     -11.310  -6.768  14.174  0.00  0.00    +0.120 C 
BRANCH   9  23
ATOM     23  C   UNL     1     -13.172  -5.378  13.373  0.00  0.00    +0.030 A 
ATOM     25  C   UNL     1     -12.479  -5.111  12.192  0.00  0.00    +0.035 A 
ATOM     26  C   UNL     1     -14.309  -4.638  13.697  0.00  0.00    +0.023 A 
ATOM     27  C   UNL     1     -12.923  -4.104  11.335  0.00  0.00    +0.057 A 
ATOM     29  C   UNL     1     -14.754  -3.631  12.840  0.00  0.00    +0.002 A 
ATOM     30  C   UNL     1     -14.060  -3.363  11.660  0.00  0.00    +0.012 A 
BRANCH  27  31
ATOM      1  F   UNL     1     -11.668  -4.945   9.499  0.00  0.00    -0.166 F 
ATOM      2  F   UNL     1     -12.954  -3.236   9.106  0.00  0.00    -0.166 F 
ATOM      3  F   UNL     1     -11.123  -2.974  10.238  0.00  0.00    -0.166 F 
ATOM     31  C   UNL     1     -12.183  -3.818  10.072  0.00  0.00    +0.417 C 
ENDBRANCH  27  31
ENDBRANCH   9  23
ENDBRANCH  13   8
BRANCH  15   5
ATOM      5  O   UNL     1     -11.451  -8.704  18.930  0.00  0.00    -0.388 OA
ATOM     38  H   UNL     1     -10.933  -8.095  18.377  0.00  0.00    +0.210 HD
ENDBRANCH  15   5
BRANCH  14  19
ATOM     19  C   UNL     1      -8.912  -8.963  16.931  0.00  0.00    +0.137 C 
BRANCH  19  10
ATOM      7  O   UNL     1      -6.691 -10.242  18.227  0.00  0.00    -0.270 OA
ATOM     10  N   UNL     1      -7.662  -9.321  16.330  0.00  0.00    -0.309 N 
ATOM     24  C   UNL     1      -6.634  -9.942  17.037  0.00  0.00    +0.244 C 
ATOM     39  H   UNL     1      -7.523  -9.036  15.368  0.00  0.00    +0.149 HD
BRANCH  24  28
ATOM     11  N   UNL     1      -1.761 -10.980  16.550  0.00  0.00    -0.344 N 
ATOM     12  N   UNL     1      -1.812 -11.022  14.329  0.00  0.00    -0.236 NA
ATOM     28  C   UNL     1      -5.389 -10.223  16.276  0.00  0.00    +0.039 A 
ATOM     32  C   UNL     1      -4.199 -10.457  16.975  0.00  0.00    +0.040 A 
ATOM     33  C   UNL     1      -5.427 -10.247  14.880  0.00  0.00    +0.015 A 
ATOM     34  C   UNL     1      -3.062 -10.714  16.208  0.00  0.00    +0.067 A 
ATOM     35  C   UNL     1      -4.272 -10.508  14.132  0.00  0.00    +0.030 A 
ATOM     36  C   UNL     1      -3.069 -10.746  14.817  0.00  0.00    +0.089 A 
ATOM     37  C   UNL     1      -1.054 -11.156  15.394  0.00  0.00    +0.197 A 
ATOM     41  H   UNL     1      -1.391 -11.036  17.490  0.00  0.00    +0.167 HD
ENDBRANCH  24  28
ENDBRANCH  19  10
ENDBRANCH  14  19
BRANCH  16  22
ATOM     22  C   UNL     1     -10.915 -11.285  19.949  0.00  0.00    +0.190 C 
BRANCH  22   6
ATOM      6  O   UNL     1      -9.829 -10.479  20.380  0.00  0.00    -0.392 OA
ATOM     40  H   UNL     1     -10.048  -9.559  20.156  0.00  0.00    +0.210 HD
ENDBRANCH  22   6
ENDBRANCH  16  22
TORSDOF 9
ENDMDL
MODEL 6
REMARK VINA RESULT:      -7.3      6.210     11.644
REMARK  Name = 51136980
REMARK  9 active torsions:
REMARK  status: ('A' for Active; 'I' for Inactive)
REMARK    1  A    between atoms: O_5  and  C_15
REMARK    2  A    between atoms: O_6  and  C_22
REMARK    3  A    between atoms: N_8  and  C_13
REMARK    4  A    between atoms: N_9  and  C_23
REMARK    5  A    between atoms: N_10  and  C_19
REMARK    6  A    between atoms: C_14  and  C_19
REMARK    7  A    between atoms: C_16  and  C_22
REMARK    8  A    between atoms: C_24  and  C_28
REMARK    9  A    between atoms: C_27  and  C_31
REMARK                            x       y       z     vdW  Elec       q    Type
REMARK                         _______ _______ _______ _____ _____    ______ ____
ROOT
ATOM      4  O   UNL     1     -10.193  -7.890   6.698  0.00  0.00    -0.365 OA
ATOM     13  C   UNL     1      -8.259  -8.941   7.606  0.00  0.00    +0.118 C 
ATOM     14  C   UNL     1      -9.466  -8.053   7.936  0.00  0.00    +0.155 C 
ATOM     15  C   UNL     1      -8.036  -8.679   6.125  0.00  0.00    +0.165 C 
ATOM     16  C   UNL     1      -9.475  -8.555   5.641  0.00  0.00    +0.174 C 
ENDROOT
BRANCH  13   8
ATOM      8  N   UNL     1      -7.089  -8.774   8.449  0.00  0.00    -0.292 NA
ATOM      9  N   UNL     1      -5.031  -9.603  10.248  0.00  0.00    -0.327 N 
ATOM     17  C   UNL     1      -5.989  -9.626   7.980  0.00  0.00    +0.104 C 
ATOM     18  C   UNL     1      -7.409  -9.096   9.846  0.00  0.00    +0.104 C 
ATOM     20  C   UNL     1      -4.731  -9.417   8.825  0.00  0.00    +0.120 C 
ATOM     21  C   UNL     1      -6.198  -8.869  10.754  0.00  0.00    +0.120 C 
BRANCH   9  23
ATOM     23  C   UNL     1      -3.994  -9.886  11.145  0.00  0.00    +0.030 A 
ATOM     25  C   UNL     1      -4.286 -10.392  12.412  0.00  0.00    +0.035 A 
ATOM     26  C   UNL     1      -2.669  -9.662  10.772  0.00  0.00    +0.023 A 
ATOM     27  C   UNL     1      -3.253 -10.674  13.306  0.00  0.00    +0.057 A 
ATOM     29  C   UNL     1      -1.636  -9.944  11.665  0.00  0.00    +0.002 A 
ATOM     30  C   UNL     1      -1.927 -10.449  12.932  0.00  0.00    +0.012 A 
BRANCH  27  31
ATOM      1  F   UNL     1      -2.765 -12.266  15.003  0.00  0.00    -0.166 F 
ATOM      2  F   UNL     1      -3.414 -10.299  15.663  0.00  0.00    -0.166 F 
ATOM      3  F   UNL     1      -4.845 -11.672  14.785  0.00  0.00    -0.166 F 
ATOM     31  C   UNL     1      -3.565 -11.215  14.660  0.00  0.00    +0.417 C 
ENDBRANCH  27  31
ENDBRANCH   9  23
ENDBRANCH  13   8
BRANCH  15   5
ATOM      5  O   UNL     1      -7.335  -7.461   5.912  0.00  0.00    -0.388 OA
ATOM     38  H   UNL     1      -7.022  -7.458   4.991  0.00  0.00    +0.210 HD
ENDBRANCH  15   5
BRANCH  14  19
ATOM     19  C   UNL     1      -9.161  -6.657   8.468  0.00  0.00    +0.137 C 
BRANCH  19  10
ATOM      7  O   UNL     1      -9.636  -3.844   8.805  0.00  0.00    -0.270 OA
ATOM     10  N   UNL     1     -10.333  -6.048   9.020  0.00  0.00    -0.309 N 
ATOM     24  C   UNL     1     -10.481  -4.668   9.147  0.00  0.00    +0.244 C 
ATOM     39  H   UNL     1     -11.040  -6.674   9.388  0.00  0.00    +0.149 HD
BRANCH  24  28
ATOM     11  N   UNL     1     -13.632  -3.843  12.947  0.00  0.00    -0.344 N 
ATOM     12  N   UNL     1     -15.211  -2.937  11.673  0.00  0.00    -0.236 NA
ATOM     28  C   UNL     1     -11.747  -4.195   9.765  0.00  0.00    +0.039 A 
ATOM     32  C   UNL     1     -11.924  -4.329  11.146  0.00  0.00    +0.040 A 
ATOM     33  C   UNL     1     -12.735  -3.627   8.958  0.00  0.00    +0.015 A 
ATOM     34  C   UNL     1     -13.132  -3.869  11.671  0.00  0.00    +0.067 A 
ATOM     35  C   UNL     1     -13.941  -3.172   9.508  0.00  0.00    +0.030 A 
ATOM     36  C   UNL     1     -14.135  -3.299  10.893  0.00  0.00    +0.089 A 
ATOM     37  C   UNL     1     -14.876  -3.277  12.896  0.00  0.00    +0.197 A 
ATOM     41  H   UNL     1     -13.165  -4.181  13.778  0.00  0.00    +0.167 HD
ENDBRANCH  24  28
ENDBRANCH  19  10
ENDBRANCH  14  19
BRANCH  16  22
ATOM     22  C   UNL     1      -9.665  -7.787   4.347  0.00  0.00    +0.190 C 
BRANCH  22   6
ATOM      6  O   UNL     1      -8.792  -8.321   3.363  0.00  0.00    -0.392 OA
ATOM     40  H   UNL     1      -8.792  -9.287   3.474  0.00  0.00    +0.210 HD
ENDBRANCH  22   6
ENDBRANCH  16  22
TORSDOF 9
ENDMDL
MODEL 7
REMARK VINA RESULT:      -7.2     25.673     28.904
REMARK  Name = 51136980
REMARK  9 active torsions:
REMARK  status: ('A' for Active; 'I' for Inactive)
REMARK    1  A    between atoms: O_5  and  C_15
REMARK    2  A    between atoms: O_6  and  C_22
REMARK    3  A    between atoms: N_8  and  C_13
REMARK    4  A    between atoms: N_9  and  C_23
REMARK    5  A    between atoms: N_10  and  C_19
REMARK    6  A    between atoms: C_14  and  C_19
REMARK    7  A    between atoms: C_16  and  C_22
REMARK    8  A    between atoms: C_24  and  C_28
REMARK    9  A    between atoms: C_27  and  C_31
REMARK                            x       y       z     vdW  Elec       q    Type
REMARK                         _______ _______ _______ _____ _____    ______ ____
ROOT
ATOM      4  O   UNL     1      13.679   3.577  -0.728  0.00  0.00    -0.365 OA
ATOM     13  C   UNL     1      13.262   4.672   1.344  0.00  0.00    +0.118 C 
ATOM     14  C   UNL     1      12.743   3.604   0.372  0.00  0.00    +0.155 C 
ATOM     15  C   UNL     1      14.056   5.601   0.440  0.00  0.00    +0.165 C 
ATOM     16  C   UNL     1      14.677   4.595  -0.522  0.00  0.00    +0.174 C 
ENDROOT
BRANCH  13   8
ATOM      8  N   UNL     1      12.264   5.320   2.177  0.00  0.00    -0.292 NA
ATOM      9  N   UNL     1      10.968   6.025   4.623  0.00  0.00    -0.327 N 
ATOM     17  C   UNL     1      12.903   6.251   3.116  0.00  0.00    +0.104 C 
ATOM     18  C   UNL     1      11.483   4.321   2.918  0.00  0.00    +0.104 C 
ATOM     20  C   UNL     1      11.859   6.983   3.961  0.00  0.00    +0.120 C 
ATOM     21  C   UNL     1      10.391   4.990   3.756  0.00  0.00    +0.120 C 
BRANCH   9  23
ATOM     23  C   UNL     1      10.239   6.419   5.751  0.00  0.00    +0.030 A 
ATOM     25  C   UNL     1      10.212   5.605   6.884  0.00  0.00    +0.035 A 
ATOM     26  C   UNL     1       9.540   7.625   5.743  0.00  0.00    +0.023 A 
ATOM     27  C   UNL     1       9.486   5.997   8.008  0.00  0.00    +0.057 A 
ATOM     29  C   UNL     1       8.814   8.018   6.867  0.00  0.00    +0.002 A 
ATOM     30  C   UNL     1       8.786   7.204   7.999  0.00  0.00    +0.012 A 
BRANCH  27  31
ATOM      1  F   UNL     1       9.440   3.797   8.910  0.00  0.00    -0.166 F 
ATOM      2  F   UNL     1      10.536   5.297  10.040  0.00  0.00    -0.166 F 
ATOM      3  F   UNL     1       8.368   5.333  10.016  0.00  0.00    -0.166 F 
ATOM     31  C   UNL     1       9.457   5.127   9.219  0.00  0.00    +0.417 C 
ENDBRANCH  27  31
ENDBRANCH   9  23
ENDBRANCH  13   8
BRANCH  15   5
ATOM      5  O   UNL     1      13.205   6.498  -0.263  0.00  0.00    -0.388 OA
ATOM     38  H   UNL     1      12.314   6.418   0.119  0.00  0.00    +0.210 HD
ENDBRANCH  15   5
BRANCH  14  19
ATOM     19  C   UNL     1      11.357   3.833  -0.219  0.00  0.00    +0.137 C 
BRANCH  19  10
ATOM      7  O   UNL     1       9.345   4.767  -2.045  0.00  0.00    -0.270 OA
ATOM     10  N   UNL     1      11.381   3.725  -1.647  0.00  0.00    -0.309 N 
ATOM     24  C   UNL     1      10.357   4.208  -2.460  0.00  0.00    +0.244 C 
ATOM     39  H   UNL     1      12.155   3.209  -2.050  0.00  0.00    +0.149 HD
BRANCH  24  28
ATOM     11  N   UNL     1       9.319   2.073  -6.866  0.00  0.00    -0.344 N 
ATOM     12  N   UNL     1      10.829   3.251  -7.993  0.00  0.00    -0.236 NA
ATOM     28  C   UNL     1      10.520   3.993  -3.921  0.00  0.00    +0.039 A 
ATOM     32  C   UNL     1       9.716   3.048  -4.566  0.00  0.00    +0.040 A 
ATOM     33  C   UNL     1      11.472   4.737  -4.623  0.00  0.00    +0.015 A 
ATOM     34  C   UNL     1       9.913   2.888  -5.938  0.00  0.00    +0.067 A 
ATOM     35  C   UNL     1      11.652   4.559  -6.001  0.00  0.00    +0.030 A 
ATOM     36  C   UNL     1      10.852   3.614  -6.665  0.00  0.00    +0.089 A 
ATOM     37  C   UNL     1       9.899   2.327  -8.077  0.00  0.00    +0.197 A 
ATOM     41  H   UNL     1       8.581   1.404  -6.688  0.00  0.00    +0.167 HD
ENDBRANCH  24  28
ENDBRANCH  19  10
ENDBRANCH  14  19
BRANCH  16  22
ATOM     22  C   UNL     1      15.107   5.155  -1.865  0.00  0.00    +0.190 C 
BRANCH  22   6
ATOM      6  O   UNL     1      14.669   4.276  -2.890  0.00  0.00    -0.392 OA
ATOM     40  H   UNL     1      13.698   4.324  -2.914  0.00  0.00    +0.210 HD
ENDBRANCH  22   6
ENDBRANCH  16  22
TORSDOF 9
ENDMDL
MODEL 8
REMARK VINA RESULT:      -7.2      6.301      8.533
REMARK  Name = 51136980
REMARK  9 active torsions:
REMARK  status: ('A' for Active; 'I' for Inactive)
REMARK    1  A    between atoms: O_5  and  C_15
REMARK    2  A    between atoms: O_6  and  C_22
REMARK    3  A    between atoms: N_8  and  C_13
REMARK    4  A    between atoms: N_9  and  C_23
REMARK    5  A    between atoms: N_10  and  C_19
REMARK    6  A    between atoms: C_14  and  C_19
REMARK    7  A    between atoms: C_16  and  C_22
REMARK    8  A    between atoms: C_24  and  C_28
REMARK    9  A    between atoms: C_27  and  C_31
REMARK                            x       y       z     vdW  Elec       q    Type
REMARK                         _______ _______ _______ _____ _____    ______ ____
ROOT
ATOM      4  O   UNL     1      -5.634  -9.574   7.114  0.00  0.00    -0.365 OA
ATOM     13  C   UNL     1      -6.551  -9.345   9.299  0.00  0.00    +0.118 C 
ATOM     14  C   UNL     1      -5.251  -9.537   8.507  0.00  0.00    +0.155 C 
ATOM     15  C   UNL     1      -7.606  -9.931   8.373  0.00  0.00    +0.165 C 
ATOM     16  C   UNL     1      -7.068  -9.488   7.018  0.00  0.00    +0.174 C 
ENDROOT
BRANCH  13   8
ATOM      8  N   UNL     1      -6.560  -9.863  10.655  0.00  0.00    -0.292 NA
ATOM      9  N   UNL     1      -7.126  -9.834  13.454  0.00  0.00    -0.327 N 
ATOM     17  C   UNL     1      -7.937 -10.024  11.137  0.00  0.00    +0.104 C 
ATOM     18  C   UNL     1      -5.818  -8.969  11.553  0.00  0.00    +0.104 C 
ATOM     20  C   UNL     1      -7.961 -10.623  12.545  0.00  0.00    +0.120 C 
ATOM     21  C   UNL     1      -5.771  -9.534  12.975  0.00  0.00    +0.120 C 
BRANCH   9  23
ATOM     23  C   UNL     1      -7.329  -9.922  14.837  0.00  0.00    +0.030 A 
ATOM     25  C   UNL     1      -6.270 -10.266  15.677  0.00  0.00    +0.035 A 
ATOM     26  C   UNL     1      -8.591  -9.666  15.373  0.00  0.00    +0.023 A 
ATOM     27  C   UNL     1      -6.473 -10.354  17.054  0.00  0.00    +0.057 A 
ATOM     29  C   UNL     1      -8.794  -9.754  16.751  0.00  0.00    +0.002 A 
ATOM     30  C   UNL     1      -7.736 -10.099  17.591  0.00  0.00    +0.012 A 
BRANCH  27  31
ATOM      1  F   UNL     1      -5.524 -10.285  19.234  0.00  0.00    -0.166 F 
ATOM      2  F   UNL     1      -5.135 -12.068  18.052  0.00  0.00    -0.166 F 
ATOM      3  F   UNL     1      -4.139 -10.205  17.559  0.00  0.00    -0.166 F 
ATOM     31  C   UNL     1      -5.341 -10.721  17.953  0.00  0.00    +0.417 C 
ENDBRANCH  27  31
ENDBRANCH   9  23
ENDBRANCH  13   8
BRANCH  15   5
ATOM      5  O   UNL     1      -7.639 -11.350   8.453  0.00  0.00    -0.388 OA
ATOM     38  H   UNL     1      -7.481 -11.596   9.381  0.00  0.00    +0.210 HD
ENDBRANCH  15   5
BRANCH  14  19
ATOM     19  C   UNL     1      -4.460 -10.809   8.792  0.00  0.00    +0.137 C 
BRANCH  19  10
ATOM      7  O   UNL     1      -3.698 -13.090  10.362  0.00  0.00    -0.270 OA
ATOM     10  N   UNL     1      -3.916 -10.792  10.116  0.00  0.00    -0.309 N 
ATOM     24  C   UNL     1      -3.572 -11.952  10.808  0.00  0.00    +0.244 C 
ATOM     39  H   UNL     1      -3.854  -9.888  10.570  0.00  0.00    +0.149 HD
BRANCH  24  28
ATOM     11  N   UNL     1      -1.080  -9.537  14.415  0.00  0.00    -0.344 N 
ATOM     12  N   UNL     1      -1.489 -11.071  15.969  0.00  0.00    -0.236 NA
ATOM     28  C   UNL     1      -3.046 -11.766  12.185  0.00  0.00    +0.039 A 
ATOM     32  C   UNL     1      -2.296 -10.622  12.481  0.00  0.00    +0.040 A 
ATOM     33  C   UNL     1      -3.306 -12.735  13.157  0.00  0.00    +0.015 A 
ATOM     34  C   UNL     1      -1.827 -10.501  13.789  0.00  0.00    +0.067 A 
ATOM     35  C   UNL     1      -2.824 -12.591  14.464  0.00  0.00    +0.030 A 
ATOM     36  C   UNL     1      -2.070 -11.448  14.779  0.00  0.00    +0.089 A 
ATOM     37  C   UNL     1      -0.905  -9.922  15.714  0.00  0.00    +0.197 A 
ATOM     41  H   UNL     1      -0.723  -8.690  13.991  0.00  0.00    +0.167 HD
ENDBRANCH  24  28
ENDBRANCH  19  10
ENDBRANCH  14  19
BRANCH  16  22
ATOM     22  C   UNL     1      -7.540 -10.305   5.830  0.00  0.00    +0.190 C 
BRANCH  22   6
ATOM      6  O   UNL     1      -6.591 -11.327   5.570  0.00  0.00    -0.392 OA
ATOM     40  H   UNL     1      -7.076 -12.078   5.185  0.00  0.00    +0.210 HD
ENDBRANCH  22   6
ENDBRANCH  16  22
TORSDOF 9
ENDMDL
MODEL 9
REMARK VINA RESULT:      -7.1      5.154      9.000
REMARK  Name = 51136980
REMARK  9 active torsions:
REMARK  status: ('A' for Active; 'I' for Inactive)
REMARK    1  A    between atoms: O_5  and  C_15
REMARK    2  A    between atoms: O_6  and  C_22
REMARK    3  A    between atoms: N_8  and  C_13
REMARK    4  A    between atoms: N_9  and  C_23
REMARK    5  A    between atoms: N_10  and  C_19
REMARK    6  A    between atoms: C_14  and  C_19
REMARK    7  A    between atoms: C_16  and  C_22
REMARK    8  A    between atoms: C_24  and  C_28
REMARK    9  A    between atoms: C_27  and  C_31
REMARK                            x       y       z     vdW  Elec       q    Type
REMARK                         _______ _______ _______ _____ _____    ______ ____
ROOT
ATOM      4  O   UNL     1      -7.862 -11.168  19.857  0.00  0.00    -0.365 OA
ATOM     13  C   UNL     1      -6.359 -11.557  18.052  0.00  0.00    +0.118 C 
ATOM     14  C   UNL     1      -7.241 -10.503  18.734  0.00  0.00    +0.155 C 
ATOM     15  C   UNL     1      -7.036 -12.866  18.429  0.00  0.00    +0.165 C 
ATOM     16  C   UNL     1      -7.475 -12.555  19.855  0.00  0.00    +0.174 C 
ENDROOT
BRANCH  13   8
ATOM      8  N   UNL     1      -6.118 -11.371  16.632  0.00  0.00    -0.292 NA
ATOM      9  N   UNL     1      -4.583 -10.730  14.311  0.00  0.00    -0.327 N 
ATOM     17  C   UNL     1      -5.061 -12.277  16.166  0.00  0.00    +0.104 C 
ATOM     18  C   UNL     1      -5.742  -9.979  16.352  0.00  0.00    +0.104 C 
ATOM     20  C   UNL     1      -4.836 -12.131  14.659  0.00  0.00    +0.120 C 
ATOM     21  C   UNL     1      -5.540  -9.757  14.850  0.00  0.00    +0.120 C 
BRANCH   9  23
ATOM     23  C   UNL     1      -3.939 -10.420  13.107  0.00  0.00    +0.030 A 
ATOM     25  C   UNL     1      -4.663  -9.867  12.050  0.00  0.00    +0.035 A 
ATOM     26  C   UNL     1      -2.573 -10.663  12.964  0.00  0.00    +0.023 A 
ATOM     27  C   UNL     1      -4.022  -9.559  10.851  0.00  0.00    +0.057 A 
ATOM     29  C   UNL     1      -1.931 -10.354  11.764  0.00  0.00    +0.002 A 
ATOM     30  C   UNL     1      -2.656  -9.803  10.708  0.00  0.00    +0.012 A 
BRANCH  27  31
ATOM      1  F   UNL     1      -5.286  -7.728  10.012  0.00  0.00    -0.166 F 
ATOM      2  F   UNL     1      -4.064  -8.812   8.578  0.00  0.00    -0.166 F 
ATOM      3  F   UNL     1      -5.879  -9.713   9.351  0.00  0.00    -0.166 F 
ATOM     31  C   UNL     1      -4.796  -8.968   9.721  0.00  0.00    +0.417 C 
ENDBRANCH  27  31
ENDBRANCH   9  23
ENDBRANCH  13   8
BRANCH  15   5
ATOM      5  O   UNL     1      -8.168 -13.122  17.608  0.00  0.00    -0.388 OA
ATOM     38  H   UNL     1      -8.854 -12.473  17.841  0.00  0.00    +0.210 HD
ENDBRANCH  15   5
BRANCH  14  19
ATOM     19  C   UNL     1      -8.358  -9.898  17.892  0.00  0.00    +0.137 C 
BRANCH  19  10
ATOM      7  O   UNL     1     -10.753  -8.351  17.541  0.00  0.00    -0.270 OA
ATOM     10  N   UNL     1      -9.641 -10.165  18.469  0.00  0.00    -0.309 N 
ATOM     24  C   UNL     1     -10.755  -9.358  18.245  0.00  0.00    +0.244 C 
ATOM     39  H   UNL     1      -9.694 -10.941  19.119  0.00  0.00    +0.149 HD
BRANCH  24  28
ATOM     11  N   UNL     1     -13.422 -11.428  21.940  0.00  0.00    -0.344 N 
ATOM     12  N   UNL     1     -15.390 -10.949  21.025  0.00  0.00    -0.236 NA
ATOM     28  C   UNL     1     -12.007  -9.755  18.939  0.00  0.00    +0.039 A 
ATOM     32  C   UNL     1     -11.925 -10.429  20.162  0.00  0.00    +0.040 A 
ATOM     33  C   UNL     1     -13.240  -9.452  18.358  0.00  0.00    +0.015 A 
ATOM     34  C   UNL     1     -13.133 -10.778  20.768  0.00  0.00    +0.067 A 
ATOM     35  C   UNL     1     -14.440  -9.813  18.985  0.00  0.00    +0.030 A 
ATOM     36  C   UNL     1     -14.377 -10.489  20.215  0.00  0.00    +0.089 A 
ATOM     37  C   UNL     1     -14.783 -11.505  22.049  0.00  0.00    +0.197 A 
ATOM     41  H   UNL     1     -12.750 -11.785  22.606  0.00  0.00    +0.167 HD
ENDBRANCH  24  28
ENDBRANCH  19  10
ENDBRANCH  14  19
BRANCH  16  22
ATOM     22  C   UNL     1      -8.621 -13.396  20.384  0.00  0.00    +0.190 C 
BRANCH  22   6
ATOM      6  O   UNL     1      -9.837 -12.910  19.838  0.00  0.00    -0.392 OA
ATOM     40  H   UNL     1      -9.617 -12.138  19.288  0.00  0.00    +0.210 HD
ENDBRANCH  22   6
ENDBRANCH  16  22
TORSDOF 9
ENDMDL
MODEL 10
REMARK VINA RESULT:      -7.1      4.672     10.331
REMARK  Name = 51136980
REMARK  9 active torsions:
REMARK  status: ('A' for Active; 'I' for Inactive)
REMARK    1  A    between atoms: O_5  and  C_15
REMARK    2  A    between atoms: O_6  and  C_22
REMARK    3  A    between atoms: N_8  and  C_13
REMARK    4  A    between atoms: N_9  and  C_23
REMARK    5  A    between atoms: N_10  and  C_19
REMARK    6  A    between atoms: C_14  and  C_19
REMARK    7  A    between atoms: C_16  and  C_22
REMARK    8  A    between atoms: C_24  and  C_28
REMARK    9  A    between atoms: C_27  and  C_31
REMARK                            x       y       z     vdW  Elec       q    Type
REMARK                         _______ _______ _______ _____ _____    ______ ____
ROOT
ATOM      4  O   UNL     1     -13.778  -6.214  15.639  0.00  0.00    -0.365 OA
ATOM     13  C   UNL     1     -12.326  -7.895  16.495  0.00  0.00    +0.118 C 
ATOM     14  C   UNL     1     -12.424  -6.415  16.104  0.00  0.00    +0.155 C 
ATOM     15  C   UNL     1     -13.393  -8.550  15.632  0.00  0.00    +0.165 C 
ATOM     16  C   UNL     1     -14.473  -7.475  15.657  0.00  0.00    +0.174 C 
ENDROOT
BRANCH  13   8
ATOM      8  N   UNL     1     -11.006  -8.495  16.411  0.00  0.00    -0.292 NA
ATOM      9  N   UNL     1      -8.626  -9.713  17.417  0.00  0.00    -0.327 N 
ATOM     17  C   UNL     1     -11.033  -9.873  16.918  0.00  0.00    +0.104 C 
ATOM     18  C   UNL     1     -10.030  -7.703  17.171  0.00  0.00    +0.104 C 
ATOM     20  C   UNL     1      -9.660 -10.536  16.782  0.00  0.00    +0.120 C 
ATOM     21  C   UNL     1      -8.624  -8.294  17.042  0.00  0.00    +0.120 C 
BRANCH   9  23
ATOM     23  C   UNL     1      -7.410 -10.295  17.794  0.00  0.00    +0.030 A 
ATOM     25  C   UNL     1      -6.358 -10.366  16.881  0.00  0.00    +0.035 A 
ATOM     26  C   UNL     1      -7.251 -10.805  19.082  0.00  0.00    +0.023 A 
ATOM     27  C   UNL     1      -5.147 -10.947  17.256  0.00  0.00    +0.057 A 
ATOM     29  C   UNL     1      -6.039 -11.385  19.458  0.00  0.00    +0.002 A 
ATOM     30  C   UNL     1      -4.988 -11.457  18.545  0.00  0.00    +0.012 A 
BRANCH  27  31
ATOM      1  F   UNL     1      -3.743 -12.302  15.896  0.00  0.00    -0.166 F 
ATOM      2  F   UNL     1      -4.255 -10.336  15.121  0.00  0.00    -0.166 F 
ATOM      3  F   UNL     1      -2.846 -10.519  16.760  0.00  0.00    -0.166 F 
ATOM     31  C   UNL     1      -4.021 -11.022  16.280  0.00  0.00    +0.417 C 
ENDBRANCH  27  31
ENDBRANCH   9  23
ENDBRANCH  13   8
BRANCH  15   5
ATOM      5  O   UNL     1     -12.932  -8.758  14.303  0.00  0.00    -0.388 OA
ATOM     38  H   UNL     1     -13.490  -9.447  13.903  0.00  0.00    +0.210 HD
ENDBRANCH  15   5
BRANCH  14  19
ATOM     19  C   UNL     1     -11.491  -5.938  14.996  0.00  0.00    +0.137 C 
BRANCH  19  10
ATOM      7  O   UNL     1     -12.332  -6.755  12.375  0.00  0.00    -0.270 OA
ATOM     10  N   UNL     1     -12.195  -5.141  14.037  0.00  0.00    -0.309 N 
ATOM     24  C   UNL     1     -12.566  -5.620  12.782  0.00  0.00    +0.244 C 
ATOM     39  H   UNL     1     -12.355  -4.170  14.282  0.00  0.00    +0.149 HD
BRANCH  24  28
ATOM     11  N   UNL     1     -13.463  -3.297   8.440  0.00  0.00    -0.344 N 
ATOM     12  N   UNL     1     -15.103  -2.036   9.251  0.00  0.00    -0.236 NA
ATOM     28  C   UNL     1     -13.267  -4.660  11.892  0.00  0.00    +0.039 A 
ATOM     32  C   UNL     1     -12.880  -4.565  10.550  0.00  0.00    +0.040 A 
ATOM     33  C   UNL     1     -14.296  -3.869  12.408  0.00  0.00    +0.015 A 
ATOM     34  C   UNL     1     -13.573  -3.645   9.761  0.00  0.00    +0.067 A 
ATOM     35  C   UNL     1     -14.978  -2.953  11.596  0.00  0.00    +0.030 A 
ATOM     36  C   UNL     1     -14.603  -2.845  10.247  0.00  0.00    +0.089 A 
ATOM     37  C   UNL     1     -14.397  -2.333   8.184  0.00  0.00    +0.197 A 
ATOM     41  H   UNL     1     -12.808  -3.685   7.773  0.00  0.00    +0.167 HD
ENDBRANCH  24  28
ENDBRANCH  19  10
ENDBRANCH  14  19
BRANCH  16  22
ATOM     22  C   UNL     1     -15.464  -7.518  14.509  0.00  0.00    +0.190 C 
BRANCH  22   6
ATOM      6  O   UNL     1     -16.070  -6.242  14.378  0.00  0.00    -0.392 OA
ATOM     40  H   UNL     1     -16.116  -6.042  13.428  0.00  0.00    +0.210 HD
ENDBRANCH  22   6
ENDBRANCH  16  22
TORSDOF 9
ENDMDL
