REMARK  Name = 28959376
REMARK  7 active torsions:
REMARK  status: ('A' for Active; 'I' for Inactive)
REMARK    1  A    between atoms: N_5  and  C_15
REMARK    2  A    between atoms: C_9  and  C_16
REMARK    3  A    between atoms: C_10  and  C_15
REMARK    4  A    between atoms: C_18  and  C_22
REMARK    5  A    between atoms: C_19  and  C_21
REMARK    6  A    between atoms: C_20  and  C_23
REMARK    7  A    between atoms: C_21  and  C_24
REMARK                            x       y       z     vdW  Elec       q    Type
REMARK                         _______ _______ _______ _____ _____    ______ ____
ROOT
ATOM      4  N   UNL     1      -0.649   2.773  -0.076  0.00  0.00    -0.297 NA
ATOM      8  C   UNL     1      -0.271   1.118   1.899  0.00  0.00    +0.002 C 
ATOM      9  C   UNL     1       1.078   1.454   1.205  0.00  0.00    +0.055 C 
ATOM     10  C   UNL     1      -1.595   1.631  -0.182  0.00  0.00    +0.074 C 
ATOM     11  C   UNL     1      -1.250   0.540   0.855  0.00  0.00    +0.024 C 
ATOM     12  C   UNL     1      -0.866   2.456   2.388  0.00  0.00    +0.019 C 
ATOM     13  C   UNL     1       0.749   2.276  -0.074  0.00  0.00    +0.094 C 
ATOM     14  C   UNL     1      -0.901   3.453   1.217  0.00  0.00    +0.085 C 
ENDROOT
BRANCH   9  16
ATOM      6  N   UNL     1       1.651  -0.922   1.294  0.00  0.00    -0.237 NA
ATOM      7  N   UNL     1       3.743  -1.770   0.450  0.00  0.00    -0.229 NA
ATOM     16  C   UNL     1       2.047   0.314   0.926  0.00  0.00    +0.050 A 
ATOM     17  C   UNL     1       3.259   0.584   0.323  0.00  0.00    +0.055 A 
ATOM     18  C   UNL     1       4.075  -0.508   0.108  0.00  0.00    +0.110 A 
ATOM     20  C   UNL     1       2.535  -1.903   1.030  0.00  0.00    +0.127 A 
ATOM     23  C   UNL     1       2.133  -3.285   1.422  0.00  0.00    +0.088 C 
BRANCH  18  22
ATOM      3  O   UNL     1       6.066  -1.525  -0.662  0.00  0.00    -0.461 OA
ATOM     22  C   UNL     1       5.367  -0.370  -0.510  0.00  0.00    +0.153 A 
ATOM     25  C   UNL     1       6.083   0.697  -1.000  0.00  0.00    +0.051 A 
ATOM     26  C   UNL     1       7.301   0.163  -1.484  0.00  0.00    +0.042 A 
ATOM     27  C   UNL     1       7.242  -1.192  -1.255  0.00  0.00    +0.196 A 
ENDBRANCH  18  22
ENDBRANCH   9  16
BRANCH  10  15
ATOM     15  C   UNL     1      -1.669   1.064  -1.602  0.00  0.00    +0.123 C 
BRANCH  15   5
ATOM      2  O   UNL     1      -4.444   1.432  -2.268  0.00  0.00    -0.275 OA
ATOM      5  N   UNL     1      -2.670   0.046  -1.694  0.00  0.00    -0.314 N 
ATOM     19  C   UNL     1      -3.998   0.313  -2.025  0.00  0.00    +0.218 C 
ATOM     31  H   UNL     1      -2.392  -0.911  -1.496  0.00  0.00    +0.149 HD
BRANCH  19  21
ATOM     21  C   UNL     1      -4.840  -0.948  -2.057  0.00  0.00    +0.138 C 
BRANCH  21  24
ATOM      1  S   UNL     1      -5.206  -2.742   0.037  0.00  0.00    -0.101 S 
ATOM     24  C   UNL     1      -5.513  -1.249  -0.744  0.00  0.00    -0.001 A 
ATOM     28  C   UNL     1      -6.391  -0.464  -0.030  0.00  0.00    +0.011 A 
ATOM     29  C   UNL     1      -6.817  -1.095   1.174  0.00  0.00    +0.008 A 
ATOM     30  C   UNL     1      -6.249  -2.340   1.335  0.00  0.00    +0.045 A 
ENDBRANCH  21  24
ENDBRANCH  19  21
ENDBRANCH  15   5
ENDBRANCH  10  15
TORSDOF 6
