MODEL 1
REMARK VINA RESULT:      -6.7      0.000      0.000
REMARK  Name = 45783279
REMARK  8 active torsions:
REMARK  status: ('A' for Active; 'I' for Inactive)
REMARK    1  A    between atoms: O_2  and  C_27
REMARK    2  A    between atoms: O_2  and  C_28
REMARK    3  A    between atoms: N_3  and  C_13
REMARK    4  A    between atoms: N_7  and  C_26
REMARK    5  A    between atoms: C_9  and  C_14
REMARK    6  A    between atoms: C_13  and  C_15
REMARK    7  A    between atoms: C_16  and  C_19
REMARK    8  A    between atoms: C_26  and  C_27
REMARK                            x       y       z     vdW  Elec       q    Type
REMARK                         _______ _______ _______ _____ _____    ______ ____
ROOT
ATOM      1  O   UNL     1      -4.385 -13.200  15.342  0.00  0.00    -0.336 OA
ATOM      4  N   UNL     1      -4.479 -11.309  16.540  0.00  0.00    -0.190 NA
ATOM      5  N   UNL     1      -5.535 -13.299  16.136  0.00  0.00    -0.056 NA
ATOM     14  C   UNL     1      -3.823 -11.999  15.641  0.00  0.00    +0.245 A 
ATOM     16  C   UNL     1      -5.521 -12.147  16.813  0.00  0.00    +0.202 A 
ENDROOT
BRANCH  16  19
ATOM      7  N   UNL     1      -9.161  -9.304  18.264  0.00  0.00    -0.327 N 
ATOM      8  N   UNL     1      -8.505 -11.138  19.637  0.00  0.00    -0.240 NA
ATOM     19  C   UNL     1      -6.531 -11.804  17.772  0.00  0.00    +0.027 A 
ATOM     22  C   UNL     1      -7.362 -10.711  17.550  0.00  0.00    +0.055 A 
ATOM     23  C   UNL     1      -6.687 -12.565  18.925  0.00  0.00    +0.031 A 
ATOM     24  C   UNL     1      -8.324 -10.422  18.504  0.00  0.00    +0.119 A 
ATOM     25  C   UNL     1      -7.679 -12.193  19.818  0.00  0.00    +0.113 A 
ATOM     29  H   UNL     1      -9.863  -9.106  18.968  0.00  0.00    +0.148 HD
BRANCH   7  26
ATOM     26  C   UNL     1      -9.043  -8.490  17.098  0.00  0.00    +0.131 C 
BRANCH  26  27
ATOM     27  C   UNL     1     -10.360  -7.784  16.823  0.00  0.00    +0.178 C 
BRANCH  27   2
ATOM      2  O   UNL     1     -10.125  -6.651  15.996  0.00  0.00    -0.381 OA
ATOM     28  C   UNL     1     -11.343  -6.031  15.603  0.00  0.00    +0.194 C 
ENDBRANCH  27   2
ENDBRANCH  26  27
ENDBRANCH   7  26
ENDBRANCH  16  19
BRANCH  14   9
ATOM      3  N   UNL     1      -2.769 -10.661  13.826  0.00  0.00    -0.287 NA
ATOM      9  C   UNL     1      -2.549 -11.648  14.902  0.00  0.00    +0.146 C 
ATOM     10  C   UNL     1      -1.491 -11.000  15.816  0.00  0.00    +0.030 C 
ATOM     11  C   UNL     1      -1.136  -9.683  15.141  0.00  0.00    +0.017 C 
ATOM     12  C   UNL     1      -1.523  -9.909  13.693  0.00  0.00    +0.085 C 
BRANCH   3  13
ATOM     13  C   UNL     1      -3.182 -11.267  12.567  0.00  0.00    +0.121 C 
BRANCH  13  15
ATOM      6  N   UNL     1      -5.638  -8.751  11.164  0.00  0.00    -0.263 NA
ATOM     15  C   UNL     1      -3.811 -10.262  11.640  0.00  0.00    -0.015 A 
ATOM     17  C   UNL     1      -3.201  -9.911  10.441  0.00  0.00    +0.008 A 
ATOM     18  C   UNL     1      -5.019  -9.658  11.953  0.00  0.00    +0.115 A 
ATOM     20  C   UNL     1      -3.807  -8.981   9.604  0.00  0.00    +0.020 A 
ATOM     21  C   UNL     1      -5.014  -8.435  10.007  0.00  0.00    +0.111 A 
ENDBRANCH  13  15
ENDBRANCH   3  13
ENDBRANCH  14   9
TORSDOF 7
ENDMDL
MODEL 2
REMARK VINA RESULT:      -6.2      2.005      2.722
REMARK  Name = 45783279
REMARK  8 active torsions:
REMARK  status: ('A' for Active; 'I' for Inactive)
REMARK    1  A    between atoms: O_2  and  C_27
REMARK    2  A    between atoms: O_2  and  C_28
REMARK    3  A    between atoms: N_3  and  C_13
REMARK    4  A    between atoms: N_7  and  C_26
REMARK    5  A    between atoms: C_9  and  C_14
REMARK    6  A    between atoms: C_13  and  C_15
REMARK    7  A    between atoms: C_16  and  C_19
REMARK    8  A    between atoms: C_26  and  C_27
REMARK                            x       y       z     vdW  Elec       q    Type
REMARK                         _______ _______ _______ _____ _____    ______ ____
ROOT
ATOM      1  O   UNL     1      -1.964 -10.647  14.923  0.00  0.00    -0.336 OA
ATOM      4  N   UNL     1      -4.167 -11.041  14.820  0.00  0.00    -0.190 NA
ATOM      5  N   UNL     1      -2.438 -10.558  16.239  0.00  0.00    -0.056 NA
ATOM     14  C   UNL     1      -3.046 -10.935  14.152  0.00  0.00    +0.245 A 
ATOM     16  C   UNL     1      -3.744 -10.802  16.095  0.00  0.00    +0.202 A 
ENDROOT
BRANCH  16  19
ATOM      7  N   UNL     1      -7.981  -9.562  18.083  0.00  0.00    -0.327 N 
ATOM      8  N   UNL     1      -6.428 -10.836  19.365  0.00  0.00    -0.240 NA
ATOM     19  C   UNL     1      -4.653 -10.812  17.204  0.00  0.00    +0.027 A 
ATOM     22  C   UNL     1      -5.886 -10.176  17.103  0.00  0.00    +0.055 A 
ATOM     23  C   UNL     1      -4.307 -11.460  18.385  0.00  0.00    +0.031 A 
ATOM     24  C   UNL     1      -6.729 -10.216  18.201  0.00  0.00    +0.119 A 
ATOM     25  C   UNL     1      -5.221 -11.442  19.426  0.00  0.00    +0.113 A 
ATOM     29  H   UNL     1      -8.589  -9.602  18.892  0.00  0.00    +0.148 HD
BRANCH   7  26
ATOM     26  C   UNL     1      -8.384  -8.882  16.895  0.00  0.00    +0.131 C 
BRANCH  26  27
ATOM     27  C   UNL     1      -9.655  -8.091  17.156  0.00  0.00    +0.178 C 
BRANCH  27   2
ATOM      2  O   UNL     1      -9.918  -7.239  16.049  0.00  0.00    -0.381 OA
ATOM     28  C   UNL     1     -10.997  -6.354  16.317  0.00  0.00    +0.194 C 
ENDBRANCH  27   2
ENDBRANCH  26  27
ENDBRANCH   7  26
ENDBRANCH  16  19
BRANCH  14   9
ATOM      3  N   UNL     1      -3.914 -10.582  11.846  0.00  0.00    -0.287 NA
ATOM      9  C   UNL     1      -2.794 -11.086  12.666  0.00  0.00    +0.146 C 
ATOM     10  C   UNL     1      -1.567 -10.287  12.187  0.00  0.00    +0.030 C 
ATOM     11  C   UNL     1      -2.084  -9.406  11.058  0.00  0.00    +0.017 C 
ATOM     12  C   UNL     1      -3.331 -10.127  10.585  0.00  0.00    +0.085 C 
BRANCH   3  13
ATOM     13  C   UNL     1      -4.964 -11.571  11.640  0.00  0.00    +0.121 C 
BRANCH  13  15
ATOM      6  N   UNL     1      -8.179  -9.730  12.422  0.00  0.00    -0.263 NA
ATOM     15  C   UNL     1      -6.312 -10.926  11.457  0.00  0.00    -0.015 A 
ATOM     17  C   UNL     1      -6.941 -10.919  10.216  0.00  0.00    +0.008 A 
ATOM     18  C   UNL     1      -6.968 -10.323  12.519  0.00  0.00    +0.115 A 
ATOM     20  C   UNL     1      -8.187 -10.318  10.077  0.00  0.00    +0.020 A 
ATOM     21  C   UNL     1      -8.758  -9.742  11.200  0.00  0.00    +0.111 A 
ENDBRANCH  13  15
ENDBRANCH   3  13
ENDBRANCH  14   9
TORSDOF 7
ENDMDL
MODEL 3
REMARK VINA RESULT:      -6.1     22.926     26.495
REMARK  Name = 45783279
REMARK  8 active torsions:
REMARK  status: ('A' for Active; 'I' for Inactive)
REMARK    1  A    between atoms: O_2  and  C_27
REMARK    2  A    between atoms: O_2  and  C_28
REMARK    3  A    between atoms: N_3  and  C_13
REMARK    4  A    between atoms: N_7  and  C_26
REMARK    5  A    between atoms: C_9  and  C_14
REMARK    6  A    between atoms: C_13  and  C_15
REMARK    7  A    between atoms: C_16  and  C_19
REMARK    8  A    between atoms: C_26  and  C_27
REMARK                            x       y       z     vdW  Elec       q    Type
REMARK                         _______ _______ _______ _____ _____    ______ ____
ROOT
ATOM      1  O   UNL     1      11.956   2.887   2.195  0.00  0.00    -0.336 OA
ATOM      4  N   UNL     1      12.249   5.093   1.938  0.00  0.00    -0.190 NA
ATOM      5  N   UNL     1      11.039   3.505   3.055  0.00  0.00    -0.056 NA
ATOM     14  C   UNL     1      12.628   3.893   1.576  0.00  0.00    +0.245 A 
ATOM     16  C   UNL     1      11.273   4.804   2.846  0.00  0.00    +0.202 A 
ENDROOT
BRANCH  16  19
ATOM      7  N   UNL     1       9.973   7.034   6.942  0.00  0.00    -0.327 N 
ATOM      8  N   UNL     1       9.145   7.853   4.864  0.00  0.00    -0.240 NA
ATOM     19  C   UNL     1      10.550   5.837   3.530  0.00  0.00    +0.027 A 
ATOM     22  C   UNL     1      10.614   5.933   4.916  0.00  0.00    +0.055 A 
ATOM     23  C   UNL     1       9.785   6.748   2.810  0.00  0.00    +0.031 A 
ATOM     24  C   UNL     1       9.900   6.949   5.529  0.00  0.00    +0.119 A 
ATOM     25  C   UNL     1       9.107   7.727   3.518  0.00  0.00    +0.113 A 
ATOM     29  H   UNL     1       9.449   7.784   7.378  0.00  0.00    +0.148 HD
BRANCH   7  26
ATOM     26  C   UNL     1      10.742   6.125   7.728  0.00  0.00    +0.131 C 
BRANCH  26  27
ATOM     27  C   UNL     1       9.857   4.999   8.235  0.00  0.00    +0.178 C 
BRANCH  27   2
ATOM      2  O   UNL     1       9.009   5.490   9.265  0.00  0.00    -0.381 OA
ATOM     28  C   UNL     1       8.922   4.575  10.349  0.00  0.00    +0.194 C 
ENDBRANCH  27   2
ENDBRANCH  26  27
ENDBRANCH   7  26
ENDBRANCH  16  19
BRANCH  14   9
ATOM      3  N   UNL     1      13.417   3.979  -0.783  0.00  0.00    -0.287 NA
ATOM      9  C   UNL     1      13.692   3.482   0.580  0.00  0.00    +0.146 C 
ATOM     10  C   UNL     1      15.083   4.045   0.928  0.00  0.00    +0.030 C 
ATOM     11  C   UNL     1      15.532   4.792  -0.319  0.00  0.00    +0.017 C 
ATOM     12  C   UNL     1      14.717   4.158  -1.428  0.00  0.00    +0.085 C 
BRANCH   3  13
ATOM     13  C   UNL     1      12.541   3.101  -1.548  0.00  0.00    +0.121 C 
BRANCH  13  15
ATOM      6  N   UNL     1       9.627   4.167  -3.718  0.00  0.00    -0.263 NA
ATOM     15  C   UNL     1      11.293   3.811  -2.003  0.00  0.00    -0.015 A 
ATOM     17  C   UNL     1      10.658   4.739  -1.185  0.00  0.00    +0.008 A 
ATOM     18  C   UNL     1      10.743   3.563  -3.250  0.00  0.00    +0.115 A 
ATOM     20  C   UNL     1       9.508   5.381  -1.632  0.00  0.00    +0.020 A 
ATOM     21  C   UNL     1       9.037   5.062  -2.895  0.00  0.00    +0.111 A 
ENDBRANCH  13  15
ENDBRANCH   3  13
ENDBRANCH  14   9
TORSDOF 7
ENDMDL
MODEL 4
REMARK VINA RESULT:      -6.1     26.549     29.811
REMARK  Name = 45783279
REMARK  8 active torsions:
REMARK  status: ('A' for Active; 'I' for Inactive)
REMARK    1  A    between atoms: O_2  and  C_27
REMARK    2  A    between atoms: O_2  and  C_28
REMARK    3  A    between atoms: N_3  and  C_13
REMARK    4  A    between atoms: N_7  and  C_26
REMARK    5  A    between atoms: C_9  and  C_14
REMARK    6  A    between atoms: C_13  and  C_15
REMARK    7  A    between atoms: C_16  and  C_19
REMARK    8  A    between atoms: C_26  and  C_27
REMARK                            x       y       z     vdW  Elec       q    Type
REMARK                         _______ _______ _______ _____ _____    ______ ____
ROOT
ATOM      1  O   UNL     1      12.627   7.827  17.111  0.00  0.00    -0.336 OA
ATOM      4  N   UNL     1      13.639   9.513  18.185  0.00  0.00    -0.190 NA
ATOM      5  N   UNL     1      13.300   8.566  16.130  0.00  0.00    -0.056 NA
ATOM     14  C   UNL     1      12.879   8.452  18.291  0.00  0.00    +0.245 A 
ATOM     16  C   UNL     1      13.872   9.542  16.841  0.00  0.00    +0.202 A 
ENDROOT
BRANCH  16  19
ATOM      7  N   UNL     1      15.965  13.905  17.008  0.00  0.00    -0.327 N 
ATOM      8  N   UNL     1      16.260  12.551  15.069  0.00  0.00    -0.240 NA
ATOM     19  C   UNL     1      14.680  10.563  16.240  0.00  0.00    +0.027 A 
ATOM     22  C   UNL     1      14.931  11.748  16.923  0.00  0.00    +0.055 A 
ATOM     23  C   UNL     1      15.219  10.371  14.972  0.00  0.00    +0.031 A 
ATOM     24  C   UNL     1      15.719  12.702  16.300  0.00  0.00    +0.119 A 
ATOM     25  C   UNL     1      15.994  11.387  14.436  0.00  0.00    +0.113 A 
ATOM     29  H   UNL     1      16.545  14.593  16.542  0.00  0.00    +0.148 HD
BRANCH   7  26
ATOM     26  C   UNL     1      15.436  14.153  18.309  0.00  0.00    +0.131 C 
BRANCH  26  27
ATOM     27  C   UNL     1      16.553  14.120  19.339  0.00  0.00    +0.178 C 
BRANCH  27   2
ATOM      2  O   UNL     1      16.556  12.857  19.993  0.00  0.00    -0.381 OA
ATOM     28  C   UNL     1      17.735  12.120  19.696  0.00  0.00    +0.194 C 
ENDBRANCH  27   2
ENDBRANCH  26  27
ENDBRANCH   7  26
ENDBRANCH  16  19
BRANCH  14   9
ATOM      3  N   UNL     1      13.120   7.949  20.717  0.00  0.00    -0.287 NA
ATOM      9  C   UNL     1      12.254   7.837  19.527  0.00  0.00    +0.146 C 
ATOM     10  C   UNL     1      10.938   8.528  19.934  0.00  0.00    +0.030 C 
ATOM     11  C   UNL     1      11.139   8.940  21.385  0.00  0.00    +0.017 C 
ATOM     12  C   UNL     1      12.228   8.005  21.874  0.00  0.00    +0.085 C 
BRANCH   3  13
ATOM     13  C   UNL     1      14.090   6.867  20.825  0.00  0.00    +0.121 C 
BRANCH  13  15
ATOM      6  N   UNL     1      16.944   9.210  21.663  0.00  0.00    -0.263 NA
ATOM     15  C   UNL     1      15.489   7.386  21.029  0.00  0.00    -0.015 A 
ATOM     17  C   UNL     1      16.595   6.579  20.788  0.00  0.00    +0.008 A 
ATOM     18  C   UNL     1      15.715   8.683  21.461  0.00  0.00    +0.115 A 
ATOM     20  C   UNL     1      17.875   7.085  20.983  0.00  0.00    +0.020 A 
ATOM     21  C   UNL     1      17.995   8.395  21.418  0.00  0.00    +0.111 A 
ENDBRANCH  13  15
ENDBRANCH   3  13
ENDBRANCH  14   9
TORSDOF 7
ENDMDL
MODEL 5
REMARK VINA RESULT:      -6.1      2.007      2.550
REMARK  Name = 45783279
REMARK  8 active torsions:
REMARK  status: ('A' for Active; 'I' for Inactive)
REMARK    1  A    between atoms: O_2  and  C_27
REMARK    2  A    between atoms: O_2  and  C_28
REMARK    3  A    between atoms: N_3  and  C_13
REMARK    4  A    between atoms: N_7  and  C_26
REMARK    5  A    between atoms: C_9  and  C_14
REMARK    6  A    between atoms: C_13  and  C_15
REMARK    7  A    between atoms: C_16  and  C_19
REMARK    8  A    between atoms: C_26  and  C_27
REMARK                            x       y       z     vdW  Elec       q    Type
REMARK                         _______ _______ _______ _____ _____    ______ ____
ROOT
ATOM      1  O   UNL     1      -2.986 -12.143  14.998  0.00  0.00    -0.336 OA
ATOM      4  N   UNL     1      -4.712 -13.203  15.957  0.00  0.00    -0.190 NA
ATOM      5  N   UNL     1      -3.442 -11.300  16.020  0.00  0.00    -0.056 NA
ATOM     14  C   UNL     1      -3.788 -13.240  15.030  0.00  0.00    +0.245 A 
ATOM     16  C   UNL     1      -4.460 -11.994  16.538  0.00  0.00    +0.202 A 
ENDROOT
BRANCH  16  19
ATOM      7  N   UNL     1      -8.108  -9.307  18.244  0.00  0.00    -0.327 N 
ATOM      8  N   UNL     1      -6.780 -10.562  19.772  0.00  0.00    -0.240 NA
ATOM     19  C   UNL     1      -5.245 -11.508  17.635  0.00  0.00    +0.027 A 
ATOM     22  C   UNL     1      -6.304 -10.636  17.404  0.00  0.00    +0.055 A 
ATOM     23  C   UNL     1      -4.954 -11.908  18.935  0.00  0.00    +0.031 A 
ATOM     24  C   UNL     1      -7.033 -10.196  18.495  0.00  0.00    +0.119 A 
ATOM     25  C   UNL     1      -5.743 -11.410  19.958  0.00  0.00    +0.113 A 
ATOM     29  H   UNL     1      -8.635  -8.995  19.051  0.00  0.00    +0.148 HD
BRANCH   7  26
ATOM     26  C   UNL     1      -8.448  -8.864  16.931  0.00  0.00    +0.131 C 
BRANCH  26  27
ATOM     27  C   UNL     1      -9.696  -7.998  16.982  0.00  0.00    +0.178 C 
BRANCH  27   2
ATOM      2  O   UNL     1      -9.884  -7.365  15.722  0.00  0.00    -0.381 OA
ATOM     28  C   UNL     1     -11.182  -7.616  15.202  0.00  0.00    +0.194 C 
ENDBRANCH  27   2
ENDBRANCH  26  27
ENDBRANCH   7  26
ENDBRANCH  16  19
BRANCH  14   9
ATOM      3  N   UNL     1      -2.855 -13.788  12.788  0.00  0.00    -0.287 NA
ATOM      9  C   UNL     1      -3.496 -14.319  14.008  0.00  0.00    +0.146 C 
ATOM     10  C   UNL     1      -2.515 -15.385  14.533  0.00  0.00    +0.030 C 
ATOM     11  C   UNL     1      -1.387 -15.423  13.512  0.00  0.00    +0.017 C 
ATOM     12  C   UNL     1      -2.025 -14.867  12.254  0.00  0.00    +0.085 C 
BRANCH   3  13
ATOM     13  C   UNL     1      -3.811 -13.294  11.806  0.00  0.00    +0.121 C 
BRANCH  13  15
ATOM      6  N   UNL     1      -3.904 -10.072   9.822  0.00  0.00    -0.263 NA
ATOM     15  C   UNL     1      -3.457 -11.913  11.323  0.00  0.00    -0.015 A 
ATOM     17  C   UNL     1      -2.401 -11.205  11.888  0.00  0.00    +0.008 A 
ATOM     18  C   UNL     1      -4.171 -11.307  10.302  0.00  0.00    +0.115 A 
ATOM     20  C   UNL     1      -2.096  -9.932  11.420  0.00  0.00    +0.020 A 
ATOM     21  C   UNL     1      -2.870  -9.414  10.395  0.00  0.00    +0.111 A 
ENDBRANCH  13  15
ENDBRANCH   3  13
ENDBRANCH  14   9
TORSDOF 7
ENDMDL
MODEL 6
REMARK VINA RESULT:      -6.1     26.146     28.978
REMARK  Name = 45783279
REMARK  8 active torsions:
REMARK  status: ('A' for Active; 'I' for Inactive)
REMARK    1  A    between atoms: O_2  and  C_27
REMARK    2  A    between atoms: O_2  and  C_28
REMARK    3  A    between atoms: N_3  and  C_13
REMARK    4  A    between atoms: N_7  and  C_26
REMARK    5  A    between atoms: C_9  and  C_14
REMARK    6  A    between atoms: C_13  and  C_15
REMARK    7  A    between atoms: C_16  and  C_19
REMARK    8  A    between atoms: C_26  and  C_27
REMARK                            x       y       z     vdW  Elec       q    Type
REMARK                         _______ _______ _______ _____ _____    ______ ____
ROOT
ATOM      1  O   UNL     1      12.109   8.086  16.878  0.00  0.00    -0.336 OA
ATOM      4  N   UNL     1      13.355   9.651  17.888  0.00  0.00    -0.190 NA
ATOM      5  N   UNL     1      12.622   8.894  15.856  0.00  0.00    -0.056 NA
ATOM     14  C   UNL     1      12.589   8.600  18.042  0.00  0.00    +0.245 A 
ATOM     16  C   UNL     1      13.346   9.793  16.531  0.00  0.00    +0.202 A 
ENDROOT
BRANCH  16  19
ATOM      7  N   UNL     1      13.777  13.018  12.946  0.00  0.00    -0.327 N 
ATOM      8  N   UNL     1      15.477  12.903  14.611  0.00  0.00    -0.240 NA
ATOM     19  C   UNL     1      14.070  10.846  15.880  0.00  0.00    +0.027 A 
ATOM     22  C   UNL     1      13.567  11.425  14.719  0.00  0.00    +0.055 A 
ATOM     23  C   UNL     1      15.275  11.295  16.407  0.00  0.00    +0.031 A 
ATOM     24  C   UNL     1      14.301  12.439  14.129  0.00  0.00    +0.119 A 
ATOM     25  C   UNL     1      15.934  12.315  15.740  0.00  0.00    +0.113 A 
ATOM     29  H   UNL     1      14.323  13.762  12.526  0.00  0.00    +0.148 HD
BRANCH   7  26
ATOM     26  C   UNL     1      12.546  12.594  12.363  0.00  0.00    +0.131 C 
BRANCH  26  27
ATOM     27  C   UNL     1      11.489  13.673  12.540  0.00  0.00    +0.178 C 
BRANCH  27   2
ATOM      2  O   UNL     1      10.339  13.338  11.773  0.00  0.00    -0.381 OA
ATOM     28  C   UNL     1      10.290  11.947  11.487  0.00  0.00    +0.194 C 
ENDBRANCH  27   2
ENDBRANCH  26  27
ENDBRANCH   7  26
ENDBRANCH  16  19
BRANCH  14   9
ATOM      3  N   UNL     1      13.213   7.946  20.360  0.00  0.00    -0.287 NA
ATOM      9  C   UNL     1      12.173   7.892  19.314  0.00  0.00    +0.146 C 
ATOM     10  C   UNL     1      10.929   8.525  19.967  0.00  0.00    +0.030 C 
ATOM     11  C   UNL     1      11.349   8.846  21.394  0.00  0.00    +0.017 C 
ATOM     12  C   UNL     1      12.513   7.907  21.643  0.00  0.00    +0.085 C 
BRANCH   3  13
ATOM     13  C   UNL     1      14.202   6.882  20.243  0.00  0.00    +0.121 C 
BRANCH  13  15
ATOM      6  N   UNL     1      17.140   9.209  20.777  0.00  0.00    -0.263 NA
ATOM     15  C   UNL     1      15.589   7.366  20.572  0.00  0.00    -0.015 A 
ATOM     17  C   UNL     1      16.585   6.476  20.962  0.00  0.00    +0.008 A 
ATOM     18  C   UNL     1      15.915   8.711  20.496  0.00  0.00    +0.115 A 
ATOM     20  C   UNL     1      17.857   6.952  21.258  0.00  0.00    +0.020 A 
ATOM     21  C   UNL     1      18.082   8.315  21.152  0.00  0.00    +0.111 A 
ENDBRANCH  13  15
ENDBRANCH   3  13
ENDBRANCH  14   9
TORSDOF 7
ENDMDL
MODEL 7
REMARK VINA RESULT:      -6.1      2.315      7.547
REMARK  Name = 45783279
REMARK  8 active torsions:
REMARK  status: ('A' for Active; 'I' for Inactive)
REMARK    1  A    between atoms: O_2  and  C_27
REMARK    2  A    between atoms: O_2  and  C_28
REMARK    3  A    between atoms: N_3  and  C_13
REMARK    4  A    between atoms: N_7  and  C_26
REMARK    5  A    between atoms: C_9  and  C_14
REMARK    6  A    between atoms: C_13  and  C_15
REMARK    7  A    between atoms: C_16  and  C_19
REMARK    8  A    between atoms: C_26  and  C_27
REMARK                            x       y       z     vdW  Elec       q    Type
REMARK                         _______ _______ _______ _____ _____    ______ ____
ROOT
ATOM      1  O   UNL     1      -7.891 -10.508  15.783  0.00  0.00    -0.336 OA
ATOM      4  N   UNL     1      -6.121 -10.180  17.117  0.00  0.00    -0.190 NA
ATOM      5  N   UNL     1      -6.758 -10.692  14.979  0.00  0.00    -0.056 NA
ATOM     14  C   UNL     1      -7.427 -10.210  17.025  0.00  0.00    +0.245 A 
ATOM     16  C   UNL     1      -5.755 -10.482  15.837  0.00  0.00    +0.202 A 
ENDROOT
BRANCH  16  19
ATOM      7  N   UNL     1      -2.348 -10.584  12.399  0.00  0.00    -0.327 N 
ATOM      8  N   UNL     1      -1.692 -10.717  14.685  0.00  0.00    -0.240 NA
ATOM     19  C   UNL     1      -4.378 -10.563  15.447  0.00  0.00    +0.027 A 
ATOM     22  C   UNL     1      -4.030 -10.534  14.100  0.00  0.00    +0.055 A 
ATOM     23  C   UNL     1      -3.383 -10.669  16.413  0.00  0.00    +0.031 A 
ATOM     24  C   UNL     1      -2.686 -10.614  13.775  0.00  0.00    +0.119 A 
ATOM     25  C   UNL     1      -2.068 -10.743  15.984  0.00  0.00    +0.113 A 
ATOM     29  H   UNL     1      -1.361 -10.640  12.175  0.00  0.00    +0.148 HD
BRANCH   7  26
ATOM     26  C   UNL     1      -3.329 -10.478  11.368  0.00  0.00    +0.131 C 
BRANCH  26  27
ATOM     27  C   UNL     1      -2.934  -9.387  10.386  0.00  0.00    +0.178 C 
BRANCH  27   2
ATOM      2  O   UNL     1      -4.071  -8.590  10.082  0.00  0.00    -0.381 OA
ATOM     28  C   UNL     1      -5.144  -8.850  10.976  0.00  0.00    +0.194 C 
ENDBRANCH  27   2
ENDBRANCH  26  27
ENDBRANCH   7  26
ENDBRANCH  16  19
BRANCH  14   9
ATOM      3  N   UNL     1      -9.731  -9.425  17.545  0.00  0.00    -0.287 NA
ATOM      9  C   UNL     1      -8.471  -9.964  18.094  0.00  0.00    +0.146 C 
ATOM     10  C   UNL     1      -8.885 -11.254  18.829  0.00  0.00    +0.030 C 
ATOM     11  C   UNL     1     -10.399 -11.322  18.689  0.00  0.00    +0.017 C 
ATOM     12  C   UNL     1     -10.798  -9.882  18.433  0.00  0.00    +0.085 C 
BRANCH   3  13
ATOM     13  C   UNL     1      -9.720  -7.975  17.401  0.00  0.00    +0.121 C 
BRANCH  13  15
ATOM      6  N   UNL     1     -11.527  -7.966  14.074  0.00  0.00    -0.263 NA
ATOM     15  C   UNL     1     -10.582  -7.519  16.254  0.00  0.00    -0.015 A 
ATOM     17  C   UNL     1     -11.215  -6.281  16.282  0.00  0.00    +0.008 A 
ATOM     18  C   UNL     1     -10.768  -8.317  15.137  0.00  0.00    +0.115 A 
ATOM     20  C   UNL     1     -12.003  -5.885  15.207  0.00  0.00    +0.020 A 
ATOM     21  C   UNL     1     -12.126  -6.756  14.137  0.00  0.00    +0.111 A 
ENDBRANCH  13  15
ENDBRANCH   3  13
ENDBRANCH  14   9
TORSDOF 7
ENDMDL
MODEL 8
REMARK VINA RESULT:      -5.8      4.038      7.960
REMARK  Name = 45783279
REMARK  8 active torsions:
REMARK  status: ('A' for Active; 'I' for Inactive)
REMARK    1  A    between atoms: O_2  and  C_27
REMARK    2  A    between atoms: O_2  and  C_28
REMARK    3  A    between atoms: N_3  and  C_13
REMARK    4  A    between atoms: N_7  and  C_26
REMARK    5  A    between atoms: C_9  and  C_14
REMARK    6  A    between atoms: C_13  and  C_15
REMARK    7  A    between atoms: C_16  and  C_19
REMARK    8  A    between atoms: C_26  and  C_27
REMARK                            x       y       z     vdW  Elec       q    Type
REMARK                         _______ _______ _______ _____ _____    ______ ____
ROOT
ATOM      1  O   UNL     1      -6.046  -7.974   9.090  0.00  0.00    -0.336 OA
ATOM      4  N   UNL     1      -5.549 -10.136   9.411  0.00  0.00    -0.190 NA
ATOM      5  N   UNL     1      -5.163  -8.014  10.177  0.00  0.00    -0.056 NA
ATOM     14  C   UNL     1      -6.219  -9.265   8.699  0.00  0.00    +0.245 A 
ATOM     16  C   UNL     1      -4.916  -9.321  10.304  0.00  0.00    +0.202 A 
ENDROOT
BRANCH  16  19
ATOM      7  N   UNL     1      -4.157 -10.854  14.833  0.00  0.00    -0.327 N 
ATOM      8  N   UNL     1      -2.347 -10.874  13.285  0.00  0.00    -0.240 NA
ATOM     19  C   UNL     1      -4.044  -9.846  11.315  0.00  0.00    +0.027 A 
ATOM     22  C   UNL     1      -4.529 -10.097  12.594  0.00  0.00    +0.055 A 
ATOM     23  C   UNL     1      -2.711 -10.110  11.020  0.00  0.00    +0.031 A 
ATOM     24  C   UNL     1      -3.648 -10.606  13.534  0.00  0.00    +0.119 A 
ATOM     25  C   UNL     1      -1.911 -10.617  12.030  0.00  0.00    +0.113 A 
ATOM     29  H   UNL     1      -3.503 -11.230  15.511  0.00  0.00    +0.148 HD
BRANCH   7  26
ATOM     26  C   UNL     1      -5.515 -10.601  15.189  0.00  0.00    +0.131 C 
BRANCH  26  27
ATOM     27  C   UNL     1      -5.579  -9.937  16.555  0.00  0.00    +0.178 C 
BRANCH  27   2
ATOM      2  O   UNL     1      -6.012 -10.886  17.522  0.00  0.00    -0.381 OA
ATOM     28  C   UNL     1      -5.237 -10.807  18.711  0.00  0.00    +0.194 C 
ENDBRANCH  27   2
ENDBRANCH  26  27
ENDBRANCH   7  26
ENDBRANCH  16  19
BRANCH  14   9
ATOM      3  N   UNL     1      -8.082  -8.374   7.309  0.00  0.00    -0.287 NA
ATOM      9  C   UNL     1      -7.144  -9.494   7.522  0.00  0.00    +0.146 C 
ATOM     10  C   UNL     1      -6.385  -9.627   6.187  0.00  0.00    +0.030 C 
ATOM     11  C   UNL     1      -7.007  -8.583   5.271  0.00  0.00    +0.017 C 
ATOM     12  C   UNL     1      -8.376  -8.347   5.877  0.00  0.00    +0.085 C 
BRANCH   3  13
ATOM     13  C   UNL     1      -9.291  -8.478   8.116  0.00  0.00    +0.121 C 
BRANCH  13  15
ATOM      6  N   UNL     1     -11.573  -5.802   9.519  0.00  0.00    -0.263 NA
ATOM     15  C   UNL     1      -9.811  -7.125   8.524  0.00  0.00    -0.015 A 
ATOM     17  C   UNL     1      -9.064  -5.973   8.301  0.00  0.00    +0.008 A 
ATOM     18  C   UNL     1     -11.049  -6.987   9.131  0.00  0.00    +0.115 A 
ATOM     20  C   UNL     1      -9.570  -4.737   8.687  0.00  0.00    +0.020 A 
ATOM     21  C   UNL     1     -10.818  -4.705   9.287  0.00  0.00    +0.111 A 
ENDBRANCH  13  15
ENDBRANCH   3  13
ENDBRANCH  14   9
TORSDOF 7
ENDMDL
MODEL 9
REMARK VINA RESULT:      -5.8      2.015      8.097
REMARK  Name = 45783279
REMARK  8 active torsions:
REMARK  status: ('A' for Active; 'I' for Inactive)
REMARK    1  A    between atoms: O_2  and  C_27
REMARK    2  A    between atoms: O_2  and  C_28
REMARK    3  A    between atoms: N_3  and  C_13
REMARK    4  A    between atoms: N_7  and  C_26
REMARK    5  A    between atoms: C_9  and  C_14
REMARK    6  A    between atoms: C_13  and  C_15
REMARK    7  A    between atoms: C_16  and  C_19
REMARK    8  A    between atoms: C_26  and  C_27
REMARK                            x       y       z     vdW  Elec       q    Type
REMARK                         _______ _______ _______ _____ _____    ______ ____
ROOT
ATOM      1  O   UNL     1      -8.676  -9.708  12.670  0.00  0.00    -0.336 OA
ATOM      4  N   UNL     1      -6.727  -9.801  13.772  0.00  0.00    -0.190 NA
ATOM      5  N   UNL     1      -7.673  -9.659  11.693  0.00  0.00    -0.056 NA
ATOM     14  C   UNL     1      -8.033  -9.791  13.865  0.00  0.00    +0.245 A 
ATOM     16  C   UNL     1      -6.554  -9.719  12.421  0.00  0.00    +0.202 A 
ENDROOT
BRANCH  16  19
ATOM      7  N   UNL     1      -1.877 -10.968  12.483  0.00  0.00    -0.327 N 
ATOM      8  N   UNL     1      -2.702  -9.657  10.673  0.00  0.00    -0.240 NA
ATOM     19  C   UNL     1      -5.248  -9.696  11.829  0.00  0.00    +0.027 A 
ATOM     22  C   UNL     1      -4.188 -10.349  12.450  0.00  0.00    +0.055 A 
ATOM     23  C   UNL     1      -5.036  -9.024  10.630  0.00  0.00    +0.031 A 
ATOM     24  C   UNL     1      -2.947 -10.299  11.837  0.00  0.00    +0.119 A 
ATOM     25  C   UNL     1      -3.756  -9.034  10.099  0.00  0.00    +0.113 A 
ATOM     29  H   UNL     1      -0.974 -10.927  12.022  0.00  0.00    +0.148 HD
BRANCH   7  26
ATOM     26  C   UNL     1      -2.039 -11.671  13.713  0.00  0.00    +0.131 C 
BRANCH  26  27
ATOM     27  C   UNL     1      -1.449 -13.066  13.596  0.00  0.00    +0.178 C 
BRANCH  27   2
ATOM      2  O   UNL     1      -2.491 -14.030  13.690  0.00  0.00    -0.381 OA
ATOM     28  C   UNL     1      -3.575 -13.550  14.473  0.00  0.00    +0.194 C 
ENDBRANCH  27   2
ENDBRANCH  26  27
ENDBRANCH   7  26
ENDBRANCH  16  19
BRANCH  14   9
ATOM      3  N   UNL     1      -8.125  -9.965  16.346  0.00  0.00    -0.287 NA
ATOM      9  C   UNL     1      -8.908  -9.859  15.099  0.00  0.00    +0.146 C 
ATOM     10  C   UNL     1      -9.771  -8.596  15.286  0.00  0.00    +0.030 C 
ATOM     11  C   UNL     1      -9.448  -8.098  16.688  0.00  0.00    +0.017 C 
ATOM     12  C   UNL     1      -8.927  -9.335  17.394  0.00  0.00    +0.085 C 
BRANCH   3  13
ATOM     13  C   UNL     1      -7.764 -11.337  16.682  0.00  0.00    +0.121 C 
BRANCH  13  15
ATOM      6  N   UNL     1      -4.024 -11.058  17.193  0.00  0.00    -0.263 NA
ATOM     15  C   UNL     1      -6.410 -11.417  17.335  0.00  0.00    -0.015 A 
ATOM     17  C   UNL     1      -6.266 -11.904  18.630  0.00  0.00    +0.008 A 
ATOM     18  C   UNL     1      -5.267 -11.011  16.665  0.00  0.00    +0.115 A 
ATOM     20  C   UNL     1      -5.003 -11.968  19.206  0.00  0.00    +0.020 A 
ATOM     21  C   UNL     1      -3.923 -11.537  18.453  0.00  0.00    +0.111 A 
ENDBRANCH  13  15
ENDBRANCH   3  13
ENDBRANCH  14   9
TORSDOF 7
ENDMDL
MODEL 10
REMARK VINA RESULT:      -5.7      2.724      7.231
REMARK  Name = 45783279
REMARK  8 active torsions:
REMARK  status: ('A' for Active; 'I' for Inactive)
REMARK    1  A    between atoms: O_2  and  C_27
REMARK    2  A    between atoms: O_2  and  C_28
REMARK    3  A    between atoms: N_3  and  C_13
REMARK    4  A    between atoms: N_7  and  C_26
REMARK    5  A    between atoms: C_9  and  C_14
REMARK    6  A    between atoms: C_13  and  C_15
REMARK    7  A    between atoms: C_16  and  C_19
REMARK    8  A    between atoms: C_26  and  C_27
REMARK                            x       y       z     vdW  Elec       q    Type
REMARK                         _______ _______ _______ _____ _____    ______ ____
ROOT
ATOM      1  O   UNL     1      -7.837 -11.604  13.364  0.00  0.00    -0.336 OA
ATOM      4  N   UNL     1      -6.092 -10.217  13.591  0.00  0.00    -0.190 NA
ATOM      5  N   UNL     1      -7.357 -11.365  12.069  0.00  0.00    -0.056 NA
ATOM     14  C   UNL     1      -7.036 -10.891  14.199  0.00  0.00    +0.245 A 
ATOM     16  C   UNL     1      -6.329 -10.539  12.287  0.00  0.00    +0.202 A 
ENDROOT
BRANCH  16  19
ATOM      7  N   UNL     1      -5.891  -8.820   7.782  0.00  0.00    -0.327 N 
ATOM      8  N   UNL     1      -3.948  -8.994   9.150  0.00  0.00    -0.240 NA
ATOM     19  C   UNL     1      -5.522 -10.017  11.223  0.00  0.00    +0.027 A 
ATOM     22  C   UNL     1      -6.105  -9.669  10.009  0.00  0.00    +0.055 A 
ATOM     23  C   UNL     1      -4.152  -9.853  11.401  0.00  0.00    +0.031 A 
ATOM     24  C   UNL     1      -5.283  -9.168   9.014  0.00  0.00    +0.119 A 
ATOM     25  C   UNL     1      -3.417  -9.343  10.344  0.00  0.00    +0.113 A 
ATOM     29  H   UNL     1      -5.279  -8.451   7.064  0.00  0.00    +0.148 HD
BRANCH   7  26
ATOM     26  C   UNL     1      -7.291  -8.969   7.547  0.00  0.00    +0.131 C 
BRANCH  26  27
ATOM     27  C   UNL     1      -7.888  -7.642   7.108  0.00  0.00    +0.178 C 
BRANCH  27   2
ATOM      2  O   UNL     1      -8.326  -6.919   8.251  0.00  0.00    -0.381 OA
ATOM     28  C   UNL     1      -9.155  -7.716   9.086  0.00  0.00    +0.194 C 
ENDBRANCH  27   2
ENDBRANCH  26  27
ENDBRANCH   7  26
ENDBRANCH  16  19
BRANCH  14   9
ATOM      3  N   UNL     1      -6.177 -10.695  16.527  0.00  0.00    -0.287 NA
ATOM      9  C   UNL     1      -7.350 -10.983  15.678  0.00  0.00    +0.146 C 
ATOM     10  C   UNL     1      -8.416  -9.964  16.124  0.00  0.00    +0.030 C 
ATOM     11  C   UNL     1      -7.772  -9.190  17.265  0.00  0.00    +0.017 C 
ATOM     12  C   UNL     1      -6.697 -10.131  17.772  0.00  0.00    +0.085 C 
BRANCH   3  13
ATOM     13  C   UNL     1      -5.338 -11.862  16.762  0.00  0.00    +0.121 C 
BRANCH  13  15
ATOM      6  N   UNL     1      -2.435 -12.449  14.404  0.00  0.00    -0.263 NA
ATOM     15  C   UNL     1      -3.989 -11.724  16.108  0.00  0.00    -0.015 A 
ATOM     17  C   UNL     1      -3.062 -10.793  16.566  0.00  0.00    +0.008 A 
ATOM     18  C   UNL     1      -3.629 -12.522  15.034  0.00  0.00    +0.115 A 
ATOM     20  C   UNL     1      -1.823 -10.690  15.944  0.00  0.00    +0.020 A 
ATOM     21  C   UNL     1      -1.561 -11.533  14.876  0.00  0.00    +0.111 A 
ENDBRANCH  13  15
ENDBRANCH   3  13
ENDBRANCH  14   9
TORSDOF 7
ENDMDL
