MODEL 1
REMARK VINA RESULT:      -7.7      0.000      0.000
REMARK  Name = 45784274
REMARK  5 active torsions:
REMARK  status: ('A' for Active; 'I' for Inactive)
REMARK    1  A    between atoms: N_7  and  C_15
REMARK    2  A    between atoms: C_10  and  C_14
REMARK    3  A    between atoms: C_15  and  C_16
REMARK    4  A    between atoms: C_23  and  C_28
REMARK    5  A    between atoms: C_27  and  C_29
REMARK                            x       y       z     vdW  Elec       q    Type
REMARK                         _______ _______ _______ _____ _____    ______ ____
ROOT
ATOM      7  N   UNL     1     -15.111   6.426  21.845  0.00  0.00    -0.297 NA
ATOM     10  C   UNL     1     -15.947   4.416  22.719  0.00  0.00    +0.070 C 
ATOM     11  C   UNL     1     -17.117   5.361  22.392  0.00  0.00    +0.028 C 
ATOM     12  C   UNL     1     -14.705   5.318  22.714  0.00  0.00    +0.096 C 
ATOM     13  C   UNL     1     -16.483   6.739  22.249  0.00  0.00    +0.085 C 
ENDROOT
BRANCH  10  14
ATOM      8  N   UNL     1     -15.770   4.182  25.212  0.00  0.00    -0.342 N 
ATOM      9  N   UNL     1     -16.548   2.405  24.128  0.00  0.00    -0.232 NA
ATOM     14  C   UNL     1     -16.102   3.635  24.004  0.00  0.00    +0.113 A 
ATOM     17  C   UNL     1     -16.018   3.243  26.179  0.00  0.00    +0.067 A 
ATOM     18  C   UNL     1     -16.503   2.142  25.477  0.00  0.00    +0.089 A 
ATOM     19  C   UNL     1     -15.865   3.260  27.566  0.00  0.00    +0.040 A 
ATOM     22  C   UNL     1     -16.861   0.982  26.185  0.00  0.00    +0.030 A 
ATOM     23  C   UNL     1     -16.226   2.097  28.254  0.00  0.00    +0.057 A 
ATOM     24  C   UNL     1     -16.715   0.977  27.577  0.00  0.00    +0.014 A 
ATOM     30  H   UNL     1     -15.406   5.112  25.368  0.00  0.00    +0.167 HD
BRANCH  23  28
ATOM      1  F   UNL     1     -17.022   2.794  30.400  0.00  0.00    -0.166 F 
ATOM      2  F   UNL     1     -14.877   2.524  30.165  0.00  0.00    -0.166 F 
ATOM      3  F   UNL     1     -16.193   0.795  30.260  0.00  0.00    -0.166 F 
ATOM     28  C   UNL     1     -16.085   2.053  29.740  0.00  0.00    +0.417 C 
ENDBRANCH  23  28
ENDBRANCH  10  14
BRANCH   7  15
ATOM     15  C   UNL     1     -14.225   7.575  21.959  0.00  0.00    +0.119 C 
BRANCH  15  16
ATOM     16  C   UNL     1     -13.342   7.723  20.749  0.00  0.00    -0.033 A 
ATOM     20  C   UNL     1     -13.906   7.990  19.502  0.00  0.00    +0.005 A 
ATOM     21  C   UNL     1     -11.958   7.596  20.875  0.00  0.00    +0.005 A 
ATOM     25  C   UNL     1     -13.089   8.129  18.380  0.00  0.00    +0.012 A 
ATOM     26  C   UNL     1     -11.140   7.734  19.754  0.00  0.00    +0.012 A 
ATOM     27  C   UNL     1     -11.705   8.001  18.507  0.00  0.00    +0.055 A 
BRANCH  27  29
ATOM      4  F   UNL     1     -10.176   6.998  16.989  0.00  0.00    -0.166 F 
ATOM      5  F   UNL     1     -11.506   8.515  16.179  0.00  0.00    -0.166 F 
ATOM      6  F   UNL     1      -9.854   9.096  17.459  0.00  0.00    -0.166 F 
ATOM     29  C   UNL     1     -10.830   8.152  17.309  0.00  0.00    +0.417 C 
ENDBRANCH  27  29
ENDBRANCH  15  16
ENDBRANCH   7  15
TORSDOF 5
ENDMDL
MODEL 2
REMARK VINA RESULT:      -7.6     29.131     34.476
REMARK  Name = 45784274
REMARK  5 active torsions:
REMARK  status: ('A' for Active; 'I' for Inactive)
REMARK    1  A    between atoms: N_7  and  C_15
REMARK    2  A    between atoms: C_10  and  C_14
REMARK    3  A    between atoms: C_15  and  C_16
REMARK    4  A    between atoms: C_23  and  C_28
REMARK    5  A    between atoms: C_27  and  C_29
REMARK                            x       y       z     vdW  Elec       q    Type
REMARK                         _______ _______ _______ _____ _____    ______ ____
ROOT
ATOM      7  N   UNL     1      16.204   8.879   5.378  0.00  0.00    -0.297 NA
ATOM     10  C   UNL     1      14.081   7.905   5.162  0.00  0.00    +0.070 C 
ATOM     11  C   UNL     1      14.042   9.348   4.629  0.00  0.00    +0.028 C 
ATOM     12  C   UNL     1      15.379   7.826   5.977  0.00  0.00    +0.096 C 
ATOM     13  C   UNL     1      15.294  10.010   5.190  0.00  0.00    +0.085 C 
ENDROOT
BRANCH  10  14
ATOM      8  N   UNL     1      12.922   6.469   6.863  0.00  0.00    -0.342 N 
ATOM      9  N   UNL     1      11.660   8.012   5.881  0.00  0.00    -0.232 NA
ATOM     14  C   UNL     1      12.863   7.487   5.953  0.00  0.00    +0.113 A 
ATOM     17  C   UNL     1      11.674   6.327   7.414  0.00  0.00    +0.067 A 
ATOM     18  C   UNL     1      10.904   7.301   6.784  0.00  0.00    +0.089 A 
ATOM     19  C   UNL     1      11.168   5.456   8.379  0.00  0.00    +0.040 A 
ATOM     22  C   UNL     1       9.547   7.428   7.125  0.00  0.00    +0.030 A 
ATOM     23  C   UNL     1       9.815   5.597   8.707  0.00  0.00    +0.057 A 
ATOM     24  C   UNL     1       9.018   6.565   8.092  0.00  0.00    +0.014 A 
ATOM     30  H   UNL     1      13.738   5.917   7.091  0.00  0.00    +0.167 HD
BRANCH  23  28
ATOM      1  F   UNL     1      10.087   4.325  10.715  0.00  0.00    -0.166 F 
ATOM      2  F   UNL     1       8.750   3.528   9.198  0.00  0.00    -0.166 F 
ATOM      3  F   UNL     1       8.151   5.247  10.389  0.00  0.00    -0.166 F 
ATOM     28  C   UNL     1       9.214   4.693   9.734  0.00  0.00    +0.417 C 
ENDBRANCH  23  28
ENDBRANCH  10  14
BRANCH   7  15
ATOM     15  C   UNL     1      17.352   9.223   6.204  0.00  0.00    +0.119 C 
BRANCH  15  16
ATOM     16  C   UNL     1      18.628   8.636   5.663  0.00  0.00    -0.033 A 
ATOM     20  C   UNL     1      19.731   8.472   6.500  0.00  0.00    +0.005 A 
ATOM     21  C   UNL     1      18.707   8.256   4.323  0.00  0.00    +0.005 A 
ATOM     25  C   UNL     1      20.914   7.928   5.999  0.00  0.00    +0.012 A 
ATOM     26  C   UNL     1      19.889   7.712   3.821  0.00  0.00    +0.012 A 
ATOM     27  C   UNL     1      20.993   7.548   4.659  0.00  0.00    +0.055 A 
BRANCH  27  29
ATOM      4  F   UNL     1      22.161   5.619   3.909  0.00  0.00    -0.166 F 
ATOM      5  F   UNL     1      22.642   7.498   2.927  0.00  0.00    -0.166 F 
ATOM      6  F   UNL     1      23.330   7.128   4.950  0.00  0.00    -0.166 F 
ATOM     29  C   UNL     1      22.256   6.963   4.123  0.00  0.00    +0.417 C 
ENDBRANCH  27  29
ENDBRANCH  15  16
ENDBRANCH   7  15
TORSDOF 5
ENDMDL
MODEL 3
REMARK VINA RESULT:      -7.6     28.084     33.075
REMARK  Name = 45784274
REMARK  5 active torsions:
REMARK  status: ('A' for Active; 'I' for Inactive)
REMARK    1  A    between atoms: N_7  and  C_15
REMARK    2  A    between atoms: C_10  and  C_14
REMARK    3  A    between atoms: C_15  and  C_16
REMARK    4  A    between atoms: C_23  and  C_28
REMARK    5  A    between atoms: C_27  and  C_29
REMARK                            x       y       z     vdW  Elec       q    Type
REMARK                         _______ _______ _______ _____ _____    ______ ____
ROOT
ATOM      7  N   UNL     1      13.910   6.869   2.205  0.00  0.00    -0.297 NA
ATOM     10  C   UNL     1      12.180   7.695   3.557  0.00  0.00    +0.070 C 
ATOM     11  C   UNL     1      13.446   8.546   3.763  0.00  0.00    +0.028 C 
ATOM     12  C   UNL     1      12.678   6.422   2.858  0.00  0.00    +0.096 C 
ATOM     13  C   UNL     1      14.584   7.704   3.201  0.00  0.00    +0.085 C 
ENDROOT
BRANCH  10  14
ATOM      8  N   UNL     1      11.577   6.246   5.515  0.00  0.00    -0.342 N 
ATOM      9  N   UNL     1      10.495   8.183   5.376  0.00  0.00    -0.232 NA
ATOM     14  C   UNL     1      11.397   7.407   4.816  0.00  0.00    +0.113 A 
ATOM     17  C   UNL     1      10.735   6.275   6.597  0.00  0.00    +0.067 A 
ATOM     18  C   UNL     1      10.070   7.493   6.488  0.00  0.00    +0.089 A 
ATOM     19  C   UNL     1      10.504   5.367   7.631  0.00  0.00    +0.040 A 
ATOM     22  C   UNL     1       9.117   7.843   7.459  0.00  0.00    +0.030 A 
ATOM     23  C   UNL     1       9.552   5.731   8.589  0.00  0.00    +0.057 A 
ATOM     24  C   UNL     1       8.869   6.947   8.505  0.00  0.00    +0.014 A 
ATOM     30  H   UNL     1      12.215   5.499   5.279  0.00  0.00    +0.167 HD
BRANCH  23  28
ATOM      1  F   UNL     1       8.118   5.110  10.400  0.00  0.00    -0.166 F 
ATOM      2  F   UNL     1      10.253   4.786  10.655  0.00  0.00    -0.166 F 
ATOM      3  F   UNL     1       9.104   3.501   9.330  0.00  0.00    -0.166 F 
ATOM     28  C   UNL     1       9.260   4.801   9.720  0.00  0.00    +0.417 C 
ENDBRANCH  23  28
ENDBRANCH  10  14
BRANCH   7  15
ATOM     15  C   UNL     1      14.739   5.758   1.762  0.00  0.00    +0.119 C 
BRANCH  15  16
ATOM     16  C   UNL     1      14.060   4.943   0.695  0.00  0.00    -0.033 A 
ATOM     20  C   UNL     1      13.648   3.638   0.969  0.00  0.00    +0.005 A 
ATOM     21  C   UNL     1      13.840   5.491  -0.569  0.00  0.00    +0.005 A 
ATOM     25  C   UNL     1      13.018   2.882  -0.019  0.00  0.00    +0.012 A 
ATOM     26  C   UNL     1      13.210   4.736  -1.558  0.00  0.00    +0.012 A 
ATOM     27  C   UNL     1      12.798   3.431  -1.283  0.00  0.00    +0.055 A 
BRANCH  27  29
ATOM      4  F   UNL     1      12.117   1.290  -2.056  0.00  0.00    -0.166 F 
ATOM      5  F   UNL     1      10.812   2.963  -2.532  0.00  0.00    -0.166 F 
ATOM      6  F   UNL     1      12.703   2.737  -3.570  0.00  0.00    -0.166 F 
ATOM     29  C   UNL     1      12.122   2.625  -2.339  0.00  0.00    +0.417 C 
ENDBRANCH  27  29
ENDBRANCH  15  16
ENDBRANCH   7  15
TORSDOF 5
ENDMDL
MODEL 4
REMARK VINA RESULT:      -7.5     30.285     33.728
REMARK  Name = 45784274
REMARK  5 active torsions:
REMARK  status: ('A' for Active; 'I' for Inactive)
REMARK    1  A    between atoms: N_7  and  C_15
REMARK    2  A    between atoms: C_10  and  C_14
REMARK    3  A    between atoms: C_15  and  C_16
REMARK    4  A    between atoms: C_23  and  C_28
REMARK    5  A    between atoms: C_27  and  C_29
REMARK                            x       y       z     vdW  Elec       q    Type
REMARK                         _______ _______ _______ _____ _____    ______ ____
ROOT
ATOM      7  N   UNL     1      20.466   7.047  22.278  0.00  0.00    -0.297 NA
ATOM     10  C   UNL     1      18.665   7.765  20.957  0.00  0.00    +0.070 C 
ATOM     11  C   UNL     1      19.053   8.878  21.946  0.00  0.00    +0.028 C 
ATOM     12  C   UNL     1      19.347   6.504  21.503  0.00  0.00    +0.096 C 
ATOM     13  C   UNL     1      19.903   8.185  23.005  0.00  0.00    +0.085 C 
ENDROOT
BRANCH  10  14
ATOM      8  N   UNL     1      16.288   7.844  21.756  0.00  0.00    -0.342 N 
ATOM      9  N   UNL     1      16.578   7.194  19.651  0.00  0.00    -0.232 NA
ATOM     14  C   UNL     1      17.178   7.589  20.751  0.00  0.00    +0.113 A 
ATOM     17  C   UNL     1      15.029   7.597  21.272  0.00  0.00    +0.067 A 
ATOM     18  C   UNL     1      15.237   7.191  19.957  0.00  0.00    +0.089 A 
ATOM     19  C   UNL     1      13.764   7.689  21.854  0.00  0.00    +0.040 A 
ATOM     22  C   UNL     1      14.129   6.855  19.160  0.00  0.00    +0.030 A 
ATOM     23  C   UNL     1      12.673   7.351  21.048  0.00  0.00    +0.057 A 
ATOM     24  C   UNL     1      12.850   6.940  19.724  0.00  0.00    +0.014 A 
ATOM     30  H   UNL     1      16.513   8.159  22.690  0.00  0.00    +0.167 HD
BRANCH  23  28
ATOM      1  F   UNL     1      10.390   8.011  20.773  0.00  0.00    -0.166 F 
ATOM      2  F   UNL     1      11.241   8.153  22.768  0.00  0.00    -0.166 F 
ATOM      3  F   UNL     1      10.761   6.209  21.921  0.00  0.00    -0.166 F 
ATOM     28  C   UNL     1      11.293   7.429  21.614  0.00  0.00    +0.417 C 
ENDBRANCH  23  28
ENDBRANCH  10  14
BRANCH   7  15
ATOM     15  C   UNL     1      21.057   6.059  23.167  0.00  0.00    +0.119 C 
BRANCH  15  16
ATOM     16  C   UNL     1      22.011   5.149  22.440  0.00  0.00    -0.033 A 
ATOM     20  C   UNL     1      22.761   5.636  21.370  0.00  0.00    +0.005 A 
ATOM     21  C   UNL     1      22.147   3.819  22.838  0.00  0.00    +0.005 A 
ATOM     25  C   UNL     1      23.645   4.794  20.696  0.00  0.00    +0.012 A 
ATOM     26  C   UNL     1      23.031   2.976  22.165  0.00  0.00    +0.012 A 
ATOM     27  C   UNL     1      23.781   3.464  21.094  0.00  0.00    +0.055 A 
BRANCH  27  29
ATOM      4  F   UNL     1      24.439   1.243  20.562  0.00  0.00    -0.166 F 
ATOM      5  F   UNL     1      24.741   2.749  19.023  0.00  0.00    -0.166 F 
ATOM      6  F   UNL     1      26.029   2.713  20.768  0.00  0.00    -0.166 F 
ATOM     29  C   UNL     1      24.729   2.564  20.376  0.00  0.00    +0.417 C 
ENDBRANCH  27  29
ENDBRANCH  15  16
ENDBRANCH   7  15
TORSDOF 5
ENDMDL
MODEL 5
REMARK VINA RESULT:      -7.4     32.820     36.432
REMARK  Name = 45784274
REMARK  5 active torsions:
REMARK  status: ('A' for Active; 'I' for Inactive)
REMARK    1  A    between atoms: N_7  and  C_15
REMARK    2  A    between atoms: C_10  and  C_14
REMARK    3  A    between atoms: C_15  and  C_16
REMARK    4  A    between atoms: C_23  and  C_28
REMARK    5  A    between atoms: C_27  and  C_29
REMARK                            x       y       z     vdW  Elec       q    Type
REMARK                         _______ _______ _______ _____ _____    ______ ____
ROOT
ATOM      7  N   UNL     1      22.676   4.070  21.846  0.00  0.00    -0.297 NA
ATOM     10  C   UNL     1      21.111   5.059  20.406  0.00  0.00    +0.070 C 
ATOM     11  C   UNL     1      22.331   5.986  20.554  0.00  0.00    +0.028 C 
ATOM     12  C   UNL     1      21.239   4.060  21.563  0.00  0.00    +0.096 C 
ATOM     13  C   UNL     1      23.061   5.481  21.793  0.00  0.00    +0.085 C 
ENDROOT
BRANCH  10  14
ATOM      8  N   UNL     1      18.790   5.397  19.512  0.00  0.00    -0.342 N 
ATOM      9  N   UNL     1      19.404   6.768  21.150  0.00  0.00    -0.232 NA
ATOM     14  C   UNL     1      19.776   5.767  20.384  0.00  0.00    +0.113 A 
ATOM     17  C   UNL     1      17.710   6.214  19.730  0.00  0.00    +0.067 A 
ATOM     18  C   UNL     1      18.119   7.062  20.756  0.00  0.00    +0.089 A 
ATOM     19  C   UNL     1      16.450   6.283  19.135  0.00  0.00    +0.040 A 
ATOM     22  C   UNL     1      17.230   8.041  21.230  0.00  0.00    +0.030 A 
ATOM     23  C   UNL     1      15.578   7.264  19.619  0.00  0.00    +0.057 A 
ATOM     24  C   UNL     1      15.960   8.129  20.648  0.00  0.00    +0.014 A 
ATOM     30  H   UNL     1      18.844   4.655  18.828  0.00  0.00    +0.167 HD
BRANCH  23  28
ATOM      1  F   UNL     1      14.191   7.204  17.671  0.00  0.00    -0.166 F 
ATOM      2  F   UNL     1      13.660   8.616  19.236  0.00  0.00    -0.166 F 
ATOM      3  F   UNL     1      13.318   6.487  19.522  0.00  0.00    -0.166 F 
ATOM     28  C   UNL     1      14.214   7.388  19.023  0.00  0.00    +0.417 C 
ENDBRANCH  23  28
ENDBRANCH  10  14
BRANCH   7  15
ATOM     15  C   UNL     1      22.995   3.457  23.127  0.00  0.00    +0.119 C 
BRANCH  15  16
ATOM     16  C   UNL     1      23.883   2.253  22.965  0.00  0.00    -0.033 A 
ATOM     20  C   UNL     1      24.193   1.778  21.691  0.00  0.00    +0.005 A 
ATOM     21  C   UNL     1      24.399   1.610  24.092  0.00  0.00    +0.005 A 
ATOM     25  C   UNL     1      25.016   0.663  21.541  0.00  0.00    +0.012 A 
ATOM     26  C   UNL     1      25.222   0.494  23.943  0.00  0.00    +0.012 A 
ATOM     27  C   UNL     1      25.531   0.021  22.667  0.00  0.00    +0.055 A 
BRANCH  27  29
ATOM      4  F   UNL     1      27.729  -0.833  22.369  0.00  0.00    -0.166 F 
ATOM      5  F   UNL     1      26.366  -2.033  23.566  0.00  0.00    -0.166 F 
ATOM      6  F   UNL     1      26.115  -1.932  21.414  0.00  0.00    -0.166 F 
ATOM     29  C   UNL     1      26.414  -1.171  22.508  0.00  0.00    +0.417 C 
ENDBRANCH  27  29
ENDBRANCH  15  16
ENDBRANCH   7  15
TORSDOF 5
ENDMDL
MODEL 6
REMARK VINA RESULT:      -7.3     19.484     20.616
REMARK  Name = 45784274
REMARK  5 active torsions:
REMARK  status: ('A' for Active; 'I' for Inactive)
REMARK    1  A    between atoms: N_7  and  C_15
REMARK    2  A    between atoms: C_10  and  C_14
REMARK    3  A    between atoms: C_15  and  C_16
REMARK    4  A    between atoms: C_23  and  C_28
REMARK    5  A    between atoms: C_27  and  C_29
REMARK                            x       y       z     vdW  Elec       q    Type
REMARK                         _______ _______ _______ _____ _____    ______ ____
ROOT
ATOM      7  N   UNL     1      -1.958 -10.939  13.825  0.00  0.00    -0.297 NA
ATOM     10  C   UNL     1      -3.109 -10.159  15.714  0.00  0.00    +0.070 C 
ATOM     11  C   UNL     1      -1.765 -10.771  16.147  0.00  0.00    +0.028 C 
ATOM     12  C   UNL     1      -3.323 -10.665  14.281  0.00  0.00    +0.096 C 
ATOM     13  C   UNL     1      -1.309 -11.605  14.956  0.00  0.00    +0.085 C 
ENDROOT
BRANCH  10  14
ATOM      8  N   UNL     1      -5.507  -9.924  16.417  0.00  0.00    -0.342 N 
ATOM      9  N   UNL     1      -4.256 -11.259  17.679  0.00  0.00    -0.232 NA
ATOM     14  C   UNL     1      -4.272 -10.471  16.628  0.00  0.00    +0.113 A 
ATOM     17  C   UNL     1      -6.344 -10.390  17.398  0.00  0.00    +0.067 A 
ATOM     18  C   UNL     1      -5.540 -11.221  18.174  0.00  0.00    +0.089 A 
ATOM     19  C   UNL     1      -7.694 -10.163  17.667  0.00  0.00    +0.040 A 
ATOM     22  C   UNL     1      -6.099 -11.873  19.286  0.00  0.00    +0.030 A 
ATOM     23  C   UNL     1      -8.235 -10.819  18.777  0.00  0.00    +0.057 A 
ATOM     24  C   UNL     1      -7.452 -11.659  19.574  0.00  0.00    +0.014 A 
ATOM     30  H   UNL     1      -5.761  -9.289  15.673  0.00  0.00    +0.167 HD
BRANCH  23  28
ATOM      1  F   UNL     1     -10.494 -11.592  18.628  0.00  0.00    -0.166 F 
ATOM      2  F   UNL     1     -10.168  -9.443  18.627  0.00  0.00    -0.166 F 
ATOM      3  F   UNL     1      -9.918 -10.585  20.461  0.00  0.00    -0.166 F 
ATOM     28  C   UNL     1      -9.675 -10.616  19.117  0.00  0.00    +0.417 C 
ENDBRANCH  23  28
ENDBRANCH  10  14
BRANCH   7  15
ATOM     15  C   UNL     1      -1.928 -11.747  12.615  0.00  0.00    +0.119 C 
BRANCH  15  16
ATOM     16  C   UNL     1      -2.848 -11.204  11.555  0.00  0.00    -0.033 A 
ATOM     20  C   UNL     1      -3.910 -11.979  11.088  0.00  0.00    +0.005 A 
ATOM     21  C   UNL     1      -2.640  -9.924  11.039  0.00  0.00    +0.005 A 
ATOM     25  C   UNL     1      -4.763 -11.476  10.107  0.00  0.00    +0.012 A 
ATOM     26  C   UNL     1      -3.492  -9.421  10.058  0.00  0.00    +0.012 A 
ATOM     27  C   UNL     1      -4.554 -10.196   9.592  0.00  0.00    +0.055 A 
BRANCH  27  29
ATOM      4  F   UNL     1      -6.597 -10.408   8.395  0.00  0.00    -0.166 F 
ATOM      5  F   UNL     1      -5.905  -8.387   8.799  0.00  0.00    -0.166 F 
ATOM      6  F   UNL     1      -4.902  -9.595   7.302  0.00  0.00    -0.166 F 
ATOM     29  C   UNL     1      -5.468  -9.656   8.544  0.00  0.00    +0.417 C 
ENDBRANCH  27  29
ENDBRANCH  15  16
ENDBRANCH   7  15
TORSDOF 5
ENDMDL
MODEL 7
REMARK VINA RESULT:      -7.2     31.224     34.666
REMARK  Name = 45784274
REMARK  5 active torsions:
REMARK  status: ('A' for Active; 'I' for Inactive)
REMARK    1  A    between atoms: N_7  and  C_15
REMARK    2  A    between atoms: C_10  and  C_14
REMARK    3  A    between atoms: C_15  and  C_16
REMARK    4  A    between atoms: C_23  and  C_28
REMARK    5  A    between atoms: C_27  and  C_29
REMARK                            x       y       z     vdW  Elec       q    Type
REMARK                         _______ _______ _______ _____ _____    ______ ____
ROOT
ATOM      7  N   UNL     1      21.014   5.536  21.448  0.00  0.00    -0.297 NA
ATOM     10  C   UNL     1      19.254   6.984  20.893  0.00  0.00    +0.070 C 
ATOM     11  C   UNL     1      19.747   7.295  22.317  0.00  0.00    +0.028 C 
ATOM     12  C   UNL     1      19.842   5.603  20.571  0.00  0.00    +0.096 C 
ATOM     13  C   UNL     1      20.557   6.072  22.730  0.00  0.00    +0.085 C 
ENDROOT
BRANCH  10  14
ATOM      8  N   UNL     1      16.935   7.469  21.721  0.00  0.00    -0.342 N 
ATOM      9  N   UNL     1      17.078   6.710  19.637  0.00  0.00    -0.232 NA
ATOM     14  C   UNL     1      17.754   7.041  20.714  0.00  0.00    +0.113 A 
ATOM     17  C   UNL     1      15.644   7.409  21.263  0.00  0.00    +0.067 A 
ATOM     18  C   UNL     1      15.759   6.933  19.961  0.00  0.00    +0.089 A 
ATOM     19  C   UNL     1      14.421   7.722  21.859  0.00  0.00    +0.040 A 
ATOM     22  C   UNL     1      14.597   6.752  19.192  0.00  0.00    +0.030 A 
ATOM     23  C   UNL     1      13.275   7.536  21.080  0.00  0.00    +0.057 A 
ATOM     24  C   UNL     1      13.359   7.059  19.770  0.00  0.00    +0.014 A 
ATOM     30  H   UNL     1      17.225   7.774  22.640  0.00  0.00    +0.167 HD
BRANCH  23  28
ATOM      1  F   UNL     1      11.249   6.751  22.081  0.00  0.00    -0.166 F 
ATOM      2  F   UNL     1      11.115   8.483  20.773  0.00  0.00    -0.166 F 
ATOM      3  F   UNL     1      11.997   8.673  22.752  0.00  0.00    -0.166 F 
ATOM     28  C   UNL     1      11.936   7.853  21.662  0.00  0.00    +0.417 C 
ENDBRANCH  23  28
ENDBRANCH  10  14
BRANCH   7  15
ATOM     15  C   UNL     1      21.540   4.184  21.569  0.00  0.00    +0.119 C 
BRANCH  15  16
ATOM     16  C   UNL     1      22.922   4.066  20.985  0.00  0.00    -0.033 A 
ATOM     20  C   UNL     1      23.514   2.812  20.839  0.00  0.00    +0.005 A 
ATOM     21  C   UNL     1      23.612   5.212  20.588  0.00  0.00    +0.005 A 
ATOM     25  C   UNL     1      24.794   2.702  20.297  0.00  0.00    +0.012 A 
ATOM     26  C   UNL     1      24.893   5.104  20.046  0.00  0.00    +0.012 A 
ATOM     27  C   UNL     1      25.483   3.848  19.900  0.00  0.00    +0.055 A 
BRANCH  27  29
ATOM      4  F   UNL     1      27.644   2.864  20.012  0.00  0.00    -0.166 F 
ATOM      5  F   UNL     1      26.861   3.284  18.027  0.00  0.00    -0.166 F 
ATOM      6  F   UNL     1      27.538   4.912  19.290  0.00  0.00    -0.166 F 
ATOM     29  C   UNL     1      26.852   3.732  19.318  0.00  0.00    +0.417 C 
ENDBRANCH  27  29
ENDBRANCH  15  16
ENDBRANCH   7  15
TORSDOF 5
ENDMDL
MODEL 8
REMARK VINA RESULT:      -7.2     28.221     33.319
REMARK  Name = 45784274
REMARK  5 active torsions:
REMARK  status: ('A' for Active; 'I' for Inactive)
REMARK    1  A    between atoms: N_7  and  C_15
REMARK    2  A    between atoms: C_10  and  C_14
REMARK    3  A    between atoms: C_15  and  C_16
REMARK    4  A    between atoms: C_23  and  C_28
REMARK    5  A    between atoms: C_27  and  C_29
REMARK                            x       y       z     vdW  Elec       q    Type
REMARK                         _______ _______ _______ _____ _____    ______ ____
ROOT
ATOM      7  N   UNL     1       9.934   8.900   4.507  0.00  0.00    -0.297 NA
ATOM     10  C   UNL     1      10.052   7.855   2.410  0.00  0.00    +0.070 C 
ATOM     11  C   UNL     1       8.698   7.537   3.067  0.00  0.00    +0.028 C 
ATOM     12  C   UNL     1      10.923   8.391   3.554  0.00  0.00    +0.096 C 
ATOM     13  C   UNL     1       8.884   7.880   4.540  0.00  0.00    +0.085 C 
ENDROOT
BRANCH  10  14
ATOM      8  N   UNL     1      10.199   6.259   0.478  0.00  0.00    -0.342 N 
ATOM      9  N   UNL     1      11.733   6.000   2.065  0.00  0.00    -0.232 NA
ATOM     14  C   UNL     1      10.689   6.697   1.677  0.00  0.00    +0.113 A 
ATOM     17  C   UNL     1      10.979   5.209   0.066  0.00  0.00    +0.067 A 
ATOM     18  C   UNL     1      11.928   5.066   1.074  0.00  0.00    +0.089 A 
ATOM     19  C   UNL     1      10.935   4.396  -1.067  0.00  0.00    +0.040 A 
ATOM     22  C   UNL     1      12.901   4.058   0.961  0.00  0.00    +0.030 A 
ATOM     23  C   UNL     1      11.910   3.398  -1.163  0.00  0.00    +0.057 A 
ATOM     24  C   UNL     1      12.876   3.230  -0.168  0.00  0.00    +0.014 A 
ATOM     30  H   UNL     1       9.405   6.639  -0.018  0.00  0.00    +0.167 HD
BRANCH  23  28
ATOM      1  F   UNL     1      10.745   2.505  -3.052  0.00  0.00    -0.166 F 
ATOM      2  F   UNL     1      12.134   1.190  -2.018  0.00  0.00    -0.166 F 
ATOM      3  F   UNL     1      12.883   2.805  -3.267  0.00  0.00    -0.166 F 
ATOM     28  C   UNL     1      11.917   2.494  -2.353  0.00  0.00    +0.417 C 
ENDBRANCH  23  28
ENDBRANCH  10  14
BRANCH   7  15
ATOM     15  C   UNL     1      10.505   9.149   5.822  0.00  0.00    +0.119 C 
BRANCH  15  16
ATOM     16  C   UNL     1      10.211   8.028   6.782  0.00  0.00    -0.033 A 
ATOM     20  C   UNL     1      11.076   6.936   6.867  0.00  0.00    +0.005 A 
ATOM     21  C   UNL     1       9.075   8.080   7.590  0.00  0.00    +0.005 A 
ATOM     25  C   UNL     1      10.804   5.897   7.757  0.00  0.00    +0.012 A 
ATOM     26  C   UNL     1       8.802   7.042   8.480  0.00  0.00    +0.012 A 
ATOM     27  C   UNL     1       9.668   5.951   8.564  0.00  0.00    +0.055 A 
BRANCH  27  29
ATOM      4  F   UNL     1      10.323   4.733  10.497  0.00  0.00    -0.166 F 
ATOM      5  F   UNL     1       8.187   4.980  10.173  0.00  0.00    -0.166 F 
ATOM      6  F   UNL     1       9.319   3.612   8.927  0.00  0.00    -0.166 F 
ATOM     29  C   UNL     1       9.378   4.842   9.518  0.00  0.00    +0.417 C 
ENDBRANCH  27  29
ENDBRANCH  15  16
ENDBRANCH   7  15
TORSDOF 5
ENDMDL
MODEL 9
REMARK VINA RESULT:      -7.2     18.604     21.216
REMARK  Name = 45784274
REMARK  5 active torsions:
REMARK  status: ('A' for Active; 'I' for Inactive)
REMARK    1  A    between atoms: N_7  and  C_15
REMARK    2  A    between atoms: C_10  and  C_14
REMARK    3  A    between atoms: C_15  and  C_16
REMARK    4  A    between atoms: C_23  and  C_28
REMARK    5  A    between atoms: C_27  and  C_29
REMARK                            x       y       z     vdW  Elec       q    Type
REMARK                         _______ _______ _______ _____ _____    ______ ____
ROOT
ATOM      7  N   UNL     1      -6.904 -10.019   7.633  0.00  0.00    -0.297 NA
ATOM     10  C   UNL     1      -8.880  -9.089   8.492  0.00  0.00    +0.070 C 
ATOM     11  C   UNL     1      -9.135  -9.617   7.069  0.00  0.00    +0.028 C 
ATOM     12  C   UNL     1      -7.351  -9.027   8.614  0.00  0.00    +0.096 C 
ATOM     13  C   UNL     1      -7.750  -9.795   6.460  0.00  0.00    +0.085 C 
ENDROOT
BRANCH  10  14
ATOM      8  N   UNL     1     -10.658  -7.716   9.609  0.00  0.00    -0.342 N 
ATOM      9  N   UNL     1      -9.183  -6.582   8.393  0.00  0.00    -0.232 NA
ATOM     14  C   UNL     1      -9.550  -7.773   8.811  0.00  0.00    +0.113 A 
ATOM     17  C   UNL     1     -11.031  -6.400   9.712  0.00  0.00    +0.067 A 
ATOM     18  C   UNL     1     -10.096  -5.713   8.944  0.00  0.00    +0.089 A 
ATOM     19  C   UNL     1     -12.076  -5.772  10.391  0.00  0.00    +0.040 A 
ATOM     22  C   UNL     1     -10.192  -4.315   8.836  0.00  0.00    +0.030 A 
ATOM     23  C   UNL     1     -12.157  -4.380  10.273  0.00  0.00    +0.057 A 
ATOM     24  C   UNL     1     -11.233  -3.664   9.509  0.00  0.00    +0.014 A 
ATOM     30  H   UNL     1     -11.122  -8.500  10.045  0.00  0.00    +0.167 HD
BRANCH  23  28
ATOM      1  F   UNL     1     -14.218  -4.470  11.483  0.00  0.00    -0.166 F 
ATOM      2  F   UNL     1     -13.906  -2.774  10.158  0.00  0.00    -0.166 F 
ATOM      3  F   UNL     1     -12.819  -2.908  12.037  0.00  0.00    -0.166 F 
ATOM     28  C   UNL     1     -13.253  -3.649  10.976  0.00  0.00    +0.417 C 
ENDBRANCH  23  28
ENDBRANCH  10  14
BRANCH   7  15
ATOM     15  C   UNL     1      -5.487  -9.897   7.325  0.00  0.00    +0.119 C 
BRANCH  15  16
ATOM     16  C   UNL     1      -4.632 -10.045   8.555  0.00  0.00    -0.033 A 
ATOM     20  C   UNL     1      -4.478 -11.296   9.152  0.00  0.00    +0.005 A 
ATOM     21  C   UNL     1      -3.992  -8.930   9.098  0.00  0.00    +0.005 A 
ATOM     25  C   UNL     1      -3.685 -11.433  10.291  0.00  0.00    +0.012 A 
ATOM     26  C   UNL     1      -3.199  -9.067  10.237  0.00  0.00    +0.012 A 
ATOM     27  C   UNL     1      -3.045 -10.319  10.833  0.00  0.00    +0.055 A 
BRANCH  27  29
ATOM      4  F   UNL     1      -1.110  -9.637  12.033  0.00  0.00    -0.166 F 
ATOM      5  F   UNL     1      -2.851 -10.185  13.214  0.00  0.00    -0.166 F 
ATOM      6  F   UNL     1      -1.691 -11.724  12.218  0.00  0.00    -0.166 F 
ATOM     29  C   UNL     1      -2.194 -10.465  12.049  0.00  0.00    +0.417 C 
ENDBRANCH  27  29
ENDBRANCH  15  16
ENDBRANCH   7  15
TORSDOF 5
ENDMDL
MODEL 10
REMARK VINA RESULT:      -7.1     18.082     19.432
REMARK  Name = 45784274
REMARK  5 active torsions:
REMARK  status: ('A' for Active; 'I' for Inactive)
REMARK    1  A    between atoms: N_7  and  C_15
REMARK    2  A    between atoms: C_10  and  C_14
REMARK    3  A    between atoms: C_15  and  C_16
REMARK    4  A    between atoms: C_23  and  C_28
REMARK    5  A    between atoms: C_27  and  C_29
REMARK                            x       y       z     vdW  Elec       q    Type
REMARK                         _______ _______ _______ _____ _____    ______ ____
ROOT
ATOM      7  N   UNL     1      -4.144 -11.832  16.415  0.00  0.00    -0.297 NA
ATOM     10  C   UNL     1      -5.652 -10.365  17.454  0.00  0.00    +0.070 C 
ATOM     11  C   UNL     1      -5.369 -11.558  18.385  0.00  0.00    +0.028 C 
ATOM     12  C   UNL     1      -5.147 -10.819  16.078  0.00  0.00    +0.096 C 
ATOM     13  C   UNL     1      -4.752 -12.622  17.486  0.00  0.00    +0.085 C 
ENDROOT
BRANCH  10  14
ATOM      8  N   UNL     1      -7.525  -8.977  16.528  0.00  0.00    -0.342 N 
ATOM      9  N   UNL     1      -8.058 -10.309  18.225  0.00  0.00    -0.232 NA
ATOM     14  C   UNL     1      -7.091  -9.905  17.432  0.00  0.00    +0.113 A 
ATOM     17  C   UNL     1      -8.862  -8.767  16.753  0.00  0.00    +0.067 A 
ATOM     18  C   UNL     1      -9.170  -9.609  17.818  0.00  0.00    +0.089 A 
ATOM     19  C   UNL     1      -9.799  -7.937  16.136  0.00  0.00    +0.040 A 
ATOM     22  C   UNL     1     -10.487  -9.639  18.308  0.00  0.00    +0.030 A 
ATOM     23  C   UNL     1     -11.104  -7.980  16.637  0.00  0.00    +0.057 A 
ATOM     24  C   UNL     1     -11.443  -8.814  17.704  0.00  0.00    +0.014 A 
ATOM     30  H   UNL     1      -6.965  -8.524  15.819  0.00  0.00    +0.167 HD
BRANCH  23  28
ATOM      1  F   UNL     1     -12.036  -5.795  16.348  0.00  0.00    -0.166 F 
ATOM      2  F   UNL     1     -13.415  -7.476  16.389  0.00  0.00    -0.166 F 
ATOM      3  F   UNL     1     -12.147  -7.144  14.653  0.00  0.00    -0.166 F 
ATOM     28  C   UNL     1     -12.153  -7.114  16.018  0.00  0.00    +0.417 C 
ENDBRANCH  23  28
ENDBRANCH  10  14
BRANCH   7  15
ATOM     15  C   UNL     1      -3.770 -12.647  15.269  0.00  0.00    +0.119 C 
BRANCH  15  16
ATOM     16  C   UNL     1      -3.603 -11.819  14.023  0.00  0.00    -0.033 A 
ATOM     20  C   UNL     1      -4.605 -11.808  13.053  0.00  0.00    +0.005 A 
ATOM     21  C   UNL     1      -2.446 -11.062  13.838  0.00  0.00    +0.005 A 
ATOM     25  C   UNL     1      -4.452 -11.041  11.899  0.00  0.00    +0.012 A 
ATOM     26  C   UNL     1      -2.291 -10.294  12.684  0.00  0.00    +0.012 A 
ATOM     27  C   UNL     1      -3.295 -10.283  11.714  0.00  0.00    +0.055 A 
BRANCH  27  29
ATOM      4  F   UNL     1      -3.988  -8.399  10.442  0.00  0.00    -0.166 F 
ATOM      5  F   UNL     1      -1.881  -8.926  10.342  0.00  0.00    -0.166 F 
ATOM      6  F   UNL     1      -3.353 -10.154   9.326  0.00  0.00    -0.166 F 
ATOM     29  C   UNL     1      -3.131  -9.460  10.482  0.00  0.00    +0.417 C 
ENDBRANCH  27  29
ENDBRANCH  15  16
ENDBRANCH   7  15
TORSDOF 5
ENDMDL
