MODEL 1
REMARK VINA RESULT:      -7.9      0.000      0.000
REMARK  Name = 9391198
REMARK  6 active torsions:
REMARK  status: ('A' for Active; 'I' for Inactive)
REMARK    1  A    between atoms: S_1  and  N_9
REMARK    2  A    between atoms: S_1  and  C_24
REMARK    3  A    between atoms: O_6  and  C_33
REMARK    4  A    between atoms: O_6  and  C_35
REMARK    5  A    between atoms: N_9  and  C_18
REMARK    6  A    between atoms: N_10  and  C_23
REMARK                            x       y       z     vdW  Elec       q    Type
REMARK                         _______ _______ _______ _____ _____    ______ ____
ROOT
ATOM      2  O   UNL     1      14.865  11.885  21.776  0.00  0.00    -0.268 OA
ATOM      3  O   UNL     1      15.451   6.900  18.635  0.00  0.00    -0.252 OA
ATOM      7  N   UNL     1      13.456  10.395  20.641  0.00  0.00    -0.310 N 
ATOM      8  N   UNL     1      13.756   7.229  20.177  0.00  0.00    -0.284 N 
ATOM     10  N   UNL     1      15.929   6.650  20.892  0.00  0.00    -0.269 N 
ATOM     11  C   UNL     1      12.312   8.440  21.833  0.00  0.00    +0.027 C 
ATOM     12  C   UNL     1      11.955   8.779  19.429  0.00  0.00    +0.055 C 
ATOM     13  C   UNL     1      11.244   8.597  20.767  0.00  0.00    +0.018 C 
ATOM     14  C   UNL     1      13.109   9.744  21.910  0.00  0.00    +0.130 C 
ATOM     15  C   UNL     1      13.218   7.226  21.547  0.00  0.00    +0.114 C 
ATOM     16  C   UNL     1      12.776   7.515  19.122  0.00  0.00    +0.119 C 
ATOM     17  C   UNL     1      12.867  10.004  19.421  0.00  0.00    +0.049 A 
ATOM     18  C   UNL     1      13.162  10.713  18.311  0.00  0.00    +0.068 A 
ATOM     19  C   UNL     1      14.336  11.491  20.736  0.00  0.00    +0.252 A 
ATOM     20  C   UNL     1      15.089   6.929  19.815  0.00  0.00    +0.306 C 
ATOM     21  C   UNL     1      14.045  11.843  18.339  0.00  0.00    +0.031 A 
ATOM     22  C   UNL     1      14.625  12.227  19.477  0.00  0.00    +0.072 A 
ATOM     37  H   UNL     1      15.518   6.264  21.734  0.00  0.00    +0.156 HD
ENDROOT
BRANCH  10  23
ATOM     23  C   UNL     1      17.338   6.797  20.942  0.00  0.00    +0.035 A 
ATOM     25  C   UNL     1      17.896   7.913  21.559  0.00  0.00    +0.027 A 
ATOM     26  C   UNL     1      18.155   5.824  20.372  0.00  0.00    +0.027 A 
ATOM     29  C   UNL     1      19.283   8.057  21.606  0.00  0.00    +0.047 A 
ATOM     30  C   UNL     1      19.542   5.969  20.421  0.00  0.00    +0.047 A 
ATOM     33  C   UNL     1      20.106   7.086  21.038  0.00  0.00    +0.120 A 
BRANCH  33   6
ATOM      6  O   UNL     1      21.458   7.226  21.086  0.00  0.00    -0.495 OA
ATOM     35  C   UNL     1      22.240   6.199  20.478  0.00  0.00    +0.277 C 
ENDBRANCH  33   6
ENDBRANCH  10  23
BRANCH  18   9
ATOM      9  N   UNL     1      12.607  10.321  17.069  0.00  0.00    -0.215 N 
ATOM     36  H   UNL     1      11.959  11.000  16.651  0.00  0.00    +0.174 HD
BRANCH   9   1
ATOM      1  S   UNL     1      13.637   9.537  15.987  0.00  0.00    +0.072 S 
ATOM      4  O   UNL     1      14.737   8.927  16.709  0.00  0.00    -0.150 OA
ATOM      5  O   UNL     1      12.858   8.754  15.047  0.00  0.00    -0.150 OA
BRANCH   1  24
ATOM     24  C   UNL     1      14.290  10.923  15.104  0.00  0.00    +0.108 A 
ATOM     27  C   UNL     1      13.423  11.762  14.427  0.00  0.00    +0.029 A 
ATOM     28  C   UNL     1      15.657  11.143  15.109  0.00  0.00    +0.029 A 
ATOM     31  C   UNL     1      13.939  12.855  13.730  0.00  0.00    +0.002 A 
ATOM     32  C   UNL     1      16.172  12.236  14.413  0.00  0.00    +0.002 A 
ATOM     34  C   UNL     1      15.312  13.092  13.723  0.00  0.00    +0.000 A 
ENDBRANCH   1  24
ENDBRANCH   9   1
ENDBRANCH  18   9
TORSDOF 5
ENDMDL
MODEL 2
REMARK VINA RESULT:      -7.1     27.792     30.977
REMARK  Name = 9391198
REMARK  6 active torsions:
REMARK  status: ('A' for Active; 'I' for Inactive)
REMARK    1  A    between atoms: S_1  and  N_9
REMARK    2  A    between atoms: S_1  and  C_24
REMARK    3  A    between atoms: O_6  and  C_33
REMARK    4  A    between atoms: O_6  and  C_35
REMARK    5  A    between atoms: N_9  and  C_18
REMARK    6  A    between atoms: N_10  and  C_23
REMARK                            x       y       z     vdW  Elec       q    Type
REMARK                         _______ _______ _______ _____ _____    ______ ____
ROOT
ATOM      2  O   UNL     1      -9.074 -14.135  18.633  0.00  0.00    -0.268 OA
ATOM      3  O   UNL     1      -7.412  -9.192  15.830  0.00  0.00    -0.252 OA
ATOM      7  N   UNL     1      -7.062 -13.057  18.100  0.00  0.00    -0.310 N 
ATOM      8  N   UNL     1      -6.427  -9.922  17.793  0.00  0.00    -0.284 N 
ATOM     10  N   UNL     1      -8.507  -8.809  17.840  0.00  0.00    -0.269 N 
ATOM     11  C   UNL     1      -5.921 -11.441  19.724  0.00  0.00    +0.027 C 
ATOM     12  C   UNL     1      -4.912 -11.882  17.530  0.00  0.00    +0.055 C 
ATOM     13  C   UNL     1      -4.640 -11.872  19.032  0.00  0.00    +0.018 C 
ATOM     14  C   UNL     1      -6.990 -12.503  19.457  0.00  0.00    +0.130 C 
ATOM     15  C   UNL     1      -6.368 -10.042  19.258  0.00  0.00    +0.114 C 
ATOM     16  C   UNL     1      -5.262 -10.454  17.076  0.00  0.00    +0.119 C 
ATOM     17  C   UNL     1      -6.041 -12.838  17.153  0.00  0.00    +0.049 A 
ATOM     18  C   UNL     1      -6.129 -13.460  15.958  0.00  0.00    +0.068 A 
ATOM     19  C   UNL     1      -8.164 -13.896  17.839  0.00  0.00    +0.252 A 
ATOM     20  C   UNL     1      -7.461  -9.300  17.058  0.00  0.00    +0.306 C 
ATOM     21  C   UNL     1      -7.220 -14.332  15.631  0.00  0.00    +0.031 A 
ATOM     22  C   UNL     1      -8.206 -14.547  16.504  0.00  0.00    +0.072 A 
ATOM     37  H   UNL     1      -8.304  -8.531  18.793  0.00  0.00    +0.156 HD
ENDROOT
BRANCH  10  23
ATOM     23  C   UNL     1      -9.850  -8.596  17.440  0.00  0.00    +0.035 A 
ATOM     25  C   UNL     1     -10.179  -7.473  16.687  0.00  0.00    +0.027 A 
ATOM     26  C   UNL     1     -10.833  -9.512  17.805  0.00  0.00    +0.027 A 
ATOM     29  C   UNL     1     -11.502  -7.264  16.295  0.00  0.00    +0.047 A 
ATOM     30  C   UNL     1     -12.155  -9.303  17.413  0.00  0.00    +0.047 A 
ATOM     33  C   UNL     1     -12.490  -8.179  16.658  0.00  0.00    +0.120 A 
BRANCH  33   6
ATOM      6  O   UNL     1     -13.779  -7.976  16.274  0.00  0.00    -0.495 OA
ATOM     35  C   UNL     1     -14.072  -6.752  15.601  0.00  0.00    +0.277 C 
ENDBRANCH  33   6
ENDBRANCH  10  23
BRANCH  18   9
ATOM      9  N   UNL     1      -5.131 -13.232  14.981  0.00  0.00    -0.215 N 
ATOM     36  H   UNL     1      -4.443 -13.988  14.880  0.00  0.00    +0.174 HD
BRANCH   9   1
ATOM      1  S   UNL     1      -5.626 -12.502  13.542  0.00  0.00    +0.072 S 
ATOM      4  O   UNL     1      -5.859 -13.515  12.531  0.00  0.00    -0.150 OA
ATOM      5  O   UNL     1      -6.639 -11.502  13.822  0.00  0.00    -0.150 OA
BRANCH   1  24
ATOM     24  C   UNL     1      -4.146 -11.642  13.095  0.00  0.00    +0.108 A 
ATOM     27  C   UNL     1      -3.917 -11.342  11.763  0.00  0.00    +0.029 A 
ATOM     28  C   UNL     1      -3.248 -11.284  14.085  0.00  0.00    +0.029 A 
ATOM     31  C   UNL     1      -2.749 -10.664  11.411  0.00  0.00    +0.002 A 
ATOM     32  C   UNL     1      -2.081 -10.607  13.731  0.00  0.00    +0.002 A 
ATOM     34  C   UNL     1      -1.832 -10.297  12.394  0.00  0.00    +0.000 A 
ENDBRANCH   1  24
ENDBRANCH   9   1
ENDBRANCH  18   9
TORSDOF 5
ENDMDL
MODEL 3
REMARK VINA RESULT:      -6.9     13.009     16.167
REMARK  Name = 9391198
REMARK  6 active torsions:
REMARK  status: ('A' for Active; 'I' for Inactive)
REMARK    1  A    between atoms: S_1  and  N_9
REMARK    2  A    between atoms: S_1  and  C_24
REMARK    3  A    between atoms: O_6  and  C_33
REMARK    4  A    between atoms: O_6  and  C_35
REMARK    5  A    between atoms: N_9  and  C_18
REMARK    6  A    between atoms: N_10  and  C_23
REMARK                            x       y       z     vdW  Elec       q    Type
REMARK                         _______ _______ _______ _____ _____    ______ ____
ROOT
ATOM      2  O   UNL     1      13.652   7.124   7.303  0.00  0.00    -0.268 OA
ATOM      3  O   UNL     1       9.989   6.894   2.657  0.00  0.00    -0.252 OA
ATOM      7  N   UNL     1      11.378   7.509   6.889  0.00  0.00    -0.310 N 
ATOM      8  N   UNL     1       9.410   6.121   4.760  0.00  0.00    -0.284 N 
ATOM     10  N   UNL     1      10.772   4.819   3.339  0.00  0.00    -0.269 N 
ATOM     11  C   UNL     1       9.614   5.686   7.222  0.00  0.00    +0.027 C 
ATOM     12  C   UNL     1       8.936   7.907   6.431  0.00  0.00    +0.055 C 
ATOM     13  C   UNL     1       8.670   6.843   7.492  0.00  0.00    +0.018 C 
ATOM     14  C   UNL     1      11.048   6.181   7.418  0.00  0.00    +0.130 C 
ATOM     15  C   UNL     1       9.393   5.096   5.816  0.00  0.00    +0.114 C 
ATOM     16  C   UNL     1       8.616   7.323   5.044  0.00  0.00    +0.119 C 
ATOM     17  C   UNL     1      10.378   8.408   6.463  0.00  0.00    +0.049 A 
ATOM     18  C   UNL     1      10.751   9.647   6.080  0.00  0.00    +0.068 A 
ATOM     19  C   UNL     1      12.742   7.862   6.925  0.00  0.00    +0.252 A 
ATOM     20  C   UNL     1      10.067   6.010   3.514  0.00  0.00    +0.306 C 
ATOM     21  C   UNL     1      12.120  10.073   6.099  0.00  0.00    +0.031 A 
ATOM     22  C   UNL     1      13.088   9.239   6.486  0.00  0.00    +0.072 A 
ATOM     37  H   UNL     1      10.454   3.996   3.838  0.00  0.00    +0.156 HD
ENDROOT
BRANCH  10  23
ATOM     23  C   UNL     1      11.883   4.597   2.488  0.00  0.00    +0.035 A 
ATOM     25  C   UNL     1      11.969   3.416   1.756  0.00  0.00    +0.027 A 
ATOM     26  C   UNL     1      12.883   5.561   2.390  0.00  0.00    +0.027 A 
ATOM     29  C   UNL     1      13.064   3.197   0.919  0.00  0.00    +0.047 A 
ATOM     30  C   UNL     1      13.977   5.342   1.553  0.00  0.00    +0.047 A 
ATOM     33  C   UNL     1      14.067   4.160   0.817  0.00  0.00    +0.120 A 
BRANCH  33   6
ATOM      6  O   UNL     1      15.133   3.948  -0.001  0.00  0.00    -0.495 OA
ATOM     35  C   UNL     1      14.971   4.279  -1.379  0.00  0.00    +0.277 C 
ENDBRANCH  33   6
ENDBRANCH  10  23
BRANCH  18   9
ATOM      9  N   UNL     1       9.768  10.557   5.621  0.00  0.00    -0.215 N 
ATOM     36  H   UNL     1       9.587  11.351   6.245  0.00  0.00    +0.174 HD
BRANCH   9   1
ATOM      1  S   UNL     1       9.774  10.915   3.971  0.00  0.00    +0.072 S 
ATOM      4  O   UNL     1       9.990  12.337   3.777  0.00  0.00    -0.150 OA
ATOM      5  O   UNL     1      10.591   9.949   3.261  0.00  0.00    -0.150 OA
BRANCH   1  24
ATOM     24  C   UNL     1       8.086  10.578   3.564  0.00  0.00    +0.108 A 
ATOM     27  C   UNL     1       7.110  10.758   4.529  0.00  0.00    +0.029 A 
ATOM     28  C   UNL     1       7.773  10.142   2.289  0.00  0.00    +0.029 A 
ATOM     31  C   UNL     1       5.779  10.492   4.208  0.00  0.00    +0.002 A 
ATOM     32  C   UNL     1       6.443   9.876   1.969  0.00  0.00    +0.002 A 
ATOM     34  C   UNL     1       5.445  10.051   2.928  0.00  0.00    +0.000 A 
ENDBRANCH   1  24
ENDBRANCH   9   1
ENDBRANCH  18   9
TORSDOF 5
ENDMDL
MODEL 4
REMARK VINA RESULT:      -6.9     15.541     20.166
REMARK  Name = 9391198
REMARK  6 active torsions:
REMARK  status: ('A' for Active; 'I' for Inactive)
REMARK    1  A    between atoms: S_1  and  N_9
REMARK    2  A    between atoms: S_1  and  C_24
REMARK    3  A    between atoms: O_6  and  C_33
REMARK    4  A    between atoms: O_6  and  C_35
REMARK    5  A    between atoms: N_9  and  C_18
REMARK    6  A    between atoms: N_10  and  C_23
REMARK                            x       y       z     vdW  Elec       q    Type
REMARK                         _______ _______ _______ _____ _____    ______ ____
ROOT
ATOM      2  O   UNL     1      13.462   8.660  -0.498  0.00  0.00    -0.268 OA
ATOM      3  O   UNL     1       9.883   4.032   0.409  0.00  0.00    -0.252 OA
ATOM      7  N   UNL     1      13.504   6.674   0.746  0.00  0.00    -0.310 N 
ATOM      8  N   UNL     1      12.169   3.820   0.113  0.00  0.00    -0.284 N 
ATOM     10  N   UNL     1      10.747   4.143  -1.742  0.00  0.00    -0.269 N 
ATOM     11  C   UNL     1      14.559   4.528  -0.165  0.00  0.00    +0.027 C 
ATOM     12  C   UNL     1      13.540   4.533   2.067  0.00  0.00    +0.055 C 
ATOM     13  C   UNL     1      14.813   4.198   1.294  0.00  0.00    +0.018 C 
ATOM     14  C   UNL     1      14.332   6.037  -0.284  0.00  0.00    +0.130 C 
ATOM     15  C   UNL     1      13.373   3.720  -0.726  0.00  0.00    +0.114 C 
ATOM     16  C   UNL     1      12.395   3.644   1.553  0.00  0.00    +0.119 C 
ATOM     17  C   UNL     1      13.154   6.004   1.936  0.00  0.00    +0.049 A 
ATOM     18  C   UNL     1      12.473   6.688   2.880  0.00  0.00    +0.068 A 
ATOM     19  C   UNL     1      13.168   8.023   0.514  0.00  0.00    +0.252 A 
ATOM     20  C   UNL     1      10.850   4.011  -0.358  0.00  0.00    +0.306 C 
ATOM     21  C   UNL     1      12.105   8.063   2.710  0.00  0.00    +0.031 A 
ATOM     22  C   UNL     1      12.414   8.718   1.589  0.00  0.00    +0.072 A 
ATOM     37  H   UNL     1      11.448   3.695  -2.321  0.00  0.00    +0.156 HD
ENDROOT
BRANCH  10  23
ATOM     23  C   UNL     1       9.725   4.806  -2.467  0.00  0.00    +0.035 A 
ATOM     25  C   UNL     1       9.218   4.232  -3.630  0.00  0.00    +0.027 A 
ATOM     26  C   UNL     1       9.234   6.027  -2.012  0.00  0.00    +0.027 A 
ATOM     29  C   UNL     1       8.213   4.886  -4.344  0.00  0.00    +0.047 A 
ATOM     30  C   UNL     1       8.229   6.679  -2.726  0.00  0.00    +0.047 A 
ATOM     33  C   UNL     1       7.718   6.108  -3.892  0.00  0.00    +0.120 A 
BRANCH  33   6
ATOM      6  O   UNL     1       6.736   6.744  -4.586  0.00  0.00    -0.495 OA
ATOM     35  C   UNL     1       5.392   6.342  -4.326  0.00  0.00    +0.277 C 
ENDBRANCH  33   6
ENDBRANCH  10  23
BRANCH  18   9
ATOM      9  N   UNL     1      12.084   6.028   4.071  0.00  0.00    -0.215 N 
ATOM     36  H   UNL     1      12.430   6.457   4.937  0.00  0.00    +0.174 HD
BRANCH   9   1
ATOM      1  S   UNL     1      10.505   5.436   4.132  0.00  0.00    +0.072 S 
ATOM      4  O   UNL     1       9.739   5.959   3.017  0.00  0.00    -0.150 OA
ATOM      5  O   UNL     1      10.526   4.010   4.399  0.00  0.00    -0.150 OA
BRANCH   1  24
ATOM     24  C   UNL     1       9.919   6.238   5.596  0.00  0.00    +0.108 A 
ATOM     27  C   UNL     1      10.663   6.146   6.759  0.00  0.00    +0.029 A 
ATOM     28  C   UNL     1       8.729   6.942   5.549  0.00  0.00    +0.029 A 
ATOM     31  C   UNL     1      10.201   6.779   7.914  0.00  0.00    +0.002 A 
ATOM     32  C   UNL     1       8.267   7.573   6.704  0.00  0.00    +0.002 A 
ATOM     34  C   UNL     1       9.003   7.492   7.886  0.00  0.00    +0.000 A 
ENDBRANCH   1  24
ENDBRANCH   9   1
ENDBRANCH  18   9
TORSDOF 5
ENDMDL
MODEL 5
REMARK VINA RESULT:      -6.8     27.836     30.816
REMARK  Name = 9391198
REMARK  6 active torsions:
REMARK  status: ('A' for Active; 'I' for Inactive)
REMARK    1  A    between atoms: S_1  and  N_9
REMARK    2  A    between atoms: S_1  and  C_24
REMARK    3  A    between atoms: O_6  and  C_33
REMARK    4  A    between atoms: O_6  and  C_35
REMARK    5  A    between atoms: N_9  and  C_18
REMARK    6  A    between atoms: N_10  and  C_23
REMARK                            x       y       z     vdW  Elec       q    Type
REMARK                         _______ _______ _______ _____ _____    ______ ____
ROOT
ATOM      2  O   UNL     1      -6.557 -15.189  16.872  0.00  0.00    -0.268 OA
ATOM      3  O   UNL     1      -8.129  -9.494  17.265  0.00  0.00    -0.252 OA
ATOM      7  N   UNL     1      -5.499 -13.102  16.736  0.00  0.00    -0.310 N 
ATOM      8  N   UNL     1      -6.198 -10.339  18.222  0.00  0.00    -0.284 N 
ATOM     10  N   UNL     1      -8.290 -10.653  19.269  0.00  0.00    -0.269 N 
ATOM     11  C   UNL     1      -4.404 -12.004  18.772  0.00  0.00    +0.027 C 
ATOM     12  C   UNL     1      -4.375 -10.854  16.604  0.00  0.00    +0.055 C 
ATOM     13  C   UNL     1      -3.495 -11.342  17.753  0.00  0.00    +0.018 C 
ATOM     14  C   UNL     1      -5.037 -13.237  18.123  0.00  0.00    +0.130 C 
ATOM     15  C   UNL     1      -5.466 -11.020  19.301  0.00  0.00    +0.114 C 
ATOM     16  C   UNL     1      -5.361  -9.803  17.142  0.00  0.00    +0.119 C 
ATOM     17  C   UNL     1      -5.143 -11.995  15.939  0.00  0.00    +0.049 A 
ATOM     18  C   UNL     1      -5.523 -11.987  14.644  0.00  0.00    +0.068 A 
ATOM     19  C   UNL     1      -6.233 -14.191  16.226  0.00  0.00    +0.252 A 
ATOM     20  C   UNL     1      -7.594 -10.123  18.182  0.00  0.00    +0.306 C 
ATOM     21  C   UNL     1      -6.266 -13.066  14.061  0.00  0.00    +0.031 A 
ATOM     22  C   UNL     1      -6.626 -14.121  14.795  0.00  0.00    +0.072 A 
ATOM     37  H   UNL     1      -7.801 -10.748  20.152  0.00  0.00    +0.156 HD
ENDROOT
BRANCH  10  23
ATOM     23  C   UNL     1      -9.652 -11.043  19.308  0.00  0.00    +0.035 A 
ATOM     25  C   UNL     1     -10.569 -10.283  20.029  0.00  0.00    +0.027 A 
ATOM     26  C   UNL     1     -10.065 -12.184  18.625  0.00  0.00    +0.027 A 
ATOM     29  C   UNL     1     -11.909 -10.668  20.068  0.00  0.00    +0.047 A 
ATOM     30  C   UNL     1     -11.405 -12.568  18.665  0.00  0.00    +0.047 A 
ATOM     33  C   UNL     1     -12.327 -11.810  19.386  0.00  0.00    +0.120 A 
BRANCH  33   6
ATOM      6  O   UNL     1     -13.635 -12.184  19.422  0.00  0.00    -0.495 OA
ATOM     35  C   UNL     1     -14.458 -11.574  20.416  0.00  0.00    +0.277 C 
ENDBRANCH  33   6
ENDBRANCH  10  23
BRANCH  18   9
ATOM      9  N   UNL     1      -5.202 -10.873  13.833  0.00  0.00    -0.215 N 
ATOM     36  H   UNL     1      -5.358  -9.958  14.271  0.00  0.00    +0.174 HD
BRANCH   9   1
ATOM      1  S   UNL     1      -3.813 -10.998  12.882  0.00  0.00    +0.072 S 
ATOM      4  O   UNL     1      -2.716 -10.295  13.520  0.00  0.00    -0.150 OA
ATOM      5  O   UNL     1      -3.643 -12.368  12.437  0.00  0.00    -0.150 OA
BRANCH   1  24
ATOM     24  C   UNL     1      -4.301 -10.043  11.475  0.00  0.00    +0.108 A 
ATOM     27  C   UNL     1      -5.622  -9.648  11.353  0.00  0.00    +0.029 A 
ATOM     28  C   UNL     1      -3.353  -9.710  10.523  0.00  0.00    +0.029 A 
ATOM     31  C   UNL     1      -6.007  -8.896  10.243  0.00  0.00    +0.002 A 
ATOM     32  C   UNL     1      -3.739  -8.959   9.414  0.00  0.00    +0.002 A 
ATOM     34  C   UNL     1      -5.066  -8.552   9.273  0.00  0.00    +0.000 A 
ENDBRANCH   1  24
ENDBRANCH   9   1
ENDBRANCH  18   9
TORSDOF 5
ENDMDL
MODEL 6
REMARK VINA RESULT:      -6.7      2.297      7.419
REMARK  Name = 9391198
REMARK  6 active torsions:
REMARK  status: ('A' for Active; 'I' for Inactive)
REMARK    1  A    between atoms: S_1  and  N_9
REMARK    2  A    between atoms: S_1  and  C_24
REMARK    3  A    between atoms: O_6  and  C_33
REMARK    4  A    between atoms: O_6  and  C_35
REMARK    5  A    between atoms: N_9  and  C_18
REMARK    6  A    between atoms: N_10  and  C_23
REMARK                            x       y       z     vdW  Elec       q    Type
REMARK                         _______ _______ _______ _____ _____    ______ ____
ROOT
ATOM      2  O   UNL     1      11.744   7.612  19.097  0.00  0.00    -0.268 OA
ATOM      3  O   UNL     1      15.719  12.000  19.163  0.00  0.00    -0.252 OA
ATOM      7  N   UNL     1      12.800   8.948  20.707  0.00  0.00    -0.310 N 
ATOM      8  N   UNL     1      13.833  11.985  20.505  0.00  0.00    -0.284 N 
ATOM     10  N   UNL     1      13.679  12.594  18.230  0.00  0.00    -0.269 N 
ATOM     11  C   UNL     1      11.742  11.109  21.579  0.00  0.00    +0.027 C 
ATOM     12  C   UNL     1      13.934  10.398  22.423  0.00  0.00    +0.055 C 
ATOM     13  C   UNL     1      12.529  10.819  22.844  0.00  0.00    +0.018 C 
ATOM     14  C   UNL     1      11.613   9.807  20.786  0.00  0.00    +0.130 C 
ATOM     15  C   UNL     1      12.402  12.227  20.749  0.00  0.00    +0.114 C 
ATOM     16  C   UNL     1      14.605  11.567  21.681  0.00  0.00    +0.119 C 
ATOM     17  C   UNL     1      13.923   9.157  21.534  0.00  0.00    +0.049 A 
ATOM     18  C   UNL     1      14.938   8.268  21.475  0.00  0.00    +0.068 A 
ATOM     19  C   UNL     1      12.706   7.851  19.828  0.00  0.00    +0.252 A 
ATOM     20  C   UNL     1      14.502  12.175  19.275  0.00  0.00    +0.306 C 
ATOM     21  C   UNL     1      14.903   7.127  20.607  0.00  0.00    +0.031 A 
ATOM     22  C   UNL     1      13.858   6.912  19.806  0.00  0.00    +0.072 A 
ATOM     37  H   UNL     1      12.846  13.125  18.459  0.00  0.00    +0.156 HD
ENDROOT
BRANCH  10  23
ATOM     23  C   UNL     1      13.892  12.407  16.842  0.00  0.00    +0.035 A 
ATOM     25  C   UNL     1      14.021  13.513  16.007  0.00  0.00    +0.027 A 
ATOM     26  C   UNL     1      13.969  11.118  16.321  0.00  0.00    +0.027 A 
ATOM     29  C   UNL     1      14.230  13.329  14.639  0.00  0.00    +0.047 A 
ATOM     30  C   UNL     1      14.177  10.935  14.954  0.00  0.00    +0.047 A 
ATOM     33  C   UNL     1      14.308  12.040  14.113  0.00  0.00    +0.120 A 
BRANCH  33   6
ATOM      6  O   UNL     1      14.513  11.860  12.780  0.00  0.00    -0.495 OA
ATOM     35  C   UNL     1      15.866  11.858  12.326  0.00  0.00    +0.277 C 
ENDBRANCH  33   6
ENDBRANCH  10  23
BRANCH  18   9
ATOM      9  N   UNL     1      16.088   8.473  22.273  0.00  0.00    -0.215 N 
ATOM     36  H   UNL     1      16.316   7.702  22.912  0.00  0.00    +0.174 HD
BRANCH   9   1
ATOM      1  S   UNL     1      17.409   9.216  21.530  0.00  0.00    +0.072 S 
ATOM      4  O   UNL     1      17.099   9.495  20.141  0.00  0.00    -0.150 OA
ATOM      5  O   UNL     1      17.930  10.264  22.387  0.00  0.00    -0.150 OA
BRANCH   1  24
ATOM     24  C   UNL     1      18.578   7.888  21.552  0.00  0.00    +0.108 A 
ATOM     27  C   UNL     1      18.525   6.926  20.559  0.00  0.00    +0.029 A 
ATOM     28  C   UNL     1      19.522   7.837  22.563  0.00  0.00    +0.029 A 
ATOM     31  C   UNL     1      19.447   5.879  20.577  0.00  0.00    +0.002 A 
ATOM     32  C   UNL     1      20.442   6.789  22.581  0.00  0.00    +0.002 A 
ATOM     34  C   UNL     1      20.404   5.810  21.588  0.00  0.00    +0.000 A 
ENDBRANCH   1  24
ENDBRANCH   9   1
ENDBRANCH  18   9
TORSDOF 5
ENDMDL
MODEL 7
REMARK VINA RESULT:      -6.6     27.888     30.419
REMARK  Name = 9391198
REMARK  6 active torsions:
REMARK  status: ('A' for Active; 'I' for Inactive)
REMARK    1  A    between atoms: S_1  and  N_9
REMARK    2  A    between atoms: S_1  and  C_24
REMARK    3  A    between atoms: O_6  and  C_33
REMARK    4  A    between atoms: O_6  and  C_35
REMARK    5  A    between atoms: N_9  and  C_18
REMARK    6  A    between atoms: N_10  and  C_23
REMARK                            x       y       z     vdW  Elec       q    Type
REMARK                         _______ _______ _______ _____ _____    ______ ____
ROOT
ATOM      2  O   UNL     1      -8.544 -12.494  11.137  0.00  0.00    -0.268 OA
ATOM      3  O   UNL     1      -3.937  -8.861  10.341  0.00  0.00    -0.252 OA
ATOM      7  N   UNL     1      -7.546 -11.353   9.349  0.00  0.00    -0.310 N 
ATOM      8  N   UNL     1      -4.465 -10.570   8.872  0.00  0.00    -0.284 N 
ATOM     10  N   UNL     1      -3.336 -11.034  10.891  0.00  0.00    -0.269 N 
ATOM     11  C   UNL     1      -5.779 -12.453   7.860  0.00  0.00    +0.027 C 
ATOM     12  C   UNL     1      -6.455 -10.131   7.439  0.00  0.00    +0.055 C 
ATOM     13  C   UNL     1      -6.290 -11.504   6.791  0.00  0.00    +0.018 C 
ATOM     14  C   UNL     1      -6.853 -12.581   8.942  0.00  0.00    +0.130 C 
ATOM     15  C   UNL     1      -4.432 -11.975   8.437  0.00  0.00    +0.114 C 
ATOM     16  C   UNL     1      -5.081  -9.637   7.920  0.00  0.00    +0.119 C 
ATOM     17  C   UNL     1      -7.436 -10.159   8.609  0.00  0.00    +0.049 A 
ATOM     18  C   UNL     1      -8.179  -9.098   8.989  0.00  0.00    +0.068 A 
ATOM     19  C   UNL     1      -8.398 -11.472  10.465  0.00  0.00    +0.252 A 
ATOM     20  C   UNL     1      -3.915 -10.065  10.072  0.00  0.00    +0.306 C 
ATOM     21  C   UNL     1      -9.071  -9.153  10.111  0.00  0.00    +0.031 A 
ATOM     22  C   UNL     1      -9.185 -10.268  10.836  0.00  0.00    +0.072 A 
ATOM     37  H   UNL     1      -2.961 -11.869  10.455  0.00  0.00    +0.156 HD
ENDROOT
BRANCH  10  23
ATOM     23  C   UNL     1      -3.155 -10.973  12.295  0.00  0.00    +0.035 A 
ATOM     25  C   UNL     1      -1.993 -10.415  12.820  0.00  0.00    +0.027 A 
ATOM     26  C   UNL     1      -4.141 -11.473  13.142  0.00  0.00    +0.027 A 
ATOM     29  C   UNL     1      -1.814 -10.357  14.203  0.00  0.00    +0.047 A 
ATOM     30  C   UNL     1      -3.962 -11.414  14.524  0.00  0.00    +0.047 A 
ATOM     33  C   UNL     1      -2.799 -10.856  15.054  0.00  0.00    +0.120 A 
BRANCH  33   6
ATOM      6  O   UNL     1      -2.626 -10.797  16.402  0.00  0.00    -0.495 OA
ATOM     35  C   UNL     1      -3.760 -11.091  17.216  0.00  0.00    +0.277 C 
ENDBRANCH  33   6
ENDBRANCH  10  23
BRANCH  18   9
ATOM      9  N   UNL     1      -8.064  -7.879   8.279  0.00  0.00    -0.215 N 
ATOM     36  H   UNL     1      -7.104  -7.609   8.034  0.00  0.00    +0.174 HD
BRANCH   9   1
ATOM      1  S   UNL     1      -9.230  -7.573   7.098  0.00  0.00    +0.072 S 
ATOM      4  O   UNL     1      -8.602  -6.999   5.923  0.00  0.00    -0.150 OA
ATOM      5  O   UNL     1     -10.111  -8.717   6.969  0.00  0.00    -0.150 OA
BRANCH   1  24
ATOM     24  C   UNL     1     -10.152  -6.284   7.884  0.00  0.00    +0.108 A 
ATOM     27  C   UNL     1      -9.476  -5.206   8.429  0.00  0.00    +0.029 A 
ATOM     28  C   UNL     1     -11.532  -6.378   7.939  0.00  0.00    +0.029 A 
ATOM     31  C   UNL     1     -10.203  -4.190   9.049  0.00  0.00    +0.002 A 
ATOM     32  C   UNL     1     -12.258  -5.362   8.560  0.00  0.00    +0.002 A 
ATOM     34  C   UNL     1     -11.594  -4.268   9.115  0.00  0.00    +0.000 A 
ENDBRANCH   1  24
ENDBRANCH   9   1
ENDBRANCH  18   9
TORSDOF 5
ENDMDL
MODEL 8
REMARK VINA RESULT:      -6.6     14.892     18.699
REMARK  Name = 9391198
REMARK  6 active torsions:
REMARK  status: ('A' for Active; 'I' for Inactive)
REMARK    1  A    between atoms: S_1  and  N_9
REMARK    2  A    between atoms: S_1  and  C_24
REMARK    3  A    between atoms: O_6  and  C_33
REMARK    4  A    between atoms: O_6  and  C_35
REMARK    5  A    between atoms: N_9  and  C_18
REMARK    6  A    between atoms: N_10  and  C_23
REMARK                            x       y       z     vdW  Elec       q    Type
REMARK                         _______ _______ _______ _____ _____    ______ ____
ROOT
ATOM      2  O   UNL     1      14.619   5.589   2.715  0.00  0.00    -0.268 OA
ATOM      3  O   UNL     1       8.841   6.618   3.494  0.00  0.00    -0.252 OA
ATOM      7  N   UNL     1      12.853   6.494   1.469  0.00  0.00    -0.310 N 
ATOM      8  N   UNL     1      10.261   8.120   2.453  0.00  0.00    -0.284 N 
ATOM     10  N   UNL     1      10.217   7.949   4.806  0.00  0.00    -0.269 N 
ATOM     11  C   UNL     1      12.372   9.007   1.429  0.00  0.00    +0.027 C 
ATOM     12  C   UNL     1      10.948   7.473   0.147  0.00  0.00    +0.055 C 
ATOM     13  C   UNL     1      11.802   8.735   0.049  0.00  0.00    +0.018 C 
ATOM     14  C   UNL     1      13.303   7.851   1.800  0.00  0.00    +0.130 C 
ATOM     15  C   UNL     1      11.254   9.206   2.470  0.00  0.00    +0.114 C 
ATOM     16  C   UNL     1       9.785   7.731   1.120  0.00  0.00    +0.119 C 
ATOM     17  C   UNL     1      11.756   6.264   0.613  0.00  0.00    +0.049 A 
ATOM     18  C   UNL     1      11.461   4.991   0.276  0.00  0.00    +0.068 A 
ATOM     19  C   UNL     1      13.643   5.445   1.979  0.00  0.00    +0.252 A 
ATOM     20  C   UNL     1       9.711   7.488   3.591  0.00  0.00    +0.306 C 
ATOM     21  C   UNL     1      12.228   3.877   0.755  0.00  0.00    +0.031 A 
ATOM     22  C   UNL     1      13.264   4.066   1.575  0.00  0.00    +0.072 A 
ATOM     37  H   UNL     1      10.559   8.902   4.852  0.00  0.00    +0.156 HD
ENDROOT
BRANCH  10  23
ATOM     23  C   UNL     1      10.269   7.247   6.036  0.00  0.00    +0.035 A 
ATOM     25  C   UNL     1       9.135   7.174   6.839  0.00  0.00    +0.027 A 
ATOM     26  C   UNL     1      11.455   6.636   6.434  0.00  0.00    +0.027 A 
ATOM     29  C   UNL     1       9.187   6.483   8.051  0.00  0.00    +0.047 A 
ATOM     30  C   UNL     1      11.506   5.945   7.645  0.00  0.00    +0.047 A 
ATOM     33  C   UNL     1      10.372   5.869   8.453  0.00  0.00    +0.120 A 
BRANCH  33   6
ATOM      6  O   UNL     1      10.422   5.194   9.633  0.00  0.00    -0.495 OA
ATOM     35  C   UNL     1       9.188   4.703  10.153  0.00  0.00    +0.277 C 
ENDBRANCH  33   6
ENDBRANCH  10  23
BRANCH  18   9
ATOM      9  N   UNL     1      10.347   4.733  -0.558  0.00  0.00    -0.215 N 
ATOM     36  H   UNL     1       9.564   5.388  -0.450  0.00  0.00    +0.174 HD
BRANCH   9   1
ATOM      1  S   UNL     1      10.676   4.248  -2.141  0.00  0.00    +0.072 S 
ATOM      4  O   UNL     1      11.880   4.904  -2.616  0.00  0.00    -0.150 OA
ATOM      5  O   UNL     1      10.536   2.809  -2.253  0.00  0.00    -0.150 OA
BRANCH   1  24
ATOM     24  C   UNL     1       9.308   4.979  -2.991  0.00  0.00    +0.108 A 
ATOM     27  C   UNL     1       8.530   5.917  -2.335  0.00  0.00    +0.029 A 
ATOM     28  C   UNL     1       9.042   4.599  -4.295  0.00  0.00    +0.029 A 
ATOM     31  C   UNL     1       7.450   6.493  -3.006  0.00  0.00    +0.002 A 
ATOM     32  C   UNL     1       7.963   5.175  -4.964  0.00  0.00    +0.002 A 
ATOM     34  C   UNL     1       7.167   6.122  -4.319  0.00  0.00    +0.000 A 
ENDBRANCH   1  24
ENDBRANCH   9   1
ENDBRANCH  18   9
TORSDOF 5
ENDMDL
MODEL 9
REMARK VINA RESULT:      -6.6     11.504     15.242
REMARK  Name = 9391198
REMARK  6 active torsions:
REMARK  status: ('A' for Active; 'I' for Inactive)
REMARK    1  A    between atoms: S_1  and  N_9
REMARK    2  A    between atoms: S_1  and  C_24
REMARK    3  A    between atoms: O_6  and  C_33
REMARK    4  A    between atoms: O_6  and  C_35
REMARK    5  A    between atoms: N_9  and  C_18
REMARK    6  A    between atoms: N_10  and  C_23
REMARK                            x       y       z     vdW  Elec       q    Type
REMARK                         _______ _______ _______ _____ _____    ______ ____
ROOT
ATOM      2  O   UNL     1      13.627   6.204   7.215  0.00  0.00    -0.268 OA
ATOM      3  O   UNL     1       9.964   8.028   2.936  0.00  0.00    -0.252 OA
ATOM      7  N   UNL     1      11.747   7.591   7.041  0.00  0.00    -0.310 N 
ATOM      8  N   UNL     1       9.234   7.411   5.045  0.00  0.00    -0.284 N 
ATOM     10  N   UNL     1       9.773   5.770   3.437  0.00  0.00    -0.269 N 
ATOM     11  C   UNL     1       9.377   6.717   7.451  0.00  0.00    +0.027 C 
ATOM     12  C   UNL     1       9.720   9.069   6.839  0.00  0.00    +0.055 C 
ATOM     13  C   UNL     1       9.072   8.145   7.867  0.00  0.00    +0.018 C 
ATOM     14  C   UNL     1      10.890   6.506   7.533  0.00  0.00    +0.130 C 
ATOM     15  C   UNL     1       8.826   6.412   6.044  0.00  0.00    +0.114 C 
ATOM     16  C   UNL     1       9.084   8.810   5.463  0.00  0.00    +0.119 C 
ATOM     17  C   UNL     1      11.232   8.873   6.758  0.00  0.00    +0.049 A 
ATOM     18  C   UNL     1      12.096   9.848   6.403  0.00  0.00    +0.068 A 
ATOM     19  C   UNL     1      13.123   7.299   6.964  0.00  0.00    +0.252 A 
ATOM     20  C   UNL     1       9.690   7.130   3.737  0.00  0.00    +0.306 C 
ATOM     21  C   UNL     1      13.509   9.619   6.312  0.00  0.00    +0.031 A 
ATOM     22  C   UNL     1      14.022   8.412   6.563  0.00  0.00    +0.072 A 
ATOM     37  H   UNL     1       9.152   5.133   3.921  0.00  0.00    +0.156 HD
ENDROOT
BRANCH  10  23
ATOM     23  C   UNL     1      10.610   5.154   2.472  0.00  0.00    +0.035 A 
ATOM     25  C   UNL     1      11.868   4.689   2.844  0.00  0.00    +0.027 A 
ATOM     26  C   UNL     1      10.168   5.019   1.159  0.00  0.00    +0.027 A 
ATOM     29  C   UNL     1      12.691   4.083   1.894  0.00  0.00    +0.047 A 
ATOM     30  C   UNL     1      10.991   4.414   0.210  0.00  0.00    +0.047 A 
ATOM     33  C   UNL     1      12.253   3.946   0.577  0.00  0.00    +0.120 A 
BRANCH  33   6
ATOM      6  O   UNL     1      13.055   3.353  -0.348  0.00  0.00    -0.495 OA
ATOM     35  C   UNL     1      14.198   4.088  -0.783  0.00  0.00    +0.277 C 
ENDBRANCH  33   6
ENDBRANCH  10  23
BRANCH  18   9
ATOM      9  N   UNL     1      11.600  11.134   6.086  0.00  0.00    -0.215 N 
ATOM     36  H   UNL     1      10.641  11.151   5.719  0.00  0.00    +0.174 HD
BRANCH   9   1
ATOM      1  S   UNL     1      11.994  12.386   7.148  0.00  0.00    +0.072 S 
ATOM      4  O   UNL     1      13.242  12.084   7.823  0.00  0.00    -0.150 OA
ATOM      5  O   UNL     1      11.810  13.665   6.490  0.00  0.00    -0.150 OA
BRANCH   1  24
ATOM     24  C   UNL     1      10.697  12.215   8.339  0.00  0.00    +0.108 A 
ATOM     27  C   UNL     1       9.439  12.712   8.044  0.00  0.00    +0.029 A 
ATOM     28  C   UNL     1      10.965  11.587   9.543  0.00  0.00    +0.029 A 
ATOM     31  C   UNL     1       8.417  12.577   8.983  0.00  0.00    +0.002 A 
ATOM     32  C   UNL     1       9.942  11.453  10.482  0.00  0.00    +0.002 A 
ATOM     34  C   UNL     1       8.668  11.948  10.202  0.00  0.00    +0.000 A 
ENDBRANCH   1  24
ENDBRANCH   9   1
ENDBRANCH  18   9
TORSDOF 5
ENDMDL
MODEL 10
REMARK VINA RESULT:      -6.5     12.645     15.185
REMARK  Name = 9391198
REMARK  6 active torsions:
REMARK  status: ('A' for Active; 'I' for Inactive)
REMARK    1  A    between atoms: S_1  and  N_9
REMARK    2  A    between atoms: S_1  and  C_24
REMARK    3  A    between atoms: O_6  and  C_33
REMARK    4  A    between atoms: O_6  and  C_35
REMARK    5  A    between atoms: N_9  and  C_18
REMARK    6  A    between atoms: N_10  and  C_23
REMARK                            x       y       z     vdW  Elec       q    Type
REMARK                         _______ _______ _______ _____ _____    ______ ____
ROOT
ATOM      2  O   UNL     1      14.266   8.836   1.122  0.00  0.00    -0.268 OA
ATOM      3  O   UNL     1      16.199   7.636   6.588  0.00  0.00    -0.252 OA
ATOM      7  N   UNL     1      13.410   8.917   3.302  0.00  0.00    -0.310 N 
ATOM      8  N   UNL     1      14.915   9.494   6.083  0.00  0.00    -0.284 N 
ATOM     10  N   UNL     1      17.227   9.473   5.610  0.00  0.00    -0.269 N 
ATOM     11  C   UNL     1      13.502  11.050   4.714  0.00  0.00    +0.027 C 
ATOM     12  C   UNL     1      12.510   9.010   5.650  0.00  0.00    +0.055 C 
ATOM     13  C   UNL     1      12.260  10.492   5.385  0.00  0.00    +0.018 C 
ATOM     14  C   UNL     1      13.664  10.362   3.357  0.00  0.00    +0.130 C 
ATOM     15  C   UNL     1      14.748  10.875   5.602  0.00  0.00    +0.114 C 
ATOM     16  C   UNL     1      13.699   8.868   6.616  0.00  0.00    +0.119 C 
ATOM     17  C   UNL     1      12.788   8.232   4.366  0.00  0.00    +0.049 A 
ATOM     18  C   UNL     1      12.500   6.923   4.204  0.00  0.00    +0.068 A 
ATOM     19  C   UNL     1      13.738   8.283   2.087  0.00  0.00    +0.252 A 
ATOM     20  C   UNL     1      16.131   8.775   6.119  0.00  0.00    +0.306 C 
ATOM     21  C   UNL     1      12.800   6.219   2.991  0.00  0.00    +0.031 A 
ATOM     22  C   UNL     1      13.399   6.840   1.974  0.00  0.00    +0.072 A 
ATOM     37  H   UNL     1      17.217  10.485   5.660  0.00  0.00    +0.156 HD
ENDROOT
BRANCH  10  23
ATOM     23  C   UNL     1      18.412   8.924   5.059  0.00  0.00    +0.035 A 
ATOM     25  C   UNL     1      18.453   8.578   3.712  0.00  0.00    +0.027 A 
ATOM     26  C   UNL     1      19.528   8.734   5.870  0.00  0.00    +0.027 A 
ATOM     29  C   UNL     1      19.620   8.037   3.170  0.00  0.00    +0.047 A 
ATOM     30  C   UNL     1      20.694   8.194   5.327  0.00  0.00    +0.047 A 
ATOM     33  C   UNL     1      20.740   7.845   3.978  0.00  0.00    +0.120 A 
BRANCH  33   6
ATOM      6  O   UNL     1      21.878   7.320   3.449  0.00  0.00    -0.495 OA
ATOM     35  C   UNL     1      21.804   6.819   2.115  0.00  0.00    +0.277 C 
ENDBRANCH  33   6
ENDBRANCH  10  23
BRANCH  18   9
ATOM      9  N   UNL     1      11.902   6.207   5.269  0.00  0.00    -0.215 N 
ATOM     36  H   UNL     1      12.175   6.519   6.208  0.00  0.00    +0.174 HD
BRANCH   9   1
ATOM      1  S   UNL     1      10.278   5.785   5.086  0.00  0.00    +0.072 S 
ATOM      4  O   UNL     1       9.528   6.921   4.586  0.00  0.00    -0.150 OA
ATOM      5  O   UNL     1      10.177   4.496   4.429  0.00  0.00    -0.150 OA
BRANCH   1  24
ATOM     24  C   UNL     1       9.815   5.552   6.778  0.00  0.00    +0.108 A 
ATOM     27  C   UNL     1       9.324   6.628   7.497  0.00  0.00    +0.029 A 
ATOM     28  C   UNL     1       9.953   4.299   7.349  0.00  0.00    +0.029 A 
ATOM     31  C   UNL     1       8.959   6.444   8.831  0.00  0.00    +0.002 A 
ATOM     32  C   UNL     1       9.589   4.117   8.682  0.00  0.00    +0.002 A 
ATOM     34  C   UNL     1       9.092   5.189   9.423  0.00  0.00    +0.000 A 
ENDBRANCH   1  24
ENDBRANCH   9   1
ENDBRANCH  18   9
TORSDOF 5
ENDMDL
