REMARK  Name = 7127963
REMARK  14 active torsions:
REMARK  status: ('A' for Active; 'I' for Inactive)
REMARK    1  A    between atoms: O_4  and  C_22
REMARK    2  A    between atoms: O_4  and  C_32
REMARK    3  A    between atoms: O_6  and  C_35
REMARK    4  A    between atoms: O_6  and  C_36
REMARK    5  A    between atoms: N_8  and  C_13
REMARK    6  A    between atoms: N_9  and  C_18
REMARK    7  A    between atoms: N_10  and  C_28
REMARK    8  A    between atoms: N_11  and  C_29
REMARK    9  A    between atoms: C_12  and  C_16
REMARK   10  A    between atoms: C_17  and  C_19
REMARK   11  A    between atoms: C_18  and  C_20
REMARK   12  A    between atoms: C_18  and  C_22
REMARK   13  A    between atoms: C_20  and  C_24
REMARK   14  A    between atoms: C_20  and  C_25
REMARK                            x       y       z     vdW  Elec       q    Type
REMARK                         _______ _______ _______ _____ _____    ______ ____
ROOT
ATOM      2  O   UNL     1      -4.765   0.355  -0.109  0.00  0.00    -0.268 OA
ATOM      7  N   UNL     1      -2.931  -0.695   0.816  0.00  0.00    -0.283 N 
ATOM     12  C   UNL     1      -2.311   0.527   1.309  0.00  0.00    +0.164 C 
ATOM     13  C   UNL     1      -0.830  -1.339   1.729  0.00  0.00    +0.094 C 
ATOM     14  C   UNL     1      -1.190   0.060   2.236  0.00  0.00    +0.056 C 
ATOM     15  C   UNL     1      -2.153  -1.877   1.195  0.00  0.00    +0.131 C 
ATOM     17  C   UNL     1      -4.174  -0.687   0.177  0.00  0.00    +0.264 C 
ENDROOT
BRANCH  13   8
ATOM      3  O   UNL     1       2.000  -1.552   2.119  0.00  0.00    -0.253 OA
ATOM      8  N   UNL     1       0.185  -1.309   0.707  0.00  0.00    -0.295 N 
ATOM     11  N   UNL     1       2.296  -1.358  -0.202  0.00  0.00    -0.269 N 
ATOM     21  C   UNL     1       1.554  -1.420   0.981  0.00  0.00    +0.304 C 
ATOM     37  H   UNL     1      -0.101  -1.145  -0.254  0.00  0.00    +0.151 HD
ATOM     39  H   UNL     1       1.770  -1.253  -1.065  0.00  0.00    +0.156 HD
BRANCH  11  29
ATOM     29  C   UNL     1       3.700  -1.433  -0.351  0.00  0.00    +0.035 A 
ATOM     30  C   UNL     1       4.272  -1.352  -1.621  0.00  0.00    +0.027 A 
ATOM     31  C   UNL     1       4.514  -1.586   0.772  0.00  0.00    +0.027 A 
ATOM     33  C   UNL     1       5.658  -1.424  -1.768  0.00  0.00    +0.047 A 
ATOM     34  C   UNL     1       5.899  -1.658   0.625  0.00  0.00    +0.047 A 
ATOM     35  C   UNL     1       6.471  -1.577  -0.645  0.00  0.00    +0.120 A 
BRANCH  35   6
ATOM      6  O   UNL     1       7.822  -1.645  -0.788  0.00  0.00    -0.495 OA
ATOM     36  C   UNL     1       8.595  -1.802   0.402  0.00  0.00    +0.277 C 
ENDBRANCH  35   6
ENDBRANCH  11  29
ENDBRANCH  13   8
BRANCH  17  19
ATOM     10  N   UNL     1      -5.040  -2.388  -1.444  0.00  0.00    -0.346 N 
ATOM     19  C   UNL     1      -4.734  -1.987  -0.170  0.00  0.00    +0.104 A 
ATOM     23  C   UNL     1      -5.050  -3.020   0.685  0.00  0.00    +0.032 A 
ATOM     26  C   UNL     1      -5.547  -3.661  -1.416  0.00  0.00    +0.086 A 
ATOM     27  C   UNL     1      -5.565  -4.079  -0.103  0.00  0.00    +0.020 A 
ATOM     28  C   UNL     1      -4.863  -1.602  -2.645  0.00  0.00    +0.149 C 
ENDBRANCH  17  19
BRANCH  12  16
ATOM      1  O   UNL     1      -1.887   0.901  -1.010  0.00  0.00    -0.274 OA
ATOM      9  N   UNL     1      -1.137   2.470   0.538  0.00  0.00    -0.301 N 
ATOM     16  C   UNL     1      -1.772   1.303   0.145  0.00  0.00    +0.234 C 
ATOM     38  H   UNL     1      -1.114   2.712   1.525  0.00  0.00    +0.150 HD
BRANCH   9  18
ATOM     18  C   UNL     1      -0.514   3.382  -0.389  0.00  0.00    +0.184 C 
BRANCH  18  20
ATOM     20  C   UNL     1       0.968   3.035  -0.653  0.00  0.00    +0.014 C 
ATOM     24  C   UNL     1       1.728   2.812   0.657  0.00  0.00    +0.009 C 
ATOM     25  C   UNL     1       1.150   1.824  -1.575  0.00  0.00    +0.009 C 
ENDBRANCH  18  20
BRANCH  18  22
ATOM      5  O   UNL     1      -1.174   5.143   1.133  0.00  0.00    -0.249 OA
ATOM     22  C   UNL     1      -0.671   4.832   0.058  0.00  0.00    +0.328 C 
BRANCH  22   4
ATOM      4  O   UNL     1      -0.196   5.711  -0.869  0.00  0.00    -0.467 OA
ATOM     32  C   UNL     1      -0.309   7.097  -0.527  0.00  0.00    +0.280 C 
ENDBRANCH  22   4
ENDBRANCH  18  22
ENDBRANCH   9  18
ENDBRANCH  12  16
TORSDOF 9
