REMARK  Name = 28960189
REMARK  11 active torsions:
REMARK  status: ('A' for Active; 'I' for Inactive)
REMARK    1  A    between atoms: O_2  and  C_23
REMARK    2  A    between atoms: N_6  and  C_17
REMARK    3  A    between atoms: N_6  and  C_24
REMARK    4  A    between atoms: N_6  and  C_25
REMARK    5  A    between atoms: N_7  and  C_26
REMARK    6  A    between atoms: C_8  and  C_13
REMARK    7  A    between atoms: C_9  and  C_15
REMARK    8  A    between atoms: C_13  and  C_17
REMARK    9  A    between atoms: C_14  and  C_16
REMARK   10  A    between atoms: C_15  and  C_23
REMARK   11  A    between atoms: C_24  and  C_26
REMARK                            x       y       z     vdW  Elec       q    Type
REMARK                         _______ _______ _______ _____ _____    ______ ____
ROOT
ATOM      1  O   UNL     1       0.987   3.953   1.774  0.00  0.00    -0.275 OA
ATOM      5  N   UNL     1       2.045   2.702   0.128  0.00  0.00    -0.301 N 
ATOM      8  C   UNL     1       2.604   0.531  -0.945  0.00  0.00    +0.012 C 
ATOM      9  C   UNL     1       4.014   0.620  -0.305  0.00  0.00    +0.006 C 
ATOM     10  C   UNL     1       2.025   1.945  -1.131  0.00  0.00    +0.111 C 
ATOM     11  C   UNL     1       3.998   1.463   0.982  0.00  0.00    +0.023 C 
ATOM     12  C   UNL     1       3.367   2.832   0.741  0.00  0.00    +0.108 C 
ATOM     16  C   UNL     1       0.939   3.300   0.729  0.00  0.00    +0.219 C 
ENDROOT
BRANCH  16  14
ATOM     14  C   UNL     1      -0.379   3.118   0.041  0.00  0.00    +0.075 C 
ATOM     18  C   UNL     1      -1.508   3.104   1.073  0.00  0.00    +0.013 C 
ATOM     19  C   UNL     1      -0.571   4.237  -0.985  0.00  0.00    +0.013 C 
ATOM     20  C   UNL     1      -2.877   3.024   0.404  0.00  0.00    +0.001 C 
ATOM     21  C   UNL     1      -1.943   4.159  -1.650  0.00  0.00    +0.001 C 
ATOM     22  C   UNL     1      -3.069   4.141  -0.619  0.00  0.00    +0.000 C 
ENDBRANCH  16  14
BRANCH   8  13
ATOM     13  C   UNL     1       1.621  -0.350  -0.165  0.00  0.00    +0.024 C 
BRANCH  13  17
ATOM     17  C   UNL     1       0.497  -0.880  -1.041  0.00  0.00    +0.105 C 
BRANCH  17   6
ATOM      6  N   UNL     1      -0.380  -1.743  -0.286  0.00  0.00    -0.329 N 
BRANCH   6  25
ATOM     25  C   UNL     1      -0.117  -3.114  -0.148  0.00  0.00    +0.030 A 
ATOM     29  C   UNL     1      -0.041  -3.927  -1.279  0.00  0.00    +0.023 A 
ATOM     30  C   UNL     1       0.068  -3.663   1.120  0.00  0.00    +0.023 A 
ATOM     33  C   UNL     1       0.221  -5.290  -1.141  0.00  0.00    +0.002 A 
ATOM     34  C   UNL     1       0.330  -5.027   1.258  0.00  0.00    +0.002 A 
ATOM     35  C   UNL     1       0.406  -5.840   0.127  0.00  0.00    +0.000 A 
ENDBRANCH   6  25
BRANCH   6  24
ATOM     24  C   UNL     1      -1.571  -1.161   0.336  0.00  0.00    +0.120 C 
BRANCH  24  26
ATOM     26  C   UNL     1      -2.748  -1.253  -0.626  0.00  0.00    +0.103 C 
BRANCH  26   7
ATOM      4  O   UNL     1      -6.752  -0.635   0.470  0.00  0.00    -0.377 OA
ATOM      7  N   UNL     1      -3.948  -0.683  -0.017  0.00  0.00    -0.297 NA
ATOM     27  C   UNL     1      -4.588  -1.653   0.882  0.00  0.00    +0.112 C 
ATOM     28  C   UNL     1      -4.900  -0.248  -1.048  0.00  0.00    +0.112 C 
ATOM     31  C   UNL     1      -5.844  -1.040   1.496  0.00  0.00    +0.175 C 
ATOM     32  C   UNL     1      -6.148   0.332  -0.389  0.00  0.00    +0.175 C 
ENDBRANCH  26   7
ENDBRANCH  24  26
ENDBRANCH   6  24
ENDBRANCH  17   6
ENDBRANCH  13  17
ENDBRANCH   8  13
BRANCH   9  15
ATOM     15  C   UNL     1       4.643  -0.748  -0.045  0.00  0.00    +0.124 C 
BRANCH  15  23
ATOM      3  O   UNL     1       6.819   0.350  -0.060  0.00  0.00    -0.251 OA
ATOM     23  C   UNL     1       6.142  -0.661   0.047  0.00  0.00    +0.305 C 
BRANCH  23   2
ATOM      2  O   UNL     1       6.659  -1.896   0.272  0.00  0.00    -0.481 OA
ATOM     36  H   UNL     1       7.637  -1.876   0.338  0.00  0.00    +0.295 HD
ENDBRANCH  23   2
ENDBRANCH  15  23
ENDBRANCH   9  15
TORSDOF 11
