REMARK  Name = 45783811
REMARK  8 active torsions:
REMARK  status: ('A' for Active; 'I' for Inactive)
REMARK    1  A    between atoms: N_4  and  C_14
REMARK    2  A    between atoms: N_7  and  C_23
REMARK    3  A    between atoms: N_9  and  C_27
REMARK    4  A    between atoms: N_9  and  C_28
REMARK    5  A    between atoms: N_9  and  C_29
REMARK    6  A    between atoms: C_10  and  C_15
REMARK    7  A    between atoms: C_14  and  C_16
REMARK    8  A    between atoms: C_19  and  C_22
REMARK                            x       y       z     vdW  Elec       q    Type
REMARK                         _______ _______ _______ _____ _____    ______ ____
ROOT
ATOM      4  N   UNL     1      -3.782  -0.501  -0.804  0.00  0.00    -0.287 NA
ATOM     10  C   UNL     1      -3.501  -1.336   0.381  0.00  0.00    +0.146 C 
ATOM     11  C   UNL     1      -4.066  -2.723   0.025  0.00  0.00    +0.030 C 
ATOM     12  C   UNL     1      -4.698  -2.554  -1.349  0.00  0.00    +0.017 C 
ATOM     13  C   UNL     1      -4.974  -1.067  -1.435  0.00  0.00    +0.085 C 
ENDROOT
BRANCH  10  15
ATOM      1  O   UNL     1      -1.718  -1.596   2.033  0.00  0.00    -0.336 OA
ATOM      5  N   UNL     1      -0.986  -1.228  -0.052  0.00  0.00    -0.190 NA
ATOM      6  N   UNL     1      -0.320  -1.590   2.107  0.00  0.00    -0.056 NA
ATOM     15  C   UNL     1      -2.027  -1.377   0.728  0.00  0.00    +0.245 A 
ATOM     19  C   UNL     1       0.038  -1.367   0.839  0.00  0.00    +0.204 A 
BRANCH  19  22
ATOM      8  N   UNL     1       3.752  -1.351   1.023  0.00  0.00    -0.240 NA
ATOM     22  C   UNL     1       1.410  -1.280   0.428  0.00  0.00    +0.041 A 
ATOM     24  C   UNL     1       1.747  -1.049  -0.901  0.00  0.00    +0.016 A 
ATOM     25  C   UNL     1       2.441  -1.423   1.343  0.00  0.00    +0.124 A 
ATOM     26  C   UNL     1       3.086  -0.969  -1.269  0.00  0.00    +0.044 A 
ATOM     27  C   UNL     1       4.041  -1.125  -0.278  0.00  0.00    +0.121 A 
BRANCH  27   9
ATOM      9  N   UNL     1       5.401  -1.042  -0.669  0.00  0.00    -0.321 N 
ATOM     28  C   UNL     1       6.451  -1.188   0.314  0.00  0.00    +0.130 C 
ATOM     29  C   UNL     1       5.746  -0.803  -2.053  0.00  0.00    +0.130 C 
ENDBRANCH  27   9
ENDBRANCH  19  22
ENDBRANCH  10  15
BRANCH   4  14
ATOM     14  C   UNL     1      -3.949   0.911  -0.485  0.00  0.00    +0.120 C 
BRANCH  14  16
ATOM     16  C   UNL     1      -2.625   1.604  -0.297  0.00  0.00    -0.033 A 
ATOM     17  C   UNL     1      -2.332   2.235   0.912  0.00  0.00    +0.007 A 
ATOM     18  C   UNL     1      -1.691   1.614  -1.333  0.00  0.00    +0.007 A 
ATOM     20  C   UNL     1      -1.106   2.877   1.084  0.00  0.00    +0.033 A 
ATOM     21  C   UNL     1      -0.465   2.256  -1.161  0.00  0.00    +0.033 A 
ATOM     23  C   UNL     1      -0.172   2.888   0.048  0.00  0.00    +0.126 A 
BRANCH  23   7
ATOM      2  O   UNL     1       1.319   4.104   1.319  0.00  0.00    -0.126 OA
ATOM      3  O   UNL     1       1.902   3.539  -0.721  0.00  0.00    -0.126 OA
ATOM      7  N   UNL     1       1.076   3.541   0.224  0.00  0.00    +0.056 N 
ENDBRANCH  23   7
ENDBRANCH  14  16
ENDBRANCH   4  14
TORSDOF 6
