MODEL 1
REMARK VINA RESULT:      -6.3      0.000      0.000
REMARK  Name = 75536744
REMARK  7 active torsions:
REMARK  status: ('A' for Active; 'I' for Inactive)
REMARK    1  A    between atoms: O_2  and  C_9
REMARK    2  A    between atoms: N_5  and  C_8
REMARK    3  A    between atoms: N_5  and  C_13
REMARK    4  A    between atoms: N_6  and  C_12
REMARK    5  A    between atoms: C_10  and  C_12
REMARK    6  A    between atoms: C_13  and  C_14
REMARK    7  A    between atoms: C_13  and  C_15
REMARK                            x       y       z     vdW  Elec       q    Type
REMARK                         _______ _______ _______ _____ _____    ______ ____
ROOT
ATOM      1  O   UNL     1      13.106   7.916  21.891  0.00  0.00    -0.371 OA
ATOM      8  C   UNL     1      11.152   8.967  22.742  0.00  0.00    +0.111 C 
ATOM      9  C   UNL     1      10.750   7.957  21.682  0.00  0.00    +0.164 C 
ATOM     10  C   UNL     1      11.978   7.057  21.653  0.00  0.00    +0.165 C 
ATOM     11  C   UNL     1      12.626   9.162  22.427  0.00  0.00    +0.181 C 
ENDROOT
BRANCH   9   2
ATOM      2  O   UNL     1       9.580   7.242  22.025  0.00  0.00    -0.388 OA
ATOM     22  H   UNL     1       9.823   6.536  22.647  0.00  0.00    +0.210 HD
ENDBRANCH   9   2
BRANCH   8   5
ATOM      5  N   UNL     1      10.393  10.206  22.686  0.00  0.00    -0.307 NA
ATOM     21  H   UNL     1       9.573  10.141  23.291  0.00  0.00    +0.123 HD
BRANCH   5  13
ATOM     13  C   UNL     1      11.214  11.343  23.083  0.00  0.00    +0.048 C 
ATOM     14  C   UNL     1      11.027  12.478  22.081  0.00  0.00    +0.023 C 
ATOM     15  C   UNL     1      10.850  11.793  24.495  0.00  0.00    +0.023 C 
ENDBRANCH   5  13
ENDBRANCH   8   5
BRANCH  10  12
ATOM     12  C   UNL     1      12.157   6.328  20.333  0.00  0.00    +0.140 C 
BRANCH  12   6
ATOM      3  O   UNL     1      12.920   9.857  15.027  0.00  0.00    -0.377 OA
ATOM      4  O   UNL     1      14.428   7.319  18.999  0.00  0.00    -0.253 OA
ATOM      6  N   UNL     1      12.145   7.246  19.216  0.00  0.00    -0.297 N 
ATOM      7  N   UNL     1      13.140   8.583  17.541  0.00  0.00    -0.281 N 
ATOM     16  C   UNL     1      13.315   7.689  18.610  0.00  0.00    +0.302 C 
ATOM     17  C   UNL     1      14.320   9.107  16.848  0.00  0.00    +0.137 C 
ATOM     18  C   UNL     1      11.870   9.190  17.116  0.00  0.00    +0.137 C 
ATOM     19  C   UNL     1      14.106   9.125  15.343  0.00  0.00    +0.179 C 
ATOM     20  C   UNL     1      11.770   9.228  15.595  0.00  0.00    +0.179 C 
ATOM     23  H   UNL     1      11.235   7.561  18.913  0.00  0.00    +0.150 HD
ENDBRANCH  12   6
ENDBRANCH  10  12
TORSDOF 5
ENDMDL
MODEL 2
REMARK VINA RESULT:      -5.9      1.856      2.569
REMARK  Name = 75536744
REMARK  7 active torsions:
REMARK  status: ('A' for Active; 'I' for Inactive)
REMARK    1  A    between atoms: O_2  and  C_9
REMARK    2  A    between atoms: N_5  and  C_8
REMARK    3  A    between atoms: N_5  and  C_13
REMARK    4  A    between atoms: N_6  and  C_12
REMARK    5  A    between atoms: C_10  and  C_12
REMARK    6  A    between atoms: C_13  and  C_14
REMARK    7  A    between atoms: C_13  and  C_15
REMARK                            x       y       z     vdW  Elec       q    Type
REMARK                         _______ _______ _______ _____ _____    ______ ____
ROOT
ATOM      1  O   UNL     1      13.304  10.529  21.082  0.00  0.00    -0.371 OA
ATOM      8  C   UNL     1      11.774  11.759  22.421  0.00  0.00    +0.111 C 
ATOM      9  C   UNL     1      11.449  10.279  22.529  0.00  0.00    +0.164 C 
ATOM     10  C   UNL     1      12.768   9.657  22.091  0.00  0.00    +0.165 C 
ATOM     11  C   UNL     1      12.615  11.790  21.155  0.00  0.00    +0.181 C 
ENDROOT
BRANCH   9   2
ATOM      2  O   UNL     1      11.093   9.893  23.841  0.00  0.00    -0.388 OA
ATOM     22  H   UNL     1      11.365   8.969  23.973  0.00  0.00    +0.210 HD
ENDBRANCH   9   2
BRANCH   8   5
ATOM      5  N   UNL     1      10.598  12.610  22.341  0.00  0.00    -0.307 NA
ATOM     21  H   UNL     1       9.786  12.122  22.718  0.00  0.00    +0.123 HD
BRANCH   5  13
ATOM     13  C   UNL     1      10.805  13.860  23.061  0.00  0.00    +0.048 C 
ATOM     14  C   UNL     1       9.454  14.490  23.383  0.00  0.00    +0.023 C 
ATOM     15  C   UNL     1      11.611  13.611  24.333  0.00  0.00    +0.023 C 
ENDBRANCH   5  13
ENDBRANCH   8   5
BRANCH  10  12
ATOM     12  C   UNL     1      12.613   8.255  21.528  0.00  0.00    +0.140 C 
BRANCH  12   6
ATOM      3  O   UNL     1      12.673   8.879  15.140  0.00  0.00    -0.377 OA
ATOM      4  O   UNL     1      10.573   8.485  19.604  0.00  0.00    -0.253 OA
ATOM      6  N   UNL     1      12.801   8.238  20.094  0.00  0.00    -0.297 N 
ATOM      7  N   UNL     1      12.077   8.317  17.846  0.00  0.00    -0.281 N 
ATOM     16  C   UNL     1      11.736   8.358  19.208  0.00  0.00    +0.302 C 
ATOM     17  C   UNL     1      11.016   8.429  16.841  0.00  0.00    +0.137 C 
ATOM     18  C   UNL     1      13.405   8.017  17.293  0.00  0.00    +0.137 C 
ATOM     19  C   UNL     1      11.440   9.339  15.700  0.00  0.00    +0.179 C 
ATOM     20  C   UNL     1      13.718   8.929  16.112  0.00  0.00    +0.179 C 
ATOM     23  H   UNL     1      13.750   8.115  19.773  0.00  0.00    +0.150 HD
ENDBRANCH  12   6
ENDBRANCH  10  12
TORSDOF 5
ENDMDL
MODEL 3
REMARK VINA RESULT:      -5.8      2.809      6.449
REMARK  Name = 75536744
REMARK  7 active torsions:
REMARK  status: ('A' for Active; 'I' for Inactive)
REMARK    1  A    between atoms: O_2  and  C_9
REMARK    2  A    between atoms: N_5  and  C_8
REMARK    3  A    between atoms: N_5  and  C_13
REMARK    4  A    between atoms: N_6  and  C_12
REMARK    5  A    between atoms: C_10  and  C_12
REMARK    6  A    between atoms: C_13  and  C_14
REMARK    7  A    between atoms: C_13  and  C_15
REMARK                            x       y       z     vdW  Elec       q    Type
REMARK                         _______ _______ _______ _____ _____    ______ ____
ROOT
ATOM      1  O   UNL     1      12.963   7.387  18.337  0.00  0.00    -0.371 OA
ATOM      8  C   UNL     1      14.872   7.152  19.732  0.00  0.00    +0.111 C 
ATOM      9  C   UNL     1      13.729   7.728  20.549  0.00  0.00    +0.164 C 
ATOM     10  C   UNL     1      12.529   7.317  19.706  0.00  0.00    +0.165 C 
ATOM     11  C   UNL     1      14.401   7.435  18.315  0.00  0.00    +0.181 C 
ENDROOT
BRANCH   9   2
ATOM      2  O   UNL     1      13.666   7.190  21.854  0.00  0.00    -0.388 OA
ATOM     22  H   UNL     1      14.369   7.597  22.388  0.00  0.00    +0.210 HD
ENDBRANCH   9   2
BRANCH   8   5
ATOM      5  N   UNL     1      16.163   7.752  20.030  0.00  0.00    -0.307 NA
ATOM     21  H   UNL     1      16.053   8.494  20.721  0.00  0.00    +0.123 HD
BRANCH   5  13
ATOM     13  C   UNL     1      17.104   6.753  20.520  0.00  0.00    +0.048 C 
ATOM     14  C   UNL     1      17.675   5.971  19.341  0.00  0.00    +0.023 C 
ATOM     15  C   UNL     1      18.216   7.421  21.324  0.00  0.00    +0.023 C 
ENDBRANCH   5  13
ENDBRANCH   8   5
BRANCH  10  12
ATOM     12  C   UNL     1      11.319   8.212  19.906  0.00  0.00    +0.140 C 
BRANCH  12   6
ATOM      3  O   UNL     1      12.708  12.760  24.217  0.00  0.00    -0.377 OA
ATOM      4  O   UNL     1      10.284   8.824  22.450  0.00  0.00    -0.253 OA
ATOM      6  N   UNL     1      11.650   9.380  20.692  0.00  0.00    -0.297 N 
ATOM      7  N   UNL     1      11.506  10.791  22.582  0.00  0.00    -0.281 N 
ATOM     16  C   UNL     1      11.092   9.610  21.945  0.00  0.00    +0.302 C 
ATOM     17  C   UNL     1      10.964  11.117  23.904  0.00  0.00    +0.137 C 
ATOM     18  C   UNL     1      12.339  11.849  21.993  0.00  0.00    +0.137 C 
ATOM     19  C   UNL     1      12.052  11.646  24.825  0.00  0.00    +0.179 C 
ATOM     20  C   UNL     1      13.355  12.367  23.005  0.00  0.00    +0.179 C 
ATOM     23  H   UNL     1      12.296  10.030  20.269  0.00  0.00    +0.150 HD
ENDBRANCH  12   6
ENDBRANCH  10  12
TORSDOF 5
ENDMDL
MODEL 4
REMARK VINA RESULT:      -5.7      5.019      7.726
REMARK  Name = 75536744
REMARK  7 active torsions:
REMARK  status: ('A' for Active; 'I' for Inactive)
REMARK    1  A    between atoms: O_2  and  C_9
REMARK    2  A    between atoms: N_5  and  C_8
REMARK    3  A    between atoms: N_5  and  C_13
REMARK    4  A    between atoms: N_6  and  C_12
REMARK    5  A    between atoms: C_10  and  C_12
REMARK    6  A    between atoms: C_13  and  C_14
REMARK    7  A    between atoms: C_13  and  C_15
REMARK                            x       y       z     vdW  Elec       q    Type
REMARK                         _______ _______ _______ _____ _____    ______ ____
ROOT
ATOM      1  O   UNL     1      17.326   7.202  21.168  0.00  0.00    -0.371 OA
ATOM      8  C   UNL     1      19.075   6.048  20.046  0.00  0.00    +0.111 C 
ATOM      9  C   UNL     1      17.742   5.617  19.461  0.00  0.00    +0.164 C 
ATOM     10  C   UNL     1      16.848   6.778  19.880  0.00  0.00    +0.165 C 
ATOM     11  C   UNL     1      18.640   6.652  21.372  0.00  0.00    +0.181 C 
ENDROOT
BRANCH   9   2
ATOM      2  O   UNL     1      17.785   5.466  18.056  0.00  0.00    -0.388 OA
ATOM     22  H   UNL     1      17.342   4.633  17.824  0.00  0.00    +0.210 HD
ENDBRANCH   9   2
BRANCH   8   5
ATOM      5  N   UNL     1      20.023   4.957  20.204  0.00  0.00    -0.307 NA
ATOM     21  H   UNL     1      20.434   4.717  19.302  0.00  0.00    +0.123 HD
BRANCH   5  13
ATOM     13  C   UNL     1      21.074   5.309  21.151  0.00  0.00    +0.048 C 
ATOM     14  C   UNL     1      21.671   4.036  21.742  0.00  0.00    +0.023 C 
ATOM     15  C   UNL     1      22.146   6.150  20.465  0.00  0.00    +0.023 C 
ENDBRANCH   5  13
ENDBRANCH   8   5
BRANCH  10  12
ATOM     12  C   UNL     1      15.381   6.401  19.977  0.00  0.00    +0.140 C 
BRANCH  12   6
ATOM      3  O   UNL     1      11.176  10.560  22.469  0.00  0.00    -0.377 OA
ATOM      4  O   UNL     1      12.569   6.507  19.995  0.00  0.00    -0.253 OA
ATOM      6  N   UNL     1      14.582   7.504  20.463  0.00  0.00    -0.297 N 
ATOM      7  N   UNL     1      12.558   8.626  20.938  0.00  0.00    -0.281 N 
ATOM     16  C   UNL     1      13.192   7.478  20.437  0.00  0.00    +0.302 C 
ATOM     17  C   UNL     1      11.094   8.688  20.943  0.00  0.00    +0.137 C 
ATOM     18  C   UNL     1      13.217   9.877  21.338  0.00  0.00    +0.137 C 
ATOM     19  C   UNL     1      10.577   9.283  22.243  0.00  0.00    +0.179 C 
ATOM     20  C   UNL     1      12.592  10.437  22.611  0.00  0.00    +0.179 C 
ATOM     23  H   UNL     1      15.094   8.303  20.806  0.00  0.00    +0.150 HD
ENDBRANCH  12   6
ENDBRANCH  10  12
TORSDOF 5
ENDMDL
MODEL 5
REMARK VINA RESULT:      -5.7      2.848      6.919
REMARK  Name = 75536744
REMARK  7 active torsions:
REMARK  status: ('A' for Active; 'I' for Inactive)
REMARK    1  A    between atoms: O_2  and  C_9
REMARK    2  A    between atoms: N_5  and  C_8
REMARK    3  A    between atoms: N_5  and  C_13
REMARK    4  A    between atoms: N_6  and  C_12
REMARK    5  A    between atoms: C_10  and  C_12
REMARK    6  A    between atoms: C_13  and  C_14
REMARK    7  A    between atoms: C_13  and  C_15
REMARK                            x       y       z     vdW  Elec       q    Type
REMARK                         _______ _______ _______ _____ _____    ______ ____
ROOT
ATOM      1  O   UNL     1      11.797   9.593  20.582  0.00  0.00    -0.371 OA
ATOM      8  C   UNL     1      12.368   7.361  20.001  0.00  0.00    +0.111 C 
ATOM      9  C   UNL     1      11.623   7.353  21.324  0.00  0.00    +0.164 C 
ATOM     10  C   UNL     1      10.905   8.695  21.264  0.00  0.00    +0.165 C 
ATOM     11  C   UNL     1      12.803   8.814  19.909  0.00  0.00    +0.181 C 
ENDROOT
BRANCH   9   2
ATOM      2  O   UNL     1      10.716   6.274  21.434  0.00  0.00    -0.388 OA
ATOM     22  H   UNL     1       9.834   6.587  21.170  0.00  0.00    +0.210 HD
ENDBRANCH   9   2
BRANCH   8   5
ATOM      5  N   UNL     1      13.485   6.432  19.956  0.00  0.00    -0.307 NA
ATOM     21  H   UNL     1      13.463   5.899  19.086  0.00  0.00    +0.123 HD
BRANCH   5  13
ATOM     13  C   UNL     1      14.757   7.134  20.074  0.00  0.00    +0.048 C 
ATOM     14  C   UNL     1      15.340   6.896  21.463  0.00  0.00    +0.023 C 
ATOM     15  C   UNL     1      15.722   6.670  18.988  0.00  0.00    +0.023 C 
ENDBRANCH   5  13
ENDBRANCH   8   5
BRANCH  10  12
ATOM     12  C   UNL     1      10.562   9.255  22.633  0.00  0.00    +0.140 C 
BRANCH  12   6
ATOM      3  O   UNL     1      14.753  12.917  25.829  0.00  0.00    -0.377 OA
ATOM      4  O   UNL     1      10.275  11.565  24.214  0.00  0.00    -0.253 OA
ATOM      6  N   UNL     1      11.645  10.052  23.165  0.00  0.00    -0.297 N 
ATOM      7  N   UNL     1      12.570  11.856  24.379  0.00  0.00    -0.281 N 
ATOM     16  C   UNL     1      11.418  11.183  23.941  0.00  0.00    +0.302 C 
ATOM     17  C   UNL     1      12.425  13.063  25.197  0.00  0.00    +0.137 C 
ATOM     18  C   UNL     1      13.953  11.561  23.977  0.00  0.00    +0.137 C 
ATOM     19  C   UNL     1      13.427  13.071  26.340  0.00  0.00    +0.179 C 
ATOM     20  C   UNL     1      14.898  11.659  25.170  0.00  0.00    +0.179 C 
ATOM     23  H   UNL     1      12.577   9.749  22.925  0.00  0.00    +0.150 HD
ENDBRANCH  12   6
ENDBRANCH  10  12
TORSDOF 5
ENDMDL
MODEL 6
REMARK VINA RESULT:      -5.6      3.525      6.062
REMARK  Name = 75536744
REMARK  7 active torsions:
REMARK  status: ('A' for Active; 'I' for Inactive)
REMARK    1  A    between atoms: O_2  and  C_9
REMARK    2  A    between atoms: N_5  and  C_8
REMARK    3  A    between atoms: N_5  and  C_13
REMARK    4  A    between atoms: N_6  and  C_12
REMARK    5  A    between atoms: C_10  and  C_12
REMARK    6  A    between atoms: C_13  and  C_14
REMARK    7  A    between atoms: C_13  and  C_15
REMARK                            x       y       z     vdW  Elec       q    Type
REMARK                         _______ _______ _______ _____ _____    ______ ____
ROOT
ATOM      1  O   UNL     1      11.379   7.601  20.127  0.00  0.00    -0.371 OA
ATOM      8  C   UNL     1      12.146   8.497  18.064  0.00  0.00    +0.111 C 
ATOM      9  C   UNL     1      13.329   7.933  18.830  0.00  0.00    +0.164 C 
ATOM     10  C   UNL     1      12.630   6.979  19.790  0.00  0.00    +0.165 C 
ATOM     11  C   UNL     1      11.114   8.643  19.171  0.00  0.00    +0.181 C 
ENDROOT
BRANCH   9   2
ATOM      2  O   UNL     1      14.249   7.260  17.994  0.00  0.00    -0.388 OA
ATOM     22  H   UNL     1      13.887   6.383  17.784  0.00  0.00    +0.210 HD
ENDBRANCH   9   2
BRANCH   8   5
ATOM      5  N   UNL     1      12.432   9.752  17.388  0.00  0.00    -0.307 NA
ATOM     21  H   UNL     1      13.233  10.210  17.824  0.00  0.00    +0.123 HD
BRANCH   5  13
ATOM     13  C   UNL     1      12.695   9.535  15.971  0.00  0.00    +0.048 C 
ATOM     14  C   UNL     1      11.375   9.511  15.207  0.00  0.00    +0.023 C 
ATOM     15  C   UNL     1      13.620  10.622  15.431  0.00  0.00    +0.023 C 
ENDBRANCH   5  13
ENDBRANCH   8   5
BRANCH  10  12
ATOM     12  C   UNL     1      13.426   6.710  21.055  0.00  0.00    +0.140 C 
BRANCH  12   6
ATOM      3  O   UNL     1      19.837   6.978  20.894  0.00  0.00    -0.377 OA
ATOM      4  O   UNL     1      15.297   8.519  22.124  0.00  0.00    -0.253 OA
ATOM      6  N   UNL     1      14.848   6.704  20.794  0.00  0.00    -0.297 N 
ATOM      7  N   UNL     1      17.061   7.504  21.010  0.00  0.00    -0.281 N 
ATOM     16  C   UNL     1      15.708   7.636  21.364  0.00  0.00    +0.302 C 
ATOM     17  C   UNL     1      18.038   8.448  21.560  0.00  0.00    +0.137 C 
ATOM     18  C   UNL     1      17.609   6.586  20.002  0.00  0.00    +0.137 C 
ATOM     19  C   UNL     1      19.308   7.732  21.987  0.00  0.00    +0.179 C 
ATOM     20  C   UNL     1      18.915   5.966  20.486  0.00  0.00    +0.179 C 
ATOM     23  H   UNL     1      15.179   5.993  20.158  0.00  0.00    +0.150 HD
ENDBRANCH  12   6
ENDBRANCH  10  12
TORSDOF 5
ENDMDL
MODEL 7
REMARK VINA RESULT:      -5.5     12.460     16.220
REMARK  Name = 75536744
REMARK  7 active torsions:
REMARK  status: ('A' for Active; 'I' for Inactive)
REMARK    1  A    between atoms: O_2  and  C_9
REMARK    2  A    between atoms: N_5  and  C_8
REMARK    3  A    between atoms: N_5  and  C_13
REMARK    4  A    between atoms: N_6  and  C_12
REMARK    5  A    between atoms: C_10  and  C_12
REMARK    6  A    between atoms: C_13  and  C_14
REMARK    7  A    between atoms: C_13  and  C_15
REMARK                            x       y       z     vdW  Elec       q    Type
REMARK                         _______ _______ _______ _____ _____    ______ ____
ROOT
ATOM      1  O   UNL     1       9.326   8.017   6.382  0.00  0.00    -0.371 OA
ATOM      8  C   UNL     1      10.896   6.685   7.568  0.00  0.00    +0.111 C 
ATOM      9  C   UNL     1      10.994   6.365   6.087  0.00  0.00    +0.164 C 
ATOM     10  C   UNL     1      10.366   7.611   5.476  0.00  0.00    +0.165 C 
ATOM     11  C   UNL     1       9.533   7.353   7.642  0.00  0.00    +0.181 C 
ENDROOT
BRANCH   9   2
ATOM      2  O   UNL     1      12.327   6.182   5.655  0.00  0.00    -0.388 OA
ATOM     22  H   UNL     1      12.311   5.862   4.737  0.00  0.00    +0.210 HD
ENDBRANCH   9   2
BRANCH   8   5
ATOM      5  N   UNL     1      11.001   5.515   8.425  0.00  0.00    -0.307 NA
ATOM     21  H   UNL     1      11.435   5.769   9.313  0.00  0.00    +0.123 HD
BRANCH   5  13
ATOM     13  C   UNL     1       9.691   4.922   8.666  0.00  0.00    +0.048 C 
ATOM     14  C   UNL     1       9.557   3.639   7.852  0.00  0.00    +0.023 C 
ATOM     15  C   UNL     1       9.498   4.650  10.155  0.00  0.00    +0.023 C 
ENDBRANCH   5  13
ENDBRANCH   8   5
BRANCH  10  12
ATOM     12  C   UNL     1       9.779   7.372   4.096  0.00  0.00    +0.140 C 
BRANCH  12   6
ATOM      3  O   UNL     1      12.763   3.070   0.385  0.00  0.00    -0.377 OA
ATOM      4  O   UNL     1       9.683   6.824   1.338  0.00  0.00    -0.253 OA
ATOM      6  N   UNL     1      10.413   6.253   3.437  0.00  0.00    -0.297 N 
ATOM      7  N   UNL     1      10.983   4.917   1.573  0.00  0.00    -0.281 N 
ATOM     16  C   UNL     1      10.318   6.052   2.065  0.00  0.00    +0.302 C 
ATOM     17  C   UNL     1      10.930   4.624   0.138  0.00  0.00    +0.137 C 
ATOM     18  C   UNL     1      11.627   3.872   2.380  0.00  0.00    +0.137 C 
ATOM     19  C   UNL     1      12.288   4.180  -0.379  0.00  0.00    +0.179 C 
ATOM     20  C   UNL     1      12.948   3.439   1.753  0.00  0.00    +0.179 C 
ATOM     23  H   UNL     1      10.915   5.614   4.035  0.00  0.00    +0.150 HD
ENDBRANCH  12   6
ENDBRANCH  10  12
TORSDOF 5
ENDMDL
MODEL 8
REMARK VINA RESULT:      -5.4     24.670     26.232
REMARK  Name = 75536744
REMARK  7 active torsions:
REMARK  status: ('A' for Active; 'I' for Inactive)
REMARK    1  A    between atoms: O_2  and  C_9
REMARK    2  A    between atoms: N_5  and  C_8
REMARK    3  A    between atoms: N_5  and  C_13
REMARK    4  A    between atoms: N_6  and  C_12
REMARK    5  A    between atoms: C_10  and  C_12
REMARK    6  A    between atoms: C_13  and  C_14
REMARK    7  A    between atoms: C_13  and  C_15
REMARK                            x       y       z     vdW  Elec       q    Type
REMARK                         _______ _______ _______ _____ _____    ______ ____
ROOT
ATOM      1  O   UNL     1      -1.108 -11.393  15.166  0.00  0.00    -0.371 OA
ATOM      8  C   UNL     1      -3.201 -11.070  16.244  0.00  0.00    +0.111 C 
ATOM      9  C   UNL     1      -3.437 -11.683  14.876  0.00  0.00    +0.164 C 
ATOM     10  C   UNL     1      -2.070 -12.288  14.584  0.00  0.00    +0.165 C 
ATOM     11  C   UNL     1      -1.791 -10.525  16.089  0.00  0.00    +0.181 C 
ENDROOT
BRANCH   9   2
ATOM      2  O   UNL     1      -4.456 -12.663  14.885  0.00  0.00    -0.388 OA
ATOM     22  H   UNL     1      -5.317 -12.211  14.896  0.00  0.00    +0.210 HD
ENDBRANCH   9   2
BRANCH   8   5
ATOM      5  N   UNL     1      -4.168 -10.045  16.600  0.00  0.00    -0.307 NA
ATOM     21  H   UNL     1      -4.763  -9.832  15.799  0.00  0.00    +0.123 HD
BRANCH   5  13
ATOM     13  C   UNL     1      -4.988 -10.467  17.728  0.00  0.00    +0.048 C 
ATOM     14  C   UNL     1      -6.377 -10.853  17.230  0.00  0.00    +0.023 C 
ATOM     15  C   UNL     1      -4.326 -11.630  18.460  0.00  0.00    +0.023 C 
ENDBRANCH   5  13
ENDBRANCH   8   5
BRANCH  10  12
ATOM     12  C   UNL     1      -1.788 -12.449  13.101  0.00  0.00    +0.140 C 
BRANCH  12   6
ATOM      3  O   UNL     1      -5.725  -9.626   8.892  0.00  0.00    -0.377 OA
ATOM      4  O   UNL     1      -1.641 -10.040  11.656  0.00  0.00    -0.253 OA
ATOM      6  N   UNL     1      -2.848 -11.883  12.296  0.00  0.00    -0.297 N 
ATOM      7  N   UNL     1      -3.815 -10.260  10.877  0.00  0.00    -0.281 N 
ATOM     16  C   UNL     1      -2.695 -10.684  11.611  0.00  0.00    +0.302 C 
ATOM     17  C   UNL     1      -3.745  -9.003  10.128  0.00  0.00    +0.137 C 
ATOM     18  C   UNL     1      -5.147 -10.882  10.892  0.00  0.00    +0.137 C 
ATOM     19  C   UNL     1      -4.385  -9.147   8.758  0.00  0.00    +0.179 C 
ATOM     20  C   UNL     1      -5.741 -10.923   9.488  0.00  0.00    +0.179 C 
ATOM     23  H   UNL     1      -3.713 -12.402  12.276  0.00  0.00    +0.150 HD
ENDBRANCH  12   6
ENDBRANCH  10  12
TORSDOF 5
ENDMDL
MODEL 9
REMARK VINA RESULT:      -5.4     25.680     29.135
REMARK  Name = 75536744
REMARK  7 active torsions:
REMARK  status: ('A' for Active; 'I' for Inactive)
REMARK    1  A    between atoms: O_2  and  C_9
REMARK    2  A    between atoms: N_5  and  C_8
REMARK    3  A    between atoms: N_5  and  C_13
REMARK    4  A    between atoms: N_6  and  C_12
REMARK    5  A    between atoms: C_10  and  C_12
REMARK    6  A    between atoms: C_13  and  C_14
REMARK    7  A    between atoms: C_13  and  C_15
REMARK                            x       y       z     vdW  Elec       q    Type
REMARK                         _______ _______ _______ _____ _____    ______ ____
ROOT
ATOM      1  O   UNL     1       1.393   1.997  -7.529  0.00  0.00    -0.371 OA
ATOM      8  C   UNL     1      -0.719   1.242  -6.744  0.00  0.00    +0.111 C 
ATOM      9  C   UNL     1       0.204   1.453  -5.558  0.00  0.00    +0.164 C 
ATOM     10  C   UNL     1       1.241   2.395  -6.156  0.00  0.00    +0.165 C 
ATOM     11  C   UNL     1       0.277   1.162  -7.889  0.00  0.00    +0.181 C 
ENDROOT
BRANCH   9   2
ATOM      2  O   UNL     1      -0.455   2.031  -4.449  0.00  0.00    -0.388 OA
ATOM     22  H   UNL     1      -0.719   1.318  -3.843  0.00  0.00    +0.210 HD
ENDBRANCH   9   2
BRANCH   8   5
ATOM      5  N   UNL     1      -1.549   0.053  -6.633  0.00  0.00    -0.307 NA
ATOM     21  H   UNL     1      -2.345   0.239  -6.023  0.00  0.00    +0.123 HD
BRANCH   5  13
ATOM     13  C   UNL     1      -2.018  -0.383  -7.942  0.00  0.00    +0.048 C 
ATOM     14  C   UNL     1      -1.930  -1.903  -8.032  0.00  0.00    +0.023 C 
ATOM     15  C   UNL     1      -3.446   0.097  -8.181  0.00  0.00    +0.023 C 
ENDBRANCH   5  13
ENDBRANCH   8   5
BRANCH  10  12
ATOM     12  C   UNL     1       2.585   2.334  -5.454  0.00  0.00    +0.140 C 
BRANCH  12   6
ATOM      3  O   UNL     1       5.864   7.846  -5.225  0.00  0.00    -0.377 OA
ATOM      4  O   UNL     1       2.280   4.685  -3.940  0.00  0.00    -0.253 OA
ATOM      6  N   UNL     1       3.334   3.556  -5.636  0.00  0.00    -0.297 N 
ATOM      7  N   UNL     1       3.923   5.792  -5.146  0.00  0.00    -0.281 N 
ATOM     16  C   UNL     1       3.122   4.678  -4.843  0.00  0.00    +0.302 C 
ATOM     17  C   UNL     1       3.762   7.021  -4.364  0.00  0.00    +0.137 C 
ATOM     18  C   UNL     1       4.834   5.919  -6.292  0.00  0.00    +0.137 C 
ATOM     19  C   UNL     1       5.112   7.635  -4.028  0.00  0.00    +0.179 C 
ATOM     20  C   UNL     1       6.132   6.605  -5.879  0.00  0.00    +0.179 C 
ATOM     23  H   UNL     1       4.009   3.554  -6.387  0.00  0.00    +0.150 HD
ENDBRANCH  12   6
ENDBRANCH  10  12
TORSDOF 5
ENDMDL
MODEL 10
REMARK VINA RESULT:      -5.3     13.059     15.972
REMARK  Name = 75536744
REMARK  7 active torsions:
REMARK  status: ('A' for Active; 'I' for Inactive)
REMARK    1  A    between atoms: O_2  and  C_9
REMARK    2  A    between atoms: N_5  and  C_8
REMARK    3  A    between atoms: N_5  and  C_13
REMARK    4  A    between atoms: N_6  and  C_12
REMARK    5  A    between atoms: C_10  and  C_12
REMARK    6  A    between atoms: C_13  and  C_14
REMARK    7  A    between atoms: C_13  and  C_15
REMARK                            x       y       z     vdW  Elec       q    Type
REMARK                         _______ _______ _______ _____ _____    ______ ____
ROOT
ATOM      1  O   UNL     1      11.217   8.748   6.095  0.00  0.00    -0.371 OA
ATOM      8  C   UNL     1      11.926   6.860   7.351  0.00  0.00    +0.111 C 
ATOM      9  C   UNL     1      12.705   6.909   6.049  0.00  0.00    +0.164 C 
ATOM     10  C   UNL     1      12.535   8.372   5.661  0.00  0.00    +0.165 C 
ATOM     11  C   UNL     1      10.745   7.761   7.030  0.00  0.00    +0.181 C 
ENDROOT
BRANCH   9   2
ATOM      2  O   UNL     1      14.065   6.562   6.213  0.00  0.00    -0.388 OA
ATOM     22  H   UNL     1      14.334   6.011   5.458  0.00  0.00    +0.210 HD
ENDBRANCH   9   2
BRANCH   8   5
ATOM      5  N   UNL     1      11.524   5.518   7.741  0.00  0.00    -0.307 NA
ATOM     21  H   UNL     1      11.808   5.334   8.704  0.00  0.00    +0.123 HD
BRANCH   5  13
ATOM     13  C   UNL     1      10.084   5.341   7.606  0.00  0.00    +0.048 C 
ATOM     14  C   UNL     1       9.790   4.511   6.361  0.00  0.00    +0.023 C 
ATOM     15  C   UNL     1       9.511   4.678   8.855  0.00  0.00    +0.023 C 
ENDBRANCH   5  13
ENDBRANCH   8   5
BRANCH  10  12
ATOM     12  C   UNL     1      12.672   8.617   4.168  0.00  0.00    +0.140 C 
BRANCH  12   6
ATOM      3  O   UNL     1      13.461   2.957   1.247  0.00  0.00    -0.377 OA
ATOM      4  O   UNL     1      14.861   7.418   2.869  0.00  0.00    -0.253 OA
ATOM      6  N   UNL     1      12.634   7.379   3.423  0.00  0.00    -0.297 N 
ATOM      7  N   UNL     1      13.568   5.645   2.116  0.00  0.00    -0.281 N 
ATOM     16  C   UNL     1      13.764   6.851   2.808  0.00  0.00    +0.302 C 
ATOM     17  C   UNL     1      14.704   5.021   1.433  0.00  0.00    +0.137 C 
ATOM     18  C   UNL     1      12.277   4.988   1.867  0.00  0.00    +0.137 C 
ATOM     19  C   UNL     1      14.712   3.517   1.650  0.00  0.00    +0.179 C 
ATOM     20  C   UNL     1      12.394   3.478   2.042  0.00  0.00    +0.179 C 
ATOM     23  H   UNL     1      11.734   6.928   3.360  0.00  0.00    +0.150 HD
ENDBRANCH  12   6
ENDBRANCH  10  12
TORSDOF 5
ENDMDL
