MODEL 1
REMARK VINA RESULT:      -8.4      0.000      0.000
REMARK  Name = 26743888
REMARK  8 active torsions:
REMARK  status: ('A' for Active; 'I' for Inactive)
REMARK    1  A    between atoms: S_1  and  C_21
REMARK    2  A    between atoms: S_1  and  C_25
REMARK    3  A    between atoms: O_2  and  C_11
REMARK    4  A    between atoms: N_6  and  C_13
REMARK    5  A    between atoms: C_9  and  C_14
REMARK    6  A    between atoms: C_13  and  C_15
REMARK    7  A    between atoms: C_18  and  C_22
REMARK    8  A    between atoms: C_26  and  C_29
REMARK                            x       y       z     vdW  Elec       q    Type
REMARK                         _______ _______ _______ _____ _____    ______ ____
ROOT
ATOM      6  N   UNL     1      12.546   8.600  18.683  0.00  0.00    -0.285 NA
ATOM      9  C   UNL     1      13.388   7.427  18.373  0.00  0.00    +0.149 C 
ATOM     10  C   UNL     1      13.916   7.686  16.950  0.00  0.00    +0.061 C 
ATOM     11  C   UNL     1      13.279   9.004  16.527  0.00  0.00    +0.130 C 
ATOM     12  C   UNL     1      12.045   9.100  17.403  0.00  0.00    +0.116 C 
ENDROOT
BRANCH   9  14
ATOM      3  O   UNL     1      14.146   6.670  20.570  0.00  0.00    -0.336 OA
ATOM      7  N   UNL     1      15.774   7.509  19.280  0.00  0.00    -0.190 NA
ATOM      8  N   UNL     1      15.324   6.586  21.324  0.00  0.00    -0.056 NA
ATOM     14  C   UNL     1      14.499   7.225  19.381  0.00  0.00    +0.245 A 
ATOM     18  C   UNL     1      16.238   7.099  20.496  0.00  0.00    +0.202 A 
BRANCH  18  22
ATOM     22  C   UNL     1      17.622   7.216  20.851  0.00  0.00    +0.023 A 
ATOM     23  C   UNL     1      18.509   6.182  20.554  0.00  0.00    +0.015 A 
ATOM     24  C   UNL     1      18.083   8.365  21.495  0.00  0.00    +0.012 A 
ATOM     26  C   UNL     1      19.856   6.296  20.899  0.00  0.00    -0.050 A 
ATOM     27  C   UNL     1      19.429   8.479  21.841  0.00  0.00    +0.001 A 
ATOM     28  C   UNL     1      20.316   7.444  21.543  0.00  0.00    +0.003 A 
ATOM     29  C   UNL     1      20.804   5.190  20.580  0.00  0.00    +0.044 C 
ENDBRANCH  18  22
ENDBRANCH   9  14
BRANCH  11   2
ATOM      2  O   UNL     1      12.946   8.982  15.152  0.00  0.00    -0.390 OA
ATOM     30  H   UNL     1      13.272   8.142  14.786  0.00  0.00    +0.210 HD
ENDBRANCH  11   2
BRANCH   6  13
ATOM     13  C   UNL     1      11.467   8.302  19.616  0.00  0.00    +0.120 C 
BRANCH  13  15
ATOM     15  C   UNL     1      11.457   9.252  20.784  0.00  0.00    -0.033 A 
ATOM     16  C   UNL     1      12.162  10.454  20.711  0.00  0.00    +0.007 A 
ATOM     17  C   UNL     1      10.744   8.931  21.938  0.00  0.00    +0.007 A 
ATOM     19  C   UNL     1      12.153  11.334  21.794  0.00  0.00    +0.027 A 
ATOM     20  C   UNL     1      10.736   9.810  23.021  0.00  0.00    +0.027 A 
ATOM     21  C   UNL     1      11.440  11.012  22.948  0.00  0.00    +0.088 A 
BRANCH  21   1
ATOM      1  S   UNL     1      11.426  12.115  24.302  0.00  0.00    -0.006 S 
ATOM      4  O   UNL     1      10.070  12.611  24.493  0.00  0.00    -0.170 OA
ATOM      5  O   UNL     1      12.124  11.475  25.408  0.00  0.00    -0.170 OA
ATOM     25  C   UNL     1      12.411  13.493  23.758  0.00  0.00    +0.200 C 
ENDBRANCH  21   1
ENDBRANCH  13  15
ENDBRANCH   6  13
TORSDOF 6
ENDMDL
MODEL 2
REMARK VINA RESULT:      -7.8      2.999      5.420
REMARK  Name = 26743888
REMARK  8 active torsions:
REMARK  status: ('A' for Active; 'I' for Inactive)
REMARK    1  A    between atoms: S_1  and  C_21
REMARK    2  A    between atoms: S_1  and  C_25
REMARK    3  A    between atoms: O_2  and  C_11
REMARK    4  A    between atoms: N_6  and  C_13
REMARK    5  A    between atoms: C_9  and  C_14
REMARK    6  A    between atoms: C_13  and  C_15
REMARK    7  A    between atoms: C_18  and  C_22
REMARK    8  A    between atoms: C_26  and  C_29
REMARK                            x       y       z     vdW  Elec       q    Type
REMARK                         _______ _______ _______ _____ _____    ______ ____
ROOT
ATOM      6  N   UNL     1      12.238   8.919  20.327  0.00  0.00    -0.285 NA
ATOM      9  C   UNL     1      12.997   8.359  21.464  0.00  0.00    +0.149 C 
ATOM     10  C   UNL     1      12.068   7.290  22.069  0.00  0.00    +0.061 C 
ATOM     11  C   UNL     1      10.795   7.356  21.234  0.00  0.00    +0.130 C 
ATOM     12  C   UNL     1      10.823   8.757  20.655  0.00  0.00    +0.116 C 
ENDROOT
BRANCH   9  14
ATOM      3  O   UNL     1      14.325   6.838  20.088  0.00  0.00    -0.336 OA
ATOM      7  N   UNL     1      15.538   8.103  21.481  0.00  0.00    -0.190 NA
ATOM      8  N   UNL     1      15.662   6.480  19.874  0.00  0.00    -0.056 NA
ATOM     14  C   UNL     1      14.340   7.798  21.048  0.00  0.00    +0.245 A 
ATOM     18  C   UNL     1      16.315   7.269  20.732  0.00  0.00    +0.202 A 
BRANCH  18  22
ATOM     22  C   UNL     1      17.743   7.250  20.865  0.00  0.00    +0.023 A 
ATOM     23  C   UNL     1      18.456   6.088  20.569  0.00  0.00    +0.015 A 
ATOM     24  C   UNL     1      18.420   8.393  21.291  0.00  0.00    +0.012 A 
ATOM     26  C   UNL     1      19.845   6.069  20.697  0.00  0.00    -0.050 A 
ATOM     27  C   UNL     1      19.808   8.374  21.420  0.00  0.00    +0.001 A 
ATOM     28  C   UNL     1      20.521   7.212  21.123  0.00  0.00    +0.003 A 
ATOM     29  C   UNL     1      20.607   4.828  20.381  0.00  0.00    +0.044 C 
ENDBRANCH  18  22
ENDBRANCH   9  14
BRANCH  11   2
ATOM      2  O   UNL     1       9.653   7.145  22.043  0.00  0.00    -0.390 OA
ATOM     30  H   UNL     1       9.501   7.960  22.552  0.00  0.00    +0.210 HD
ENDBRANCH  11   2
BRANCH   6  13
ATOM     13  C   UNL     1      12.579  10.306  20.037  0.00  0.00    +0.120 C 
BRANCH  13  15
ATOM     15  C   UNL     1      13.199  10.457  18.674  0.00  0.00    -0.033 A 
ATOM     16  C   UNL     1      13.121   9.413  17.752  0.00  0.00    +0.007 A 
ATOM     17  C   UNL     1      13.852  11.641  18.332  0.00  0.00    +0.007 A 
ATOM     19  C   UNL     1      13.696   9.553  16.489  0.00  0.00    +0.027 A 
ATOM     20  C   UNL     1      14.427  11.782  17.070  0.00  0.00    +0.027 A 
ATOM     21  C   UNL     1      14.349  10.737  16.148  0.00  0.00    +0.088 A 
BRANCH  21   1
ATOM      1  S   UNL     1      15.066  10.914  14.565  0.00  0.00    -0.006 S 
ATOM      4  O   UNL     1      15.459   9.601  14.076  0.00  0.00    -0.170 OA
ATOM      5  O   UNL     1      14.182  11.750  13.764  0.00  0.00    -0.170 OA
ATOM     25  C   UNL     1      16.563  11.828  14.859  0.00  0.00    +0.200 C 
ENDBRANCH  21   1
ENDBRANCH  13  15
ENDBRANCH   6  13
TORSDOF 6
ENDMDL
MODEL 3
REMARK VINA RESULT:      -6.8     27.072     29.309
REMARK  Name = 26743888
REMARK  8 active torsions:
REMARK  status: ('A' for Active; 'I' for Inactive)
REMARK    1  A    between atoms: S_1  and  C_21
REMARK    2  A    between atoms: S_1  and  C_25
REMARK    3  A    between atoms: O_2  and  C_11
REMARK    4  A    between atoms: N_6  and  C_13
REMARK    5  A    between atoms: C_9  and  C_14
REMARK    6  A    between atoms: C_13  and  C_15
REMARK    7  A    between atoms: C_18  and  C_22
REMARK    8  A    between atoms: C_26  and  C_29
REMARK                            x       y       z     vdW  Elec       q    Type
REMARK                         _______ _______ _______ _____ _____    ______ ____
ROOT
ATOM      6  N   UNL     1      -7.289 -10.812  17.451  0.00  0.00    -0.285 NA
ATOM      9  C   UNL     1      -5.939 -11.223  17.887  0.00  0.00    +0.149 C 
ATOM     10  C   UNL     1      -6.101 -12.685  18.343  0.00  0.00    +0.061 C 
ATOM     11  C   UNL     1      -7.584 -12.990  18.170  0.00  0.00    +0.130 C 
ATOM     12  C   UNL     1      -8.236 -11.621  18.216  0.00  0.00    +0.116 C 
ENDROOT
BRANCH   9  14
ATOM      3  O   UNL     1      -3.601 -11.175  17.175  0.00  0.00    -0.336 OA
ATOM      7  N   UNL     1      -5.068 -10.827  15.519  0.00  0.00    -0.190 NA
ATOM      8  N   UNL     1      -2.841 -10.992  16.013  0.00  0.00    -0.056 NA
ATOM     14  C   UNL     1      -4.901 -11.062  16.796  0.00  0.00    +0.245 A 
ATOM     18  C   UNL     1      -3.776 -10.792  15.081  0.00  0.00    +0.202 A 
BRANCH  18  22
ATOM     22  C   UNL     1      -3.455 -10.555  13.704  0.00  0.00    +0.023 A 
ATOM     23  C   UNL     1      -4.475 -10.345  12.776  0.00  0.00    +0.015 A 
ATOM     24  C   UNL     1      -2.123 -10.537  13.291  0.00  0.00    +0.012 A 
ATOM     26  C   UNL     1      -4.162 -10.114  11.436  0.00  0.00    -0.050 A 
ATOM     27  C   UNL     1      -1.810 -10.307  11.951  0.00  0.00    +0.001 A 
ATOM     28  C   UNL     1      -2.830 -10.096  11.024  0.00  0.00    +0.003 A 
ATOM     29  C   UNL     1      -5.252  -9.888  10.443  0.00  0.00    +0.044 C 
ENDBRANCH  18  22
ENDBRANCH   9  14
BRANCH  11   2
ATOM      2  O   UNL     1      -8.049 -13.828  19.211  0.00  0.00    -0.390 OA
ATOM     30  H   UNL     1      -8.526 -13.268  19.846  0.00  0.00    +0.210 HD
ENDBRANCH  11   2
BRANCH   6  13
ATOM     13  C   UNL     1      -7.534  -9.384  17.610  0.00  0.00    +0.120 C 
BRANCH  13  15
ATOM     15  C   UNL     1      -8.709  -8.922  16.791  0.00  0.00    -0.033 A 
ATOM     16  C   UNL     1      -8.858  -9.360  15.475  0.00  0.00    +0.007 A 
ATOM     17  C   UNL     1      -9.650  -8.055  17.348  0.00  0.00    +0.007 A 
ATOM     19  C   UNL     1      -9.947  -8.931  14.716  0.00  0.00    +0.027 A 
ATOM     20  C   UNL     1     -10.738  -7.626  16.589  0.00  0.00    +0.027 A 
ATOM     21  C   UNL     1     -10.887  -8.065  15.273  0.00  0.00    +0.088 A 
BRANCH  21   1
ATOM      1  S   UNL     1     -12.252  -7.531  14.324  0.00  0.00    -0.006 S 
ATOM      4  O   UNL     1     -11.964  -7.757  12.914  0.00  0.00    -0.170 OA
ATOM      5  O   UNL     1     -13.457  -8.096  14.915  0.00  0.00    -0.170 OA
ATOM     25  C   UNL     1     -12.298  -5.770  14.568  0.00  0.00    +0.200 C 
ENDBRANCH  21   1
ENDBRANCH  13  15
ENDBRANCH   6  13
TORSDOF 6
ENDMDL
MODEL 4
REMARK VINA RESULT:      -6.8     25.096     28.129
REMARK  Name = 26743888
REMARK  8 active torsions:
REMARK  status: ('A' for Active; 'I' for Inactive)
REMARK    1  A    between atoms: S_1  and  C_21
REMARK    2  A    between atoms: S_1  and  C_25
REMARK    3  A    between atoms: O_2  and  C_11
REMARK    4  A    between atoms: N_6  and  C_13
REMARK    5  A    between atoms: C_9  and  C_14
REMARK    6  A    between atoms: C_13  and  C_15
REMARK    7  A    between atoms: C_18  and  C_22
REMARK    8  A    between atoms: C_26  and  C_29
REMARK                            x       y       z     vdW  Elec       q    Type
REMARK                         _______ _______ _______ _____ _____    ______ ____
ROOT
ATOM      6  N   UNL     1     -11.797   9.663  20.395  0.00  0.00    -0.285 NA
ATOM      9  C   UNL     1     -12.413   8.579  19.602  0.00  0.00    +0.149 C 
ATOM     10  C   UNL     1     -11.314   8.141  18.616  0.00  0.00    +0.061 C 
ATOM     11  C   UNL     1     -10.137   9.066  18.900  0.00  0.00    +0.130 C 
ATOM     12  C   UNL     1     -10.785  10.279  19.540  0.00  0.00    +0.116 C 
ENDROOT
BRANCH   9  14
ATOM      3  O   UNL     1     -11.970   6.620  20.993  0.00  0.00    -0.336 OA
ATOM      7  N   UNL     1     -14.144   7.116  20.779  0.00  0.00    -0.190 NA
ATOM      8  N   UNL     1     -12.665   5.657  21.738  0.00  0.00    -0.056 NA
ATOM     14  C   UNL     1     -12.914   7.439  20.462  0.00  0.00    +0.245 A 
ATOM     18  C   UNL     1     -13.939   6.018  21.562  0.00  0.00    +0.202 A 
BRANCH  18  22
ATOM     22  C   UNL     1     -15.032   5.303  22.155  0.00  0.00    +0.023 A 
ATOM     23  C   UNL     1     -14.865   4.669  23.386  0.00  0.00    +0.015 A 
ATOM     24  C   UNL     1     -16.262   5.240  21.501  0.00  0.00    +0.012 A 
ATOM     26  C   UNL     1     -15.928   3.974  23.964  0.00  0.00    -0.050 A 
ATOM     27  C   UNL     1     -17.325   4.545  22.077  0.00  0.00    +0.001 A 
ATOM     28  C   UNL     1     -17.158   3.912  23.309  0.00  0.00    +0.003 A 
ATOM     29  C   UNL     1     -15.750   3.297  25.280  0.00  0.00    +0.044 C 
ENDBRANCH  18  22
ENDBRANCH   9  14
BRANCH  11   2
ATOM      2  O   UNL     1      -9.462   9.401  17.703  0.00  0.00    -0.390 OA
ATOM     30  H   UNL     1      -8.573   9.713  17.946  0.00  0.00    +0.210 HD
ENDBRANCH  11   2
BRANCH   6  13
ATOM     13  C   UNL     1     -12.765  10.634  20.887  0.00  0.00    +0.120 C 
BRANCH  13  15
ATOM     15  C   UNL     1     -12.795  10.684  22.392  0.00  0.00    -0.033 A 
ATOM     16  C   UNL     1     -13.791  10.001  23.092  0.00  0.00    +0.007 A 
ATOM     17  C   UNL     1     -11.828  11.410  23.086  0.00  0.00    +0.007 A 
ATOM     19  C   UNL     1     -13.819  10.047  24.486  0.00  0.00    +0.027 A 
ATOM     20  C   UNL     1     -11.856  11.456  24.479  0.00  0.00    +0.027 A 
ATOM     21  C   UNL     1     -12.852  10.774  25.179  0.00  0.00    +0.088 A 
BRANCH  21   1
ATOM      1  S   UNL     1     -12.885  10.828  26.925  0.00  0.00    -0.006 S 
ATOM      4  O   UNL     1     -12.553  12.177  27.361  0.00  0.00    -0.170 OA
ATOM      5  O   UNL     1     -14.126  10.210  27.368  0.00  0.00    -0.170 OA
ATOM     25  C   UNL     1     -11.541   9.776  27.424  0.00  0.00    +0.200 C 
ENDBRANCH  21   1
ENDBRANCH  13  15
ENDBRANCH   6  13
TORSDOF 6
ENDMDL
MODEL 5
REMARK VINA RESULT:      -6.8      3.610      5.933
REMARK  Name = 26743888
REMARK  8 active torsions:
REMARK  status: ('A' for Active; 'I' for Inactive)
REMARK    1  A    between atoms: S_1  and  C_21
REMARK    2  A    between atoms: S_1  and  C_25
REMARK    3  A    between atoms: O_2  and  C_11
REMARK    4  A    between atoms: N_6  and  C_13
REMARK    5  A    between atoms: C_9  and  C_14
REMARK    6  A    between atoms: C_13  and  C_15
REMARK    7  A    between atoms: C_18  and  C_22
REMARK    8  A    between atoms: C_26  and  C_29
REMARK                            x       y       z     vdW  Elec       q    Type
REMARK                         _______ _______ _______ _____ _____    ______ ____
ROOT
ATOM      6  N   UNL     1      13.863   9.341  18.857  0.00  0.00    -0.285 NA
ATOM      9  C   UNL     1      14.123   8.584  20.098  0.00  0.00    +0.149 C 
ATOM     10  C   UNL     1      12.812   7.826  20.378  0.00  0.00    +0.061 C 
ATOM     11  C   UNL     1      11.862   8.257  19.268  0.00  0.00    +0.130 C 
ATOM     12  C   UNL     1      12.424   9.592  18.819  0.00  0.00    +0.116 C 
ENDROOT
BRANCH   9  14
ATOM      3  O   UNL     1      15.257   6.713  19.008  0.00  0.00    -0.336 OA
ATOM      7  N   UNL     1      16.423   7.638  20.682  0.00  0.00    -0.190 NA
ATOM      8  N   UNL     1      16.456   5.994  19.092  0.00  0.00    -0.056 NA
ATOM     14  C   UNL     1      15.318   7.661  19.979  0.00  0.00    +0.245 A 
ATOM     18  C   UNL     1      17.088   6.599  20.101  0.00  0.00    +0.202 A 
BRANCH  18  22
ATOM     22  C   UNL     1      18.387   6.191  20.554  0.00  0.00    +0.023 A 
ATOM     23  C   UNL     1      18.948   6.780  21.686  0.00  0.00    +0.015 A 
ATOM     24  C   UNL     1      19.090   5.205  19.861  0.00  0.00    +0.012 A 
ATOM     26  C   UNL     1      20.211   6.383  22.127  0.00  0.00    -0.050 A 
ATOM     27  C   UNL     1      20.352   4.808  20.300  0.00  0.00    +0.001 A 
ATOM     28  C   UNL     1      20.913   5.397  21.434  0.00  0.00    +0.003 A 
ATOM     29  C   UNL     1      20.811   7.012  23.338  0.00  0.00    +0.044 C 
ENDBRANCH  18  22
ENDBRANCH   9  14
BRANCH  11   2
ATOM      2  O   UNL     1      10.541   8.381  19.758  0.00  0.00    -0.390 OA
ATOM     30  H   UNL     1      10.176   7.483  19.846  0.00  0.00    +0.210 HD
ENDBRANCH  11   2
BRANCH   6  13
ATOM     13  C   UNL     1      14.637  10.572  18.763  0.00  0.00    +0.120 C 
BRANCH  13  15
ATOM     15  C   UNL     1      14.554  11.183  17.389  0.00  0.00    -0.033 A 
ATOM     16  C   UNL     1      14.710  10.380  16.259  0.00  0.00    +0.007 A 
ATOM     17  C   UNL     1      14.321  12.550  17.247  0.00  0.00    +0.007 A 
ATOM     19  C   UNL     1      14.634  10.947  14.986  0.00  0.00    +0.027 A 
ATOM     20  C   UNL     1      14.244  13.116  15.975  0.00  0.00    +0.027 A 
ATOM     21  C   UNL     1      14.400  12.314  14.844  0.00  0.00    +0.088 A 
BRANCH  21   1
ATOM      1  S   UNL     1      14.301  13.022  13.251  0.00  0.00    -0.006 S 
ATOM      4  O   UNL     1      15.325  14.049  13.126  0.00  0.00    -0.170 OA
ATOM      5  O   UNL     1      14.243  11.937  12.281  0.00  0.00    -0.170 OA
ATOM     25  C   UNL     1      12.728  13.854  13.235  0.00  0.00    +0.200 C 
ENDBRANCH  21   1
ENDBRANCH  13  15
ENDBRANCH   6  13
TORSDOF 6
ENDMDL
MODEL 6
REMARK VINA RESULT:      -6.8     27.324     29.239
REMARK  Name = 26743888
REMARK  8 active torsions:
REMARK  status: ('A' for Active; 'I' for Inactive)
REMARK    1  A    between atoms: S_1  and  C_21
REMARK    2  A    between atoms: S_1  and  C_25
REMARK    3  A    between atoms: O_2  and  C_11
REMARK    4  A    between atoms: N_6  and  C_13
REMARK    5  A    between atoms: C_9  and  C_14
REMARK    6  A    between atoms: C_13  and  C_15
REMARK    7  A    between atoms: C_18  and  C_22
REMARK    8  A    between atoms: C_26  and  C_29
REMARK                            x       y       z     vdW  Elec       q    Type
REMARK                         _______ _______ _______ _____ _____    ______ ____
ROOT
ATOM      6  N   UNL     1      -4.110 -11.461  10.453  0.00  0.00    -0.285 NA
ATOM      9  C   UNL     1      -3.090 -10.560  11.026  0.00  0.00    +0.149 C 
ATOM     10  C   UNL     1      -3.418  -9.173  10.443  0.00  0.00    +0.061 C 
ATOM     11  C   UNL     1      -4.607  -9.405   9.520  0.00  0.00    +0.130 C 
ATOM     12  C   UNL     1      -4.506 -10.877   9.173  0.00  0.00    +0.116 C 
ENDROOT
BRANCH   9  14
ATOM      3  O   UNL     1      -1.870 -10.531  13.144  0.00  0.00    -0.336 OA
ATOM      7  N   UNL     1      -4.096 -10.616  13.373  0.00  0.00    -0.190 NA
ATOM      8  N   UNL     1      -2.120 -10.552  14.522  0.00  0.00    -0.056 NA
ATOM     14  C   UNL     1      -3.086 -10.572  12.540  0.00  0.00    +0.245 A 
ATOM     18  C   UNL     1      -3.453 -10.602  14.576  0.00  0.00    +0.202 A 
BRANCH  18  22
ATOM     22  C   UNL     1      -4.175 -10.639  15.815  0.00  0.00    +0.023 A 
ATOM     23  C   UNL     1      -3.637 -11.304  16.917  0.00  0.00    +0.015 A 
ATOM     24  C   UNL     1      -5.416 -10.010  15.919  0.00  0.00    +0.012 A 
ATOM     26  C   UNL     1      -4.338 -11.338  18.122  0.00  0.00    -0.050 A 
ATOM     27  C   UNL     1      -6.117 -10.045  17.124  0.00  0.00    +0.001 A 
ATOM     28  C   UNL     1      -5.579 -10.709  18.225  0.00  0.00    +0.003 A 
ATOM     29  C   UNL     1      -3.763 -12.049  19.300  0.00  0.00    +0.044 C 
ENDBRANCH  18  22
ENDBRANCH   9  14
BRANCH  11   2
ATOM      2  O   UNL     1      -4.516  -8.587   8.369  0.00  0.00    -0.390 OA
ATOM     30  H   UNL     1      -3.813  -7.934   8.529  0.00  0.00    +0.210 HD
ENDBRANCH  11   2
BRANCH   6  13
ATOM     13  C   UNL     1      -3.647 -12.835  10.310  0.00  0.00    +0.120 C 
BRANCH  13  15
ATOM     15  C   UNL     1      -3.814 -13.619  11.584  0.00  0.00    -0.033 A 
ATOM     16  C   UNL     1      -2.714 -14.253  12.162  0.00  0.00    +0.007 A 
ATOM     17  C   UNL     1      -5.068 -13.711  12.188  0.00  0.00    +0.007 A 
ATOM     19  C   UNL     1      -2.869 -14.980  13.343  0.00  0.00    +0.027 A 
ATOM     20  C   UNL     1      -5.223 -14.438  13.368  0.00  0.00    +0.027 A 
ATOM     21  C   UNL     1      -4.123 -15.072  13.946  0.00  0.00    +0.088 A 
BRANCH  21   1
ATOM      1  S   UNL     1      -4.316 -15.979  15.426  0.00  0.00    -0.006 S 
ATOM      4  O   UNL     1      -5.368 -16.968  15.239  0.00  0.00    -0.170 OA
ATOM      5  O   UNL     1      -2.994 -16.403  15.867  0.00  0.00    -0.170 OA
ATOM     25  C   UNL     1      -4.927 -14.787  16.597  0.00  0.00    +0.200 C 
ENDBRANCH  21   1
ENDBRANCH  13  15
ENDBRANCH   6  13
TORSDOF 6
ENDMDL
MODEL 7
REMARK VINA RESULT:      -6.7     14.391     17.235
REMARK  Name = 26743888
REMARK  8 active torsions:
REMARK  status: ('A' for Active; 'I' for Inactive)
REMARK    1  A    between atoms: S_1  and  C_21
REMARK    2  A    between atoms: S_1  and  C_25
REMARK    3  A    between atoms: O_2  and  C_11
REMARK    4  A    between atoms: N_6  and  C_13
REMARK    5  A    between atoms: C_9  and  C_14
REMARK    6  A    between atoms: C_13  and  C_15
REMARK    7  A    between atoms: C_18  and  C_22
REMARK    8  A    between atoms: C_26  and  C_29
REMARK                            x       y       z     vdW  Elec       q    Type
REMARK                         _______ _______ _______ _____ _____    ______ ____
ROOT
ATOM      6  N   UNL     1      10.309   5.564   6.196  0.00  0.00    -0.285 NA
ATOM      9  C   UNL     1      10.068   6.743   7.054  0.00  0.00    +0.149 C 
ATOM     10  C   UNL     1       9.924   6.172   8.476  0.00  0.00    +0.061 C 
ATOM     11  C   UNL     1      10.052   4.662   8.310  0.00  0.00    +0.130 C 
ATOM     12  C   UNL     1       9.668   4.431   6.862  0.00  0.00    +0.116 C 
ENDROOT
BRANCH   9  14
ATOM      3  O   UNL     1      10.811   9.069   7.153  0.00  0.00    -0.336 OA
ATOM      7  N   UNL     1      12.442   7.609   6.681  0.00  0.00    -0.190 NA
ATOM      8  N   UNL     1      11.980   9.825   7.004  0.00  0.00    -0.056 NA
ATOM     14  C   UNL     1      11.170   7.775   6.947  0.00  0.00    +0.245 A 
ATOM     18  C   UNL     1      12.896   8.894   6.727  0.00  0.00    +0.202 A 
BRANCH  18  22
ATOM     22  C   UNL     1      14.275   9.213   6.491  0.00  0.00    +0.023 A 
ATOM     23  C   UNL     1      14.744  10.503   6.738  0.00  0.00    +0.015 A 
ATOM     24  C   UNL     1      15.147   8.234   6.015  0.00  0.00    +0.012 A 
ATOM     26  C   UNL     1      16.086  10.813   6.511  0.00  0.00    -0.050 A 
ATOM     27  C   UNL     1      16.487   8.544   5.787  0.00  0.00    +0.001 A 
ATOM     28  C   UNL     1      16.956   9.833   6.034  0.00  0.00    +0.003 A 
ATOM     29  C   UNL     1      16.588  12.192   6.775  0.00  0.00    +0.044 C 
ENDBRANCH  18  22
ENDBRANCH   9  14
BRANCH  11   2
ATOM      2  O   UNL     1       9.183   3.985   9.198  0.00  0.00    -0.390 OA
ATOM     30  H   UNL     1       8.605   4.651   9.608  0.00  0.00    +0.210 HD
ENDBRANCH  11   2
BRANCH   6  13
ATOM     13  C   UNL     1       9.831   5.740   4.831  0.00  0.00    +0.120 C 
BRANCH  13  15
ATOM     15  C   UNL     1      10.874   5.350   3.818  0.00  0.00    -0.033 A 
ATOM     16  C   UNL     1      10.848   4.078   3.244  0.00  0.00    +0.007 A 
ATOM     17  C   UNL     1      11.866   6.259   3.451  0.00  0.00    +0.007 A 
ATOM     19  C   UNL     1      11.814   3.717   2.305  0.00  0.00    +0.027 A 
ATOM     20  C   UNL     1      12.831   5.898   2.513  0.00  0.00    +0.027 A 
ATOM     21  C   UNL     1      12.805   4.627   1.939  0.00  0.00    +0.088 A 
BRANCH  21   1
ATOM      1  S   UNL     1      14.013   4.176   0.761  0.00  0.00    -0.006 S 
ATOM      4  O   UNL     1      14.551   5.383   0.150  0.00  0.00    -0.170 OA
ATOM      5  O   UNL     1      14.915   3.219   1.388  0.00  0.00    -0.170 OA
ATOM     25  C   UNL     1      13.099   3.318  -0.502  0.00  0.00    +0.200 C 
ENDBRANCH  21   1
ENDBRANCH  13  15
ENDBRANCH   6  13
TORSDOF 6
ENDMDL
MODEL 8
REMARK VINA RESULT:      -6.7      1.372      2.087
REMARK  Name = 26743888
REMARK  8 active torsions:
REMARK  status: ('A' for Active; 'I' for Inactive)
REMARK    1  A    between atoms: S_1  and  C_21
REMARK    2  A    between atoms: S_1  and  C_25
REMARK    3  A    between atoms: O_2  and  C_11
REMARK    4  A    between atoms: N_6  and  C_13
REMARK    5  A    between atoms: C_9  and  C_14
REMARK    6  A    between atoms: C_13  and  C_15
REMARK    7  A    between atoms: C_18  and  C_22
REMARK    8  A    between atoms: C_26  and  C_29
REMARK                            x       y       z     vdW  Elec       q    Type
REMARK                         _______ _______ _______ _____ _____    ______ ____
ROOT
ATOM      6  N   UNL     1      13.879   9.556  18.807  0.00  0.00    -0.285 NA
ATOM      9  C   UNL     1      13.600   8.521  19.823  0.00  0.00    +0.149 C 
ATOM     10  C   UNL     1      12.639   7.538  19.130  0.00  0.00    +0.061 C 
ATOM     11  C   UNL     1      12.401   8.129  17.746  0.00  0.00    +0.130 C 
ATOM     12  C   UNL     1      12.710   9.602  17.931  0.00  0.00    +0.116 C 
ENDROOT
BRANCH   9  14
ATOM      3  O   UNL     1      14.686   6.748  21.109  0.00  0.00    -0.336 OA
ATOM      7  N   UNL     1      16.111   8.172  20.131  0.00  0.00    -0.190 NA
ATOM      8  N   UNL     1      15.971   6.310  21.452  0.00  0.00    -0.056 NA
ATOM     14  C   UNL     1      14.858   7.848  20.331  0.00  0.00    +0.245 A 
ATOM     18  C   UNL     1      16.756   7.200  20.839  0.00  0.00    +0.202 A 
BRANCH  18  22
ATOM     22  C   UNL     1      18.187   7.145  20.910  0.00  0.00    +0.023 A 
ATOM     23  C   UNL     1      18.897   8.195  21.493  0.00  0.00    +0.015 A 
ATOM     24  C   UNL     1      18.871   6.043  20.397  0.00  0.00    +0.012 A 
ATOM     26  C   UNL     1      20.289   8.142  21.564  0.00  0.00    -0.050 A 
ATOM     27  C   UNL     1      20.262   5.990  20.467  0.00  0.00    +0.001 A 
ATOM     28  C   UNL     1      20.972   7.040  21.050  0.00  0.00    +0.003 A 
ATOM     29  C   UNL     1      21.048   9.265  22.187  0.00  0.00    +0.044 C 
ENDBRANCH  18  22
ENDBRANCH   9  14
BRANCH  11   2
ATOM      2  O   UNL     1      11.063   7.921  17.335  0.00  0.00    -0.390 OA
ATOM     30  H   UNL     1      10.722   7.154  17.827  0.00  0.00    +0.210 HD
ENDBRANCH  11   2
BRANCH   6  13
ATOM     13  C   UNL     1      14.184  10.859  19.384  0.00  0.00    +0.120 C 
BRANCH  13  15
ATOM     15  C   UNL     1      13.457  11.081  20.683  0.00  0.00    -0.033 A 
ATOM     16  C   UNL     1      14.148  11.001  21.892  0.00  0.00    +0.007 A 
ATOM     17  C   UNL     1      12.092  11.369  20.679  0.00  0.00    +0.007 A 
ATOM     19  C   UNL     1      13.474  11.207  23.096  0.00  0.00    +0.027 A 
ATOM     20  C   UNL     1      11.418  11.574  21.881  0.00  0.00    +0.027 A 
ATOM     21  C   UNL     1      12.109  11.494  23.091  0.00  0.00    +0.088 A 
BRANCH  21   1
ATOM      1  S   UNL     1      11.266  11.756  24.597  0.00  0.00    -0.006 S 
ATOM      4  O   UNL     1      10.015  12.449  24.324  0.00  0.00    -0.170 OA
ATOM      5  O   UNL     1      11.249  10.495  25.326  0.00  0.00    -0.170 OA
ATOM     25  C   UNL     1      12.303  12.891  25.492  0.00  0.00    +0.200 C 
ENDBRANCH  21   1
ENDBRANCH  13  15
ENDBRANCH   6  13
TORSDOF 6
ENDMDL
MODEL 9
REMARK VINA RESULT:      -6.6     27.333     29.230
REMARK  Name = 26743888
REMARK  8 active torsions:
REMARK  status: ('A' for Active; 'I' for Inactive)
REMARK    1  A    between atoms: S_1  and  C_21
REMARK    2  A    between atoms: S_1  and  C_25
REMARK    3  A    between atoms: O_2  and  C_11
REMARK    4  A    between atoms: N_6  and  C_13
REMARK    5  A    between atoms: C_9  and  C_14
REMARK    6  A    between atoms: C_13  and  C_15
REMARK    7  A    between atoms: C_18  and  C_22
REMARK    8  A    between atoms: C_26  and  C_29
REMARK                            x       y       z     vdW  Elec       q    Type
REMARK                         _______ _______ _______ _____ _____    ______ ____
ROOT
ATOM      6  N   UNL     1      -5.607  -9.669   9.003  0.00  0.00    -0.285 NA
ATOM      9  C   UNL     1      -6.361  -8.744   9.873  0.00  0.00    +0.149 C 
ATOM     10  C   UNL     1      -7.670  -8.465   9.111  0.00  0.00    +0.061 C 
ATOM     11  C   UNL     1      -7.539  -9.240   7.806  0.00  0.00    +0.130 C 
ATOM     12  C   UNL     1      -6.040  -9.395   7.634  0.00  0.00    +0.116 C 
ENDROOT
BRANCH   9  14
ATOM      3  O   UNL     1      -7.689 -10.107  11.407  0.00  0.00    -0.336 OA
ATOM      7  N   UNL     1      -5.902  -9.145  12.353  0.00  0.00    -0.190 NA
ATOM      8  N   UNL     1      -7.699 -10.502  12.751  0.00  0.00    -0.056 NA
ATOM     14  C   UNL     1      -6.599  -9.310  11.257  0.00  0.00    +0.245 A 
ATOM     18  C   UNL     1      -6.616  -9.895  13.241  0.00  0.00    +0.202 A 
BRANCH  18  22
ATOM     22  C   UNL     1      -6.217 -10.018  14.614  0.00  0.00    +0.023 A 
ATOM     23  C   UNL     1      -4.915 -10.405  14.930  0.00  0.00    +0.015 A 
ATOM     24  C   UNL     1      -7.131  -9.751  15.633  0.00  0.00    +0.012 A 
ATOM     26  C   UNL     1      -4.527 -10.523  16.265  0.00  0.00    -0.050 A 
ATOM     27  C   UNL     1      -6.744  -9.870  16.967  0.00  0.00    +0.001 A 
ATOM     28  C   UNL     1      -5.441 -10.256  17.283  0.00  0.00    +0.003 A 
ATOM     29  C   UNL     1      -3.135 -10.936  16.603  0.00  0.00    +0.044 C 
ENDBRANCH  18  22
ENDBRANCH   9  14
BRANCH  11   2
ATOM      2  O   UNL     1      -8.118  -8.520   6.735  0.00  0.00    -0.390 OA
ATOM     30  H   UNL     1      -8.497  -9.169   6.117  0.00  0.00    +0.210 HD
ENDBRANCH  11   2
BRANCH   6  13
ATOM     13  C   UNL     1      -4.163  -9.553   9.155  0.00  0.00    +0.120 C 
BRANCH  13  15
ATOM     15  C   UNL     1      -3.631 -10.497  10.200  0.00  0.00    -0.033 A 
ATOM     16  C   UNL     1      -2.701 -10.047  11.138  0.00  0.00    +0.007 A 
ATOM     17  C   UNL     1      -4.069 -11.821  10.232  0.00  0.00    +0.007 A 
ATOM     19  C   UNL     1      -2.208 -10.923  12.106  0.00  0.00    +0.027 A 
ATOM     20  C   UNL     1      -3.576 -12.696  11.199  0.00  0.00    +0.027 A 
ATOM     21  C   UNL     1      -2.646 -12.246  12.137  0.00  0.00    +0.088 A 
BRANCH  21   1
ATOM      1  S   UNL     1      -2.031 -13.341  13.351  0.00  0.00    -0.006 S 
ATOM      4  O   UNL     1      -1.530 -14.540  12.694  0.00  0.00    -0.170 OA
ATOM      5  O   UNL     1      -1.159 -12.583  14.237  0.00  0.00    -0.170 OA
ATOM     25  C   UNL     1      -3.470 -13.822  14.280  0.00  0.00    +0.200 C 
ENDBRANCH  21   1
ENDBRANCH  13  15
ENDBRANCH   6  13
TORSDOF 6
ENDMDL
MODEL 10
REMARK VINA RESULT:      -6.6     28.213     30.368
REMARK  Name = 26743888
REMARK  8 active torsions:
REMARK  status: ('A' for Active; 'I' for Inactive)
REMARK    1  A    between atoms: S_1  and  C_21
REMARK    2  A    between atoms: S_1  and  C_25
REMARK    3  A    between atoms: O_2  and  C_11
REMARK    4  A    between atoms: N_6  and  C_13
REMARK    5  A    between atoms: C_9  and  C_14
REMARK    6  A    between atoms: C_13  and  C_15
REMARK    7  A    between atoms: C_18  and  C_22
REMARK    8  A    between atoms: C_26  and  C_29
REMARK                            x       y       z     vdW  Elec       q    Type
REMARK                         _______ _______ _______ _____ _____    ______ ____
ROOT
ATOM      6  N   UNL     1     -10.096 -12.003  19.336  0.00  0.00    -0.285 NA
ATOM      9  C   UNL     1      -8.823 -12.363  19.995  0.00  0.00    +0.149 C 
ATOM     10  C   UNL     1      -8.789 -13.902  19.971  0.00  0.00    +0.061 C 
ATOM     11  C   UNL     1     -10.104 -14.316  19.322  0.00  0.00    +0.130 C 
ATOM     12  C   UNL     1     -11.009 -13.122  19.561  0.00  0.00    +0.116 C 
ENDROOT
BRANCH   9  14
ATOM      3  O   UNL     1      -6.867 -10.900  20.073  0.00  0.00    -0.336 OA
ATOM      7  N   UNL     1      -7.187 -11.892  18.091  0.00  0.00    -0.190 NA
ATOM      8  N   UNL     1      -5.829 -10.457  19.243  0.00  0.00    -0.056 NA
ATOM     14  C   UNL     1      -7.621 -11.741  19.318  0.00  0.00    +0.245 A 
ATOM     18  C   UNL     1      -6.087 -11.085  18.093  0.00  0.00    +0.202 A 
BRANCH  18  22
ATOM     22  C   UNL     1      -5.266 -10.930  16.927  0.00  0.00    +0.023 A 
ATOM     23  C   UNL     1      -3.877 -10.912  17.050  0.00  0.00    +0.015 A 
ATOM     24  C   UNL     1      -5.856 -10.797  15.670  0.00  0.00    +0.012 A 
ATOM     26  C   UNL     1      -3.078 -10.763  15.916  0.00  0.00    -0.050 A 
ATOM     27  C   UNL     1      -5.058 -10.646  14.537  0.00  0.00    +0.001 A 
ATOM     28  C   UNL     1      -3.669 -10.629  14.660  0.00  0.00    +0.003 A 
ATOM     29  C   UNL     1      -1.593 -10.744  16.047  0.00  0.00    +0.044 C 
ENDBRANCH  18  22
ENDBRANCH   9  14
BRANCH  11   2
ATOM      2  O   UNL     1     -10.614 -15.490  19.926  0.00  0.00    -0.390 OA
ATOM     30  H   UNL     1     -10.509 -16.216  19.287  0.00  0.00    +0.210 HD
ENDBRANCH  11   2
BRANCH   6  13
ATOM     13  C   UNL     1     -10.649 -10.740  19.807  0.00  0.00    +0.120 C 
BRANCH  13  15
ATOM     15  C   UNL     1     -10.948  -9.800  18.670  0.00  0.00    -0.033 A 
ATOM     16  C   UNL     1      -9.904  -9.154  18.007  0.00  0.00    +0.007 A 
ATOM     17  C   UNL     1     -12.267  -9.576  18.278  0.00  0.00    +0.007 A 
ATOM     19  C   UNL     1     -10.182  -8.283  16.953  0.00  0.00    +0.027 A 
ATOM     20  C   UNL     1     -12.545  -8.705  17.226  0.00  0.00    +0.027 A 
ATOM     21  C   UNL     1     -11.501  -8.058  16.562  0.00  0.00    +0.088 A 
BRANCH  21   1
ATOM      1  S   UNL     1     -11.848  -6.970  15.241  0.00  0.00    -0.006 S 
ATOM      4  O   UNL     1     -11.043  -5.767  15.397  0.00  0.00    -0.170 OA
ATOM      5  O   UNL     1     -11.775  -7.733  14.002  0.00  0.00    -0.170 OA
ATOM     25  C   UNL     1     -13.544  -6.497  15.493  0.00  0.00    +0.200 C 
ENDBRANCH  21   1
ENDBRANCH  13  15
ENDBRANCH   6  13
TORSDOF 6
ENDMDL
