MODEL 1
REMARK VINA RESULT:      -6.5      0.000      0.000
REMARK  Name = 40777893
REMARK  11 active torsions:
REMARK  status: ('A' for Active; 'I' for Inactive)
REMARK    1  A    between atoms: S_1  and  N_10
REMARK    2  A    between atoms: S_1  and  C_23
REMARK    3  A    between atoms: O_3  and  C_12
REMARK    4  A    between atoms: O_4  and  C_13
REMARK    5  A    between atoms: O_5  and  C_22
REMARK    6  A    between atoms: O_5  and  C_24
REMARK    7  A    between atoms: N_10  and  C_21
REMARK    8  A    between atoms: C_11  and  C_16
REMARK    9  A    between atoms: C_14  and  C_21
REMARK   10  A    between atoms: C_15  and  C_22
REMARK   11  A    between atoms: C_16  and  C_20
REMARK                            x       y       z     vdW  Elec       q    Type
REMARK                         _______ _______ _______ _____ _____    ______ ____
ROOT
ATOM      2  O   UNL     1      11.192   8.864  20.211  0.00  0.00    -0.366 OA
ATOM     11  C   UNL     1      11.640   7.508  20.048  0.00  0.00    +0.158 C 
ATOM     12  C   UNL     1      11.928   6.998  21.450  0.00  0.00    +0.175 C 
ATOM     13  C   UNL     1      10.849   7.693  22.254  0.00  0.00    +0.175 C 
ATOM     14  C   UNL     1      10.788   9.063  21.586  0.00  0.00    +0.165 C 
ENDROOT
BRANCH  12   3
ATOM      3  O   UNL     1      11.865   5.591  21.527  0.00  0.00    -0.387 OA
ATOM     25  H   UNL     1      12.739   5.245  21.280  0.00  0.00    +0.210 HD
ENDBRANCH  12   3
BRANCH  13   4
ATOM      4  O   UNL     1       9.591   7.048  22.056  0.00  0.00    -0.387 OA
ATOM     26  H   UNL     1       9.744   6.089  22.106  0.00  0.00    +0.210 HD
ENDBRANCH  13   4
BRANCH  11  16
ATOM     16  C   UNL     1      12.853   7.476  19.135  0.00  0.00    +0.130 C 
BRANCH  16  20
ATOM      6  O   UNL     1      13.666   9.691  19.456  0.00  0.00    -0.276 OA
ATOM      9  N   UNL     1      15.012   7.956  20.184  0.00  0.00    -0.296 N 
ATOM     15  C   UNL     1      16.144   8.787  20.603  0.00  0.00    +0.102 C 
ATOM     17  C   UNL     1      17.292   7.786  20.758  0.00  0.00    +0.026 C 
ATOM     18  C   UNL     1      15.300   6.536  20.376  0.00  0.00    +0.108 C 
ATOM     19  C   UNL     1      16.588   6.504  21.185  0.00  0.00    +0.021 C 
ATOM     20  C   UNL     1      13.873   8.484  19.601  0.00  0.00    +0.218 C 
BRANCH  15  22
ATOM     22  C   UNL     1      15.842   9.526  21.905  0.00  0.00    +0.181 C 
BRANCH  22   5
ATOM      5  O   UNL     1      15.846  10.916  21.643  0.00  0.00    -0.381 OA
ATOM     24  C   UNL     1      17.168  11.441  21.600  0.00  0.00    +0.194 C 
ENDBRANCH  22   5
ENDBRANCH  15  22
ENDBRANCH  16  20
ENDBRANCH  11  16
BRANCH  14  21
ATOM     21  C   UNL     1      11.741  10.073  22.210  0.00  0.00    +0.139 C 
BRANCH  21  10
ATOM     10  N   UNL     1      11.550  10.158  23.628  0.00  0.00    -0.192 NA
ATOM     27  H   UNL     1      11.991   9.396  24.161  0.00  0.00    +0.148 HD
BRANCH  10   1
ATOM      1  S   UNL     1      11.523  11.695  24.417  0.00  0.00    +0.027 S 
ATOM      7  O   UNL     1      12.358  11.632  25.600  0.00  0.00    -0.158 OA
ATOM      8  O   UNL     1      10.158  12.180  24.496  0.00  0.00    -0.158 OA
ATOM     23  C   UNL     1      12.367  12.682  23.203  0.00  0.00    +0.214 C 
ENDBRANCH  10   1
ENDBRANCH  21  10
ENDBRANCH  14  21
TORSDOF 9
ENDMDL
MODEL 2
REMARK VINA RESULT:      -6.3      3.187      6.390
REMARK  Name = 40777893
REMARK  11 active torsions:
REMARK  status: ('A' for Active; 'I' for Inactive)
REMARK    1  A    between atoms: S_1  and  N_10
REMARK    2  A    between atoms: S_1  and  C_23
REMARK    3  A    between atoms: O_3  and  C_12
REMARK    4  A    between atoms: O_4  and  C_13
REMARK    5  A    between atoms: O_5  and  C_22
REMARK    6  A    between atoms: O_5  and  C_24
REMARK    7  A    between atoms: N_10  and  C_21
REMARK    8  A    between atoms: C_11  and  C_16
REMARK    9  A    between atoms: C_14  and  C_21
REMARK   10  A    between atoms: C_15  and  C_22
REMARK   11  A    between atoms: C_16  and  C_20
REMARK                            x       y       z     vdW  Elec       q    Type
REMARK                         _______ _______ _______ _____ _____    ______ ____
ROOT
ATOM      2  O   UNL     1      13.029   8.416  20.419  0.00  0.00    -0.366 OA
ATOM     11  C   UNL     1      11.937   8.640  21.327  0.00  0.00    +0.158 C 
ATOM     12  C   UNL     1      10.855   7.654  20.919  0.00  0.00    +0.175 C 
ATOM     13  C   UNL     1      11.679   6.459  20.489  0.00  0.00    +0.175 C 
ATOM     14  C   UNL     1      12.863   7.122  19.794  0.00  0.00    +0.165 C 
ENDROOT
BRANCH  12   3
ATOM      3  O   UNL     1       9.968   7.371  21.979  0.00  0.00    -0.387 OA
ATOM     25  H   UNL     1      10.506   7.147  22.758  0.00  0.00    +0.210 HD
ENDBRANCH  12   3
BRANCH  13   4
ATOM      4  O   UNL     1      12.171   5.760  21.632  0.00  0.00    -0.387 OA
ATOM     26  H   UNL     1      12.490   4.893  21.329  0.00  0.00    +0.210 HD
ENDBRANCH  13   4
BRANCH  11  16
ATOM     16  C   UNL     1      11.493  10.089  21.246  0.00  0.00    +0.130 C 
BRANCH  16  20
ATOM      6  O   UNL     1      10.996   9.807  23.557  0.00  0.00    -0.276 OA
ATOM      9  N   UNL     1      10.998  11.969  22.734  0.00  0.00    -0.296 N 
ATOM     15  C   UNL     1      10.562  12.619  23.972  0.00  0.00    +0.102 C 
ATOM     17  C   UNL     1      10.133  14.017  23.517  0.00  0.00    +0.026 C 
ATOM     18  C   UNL     1      11.156  12.941  21.654  0.00  0.00    +0.108 C 
ATOM     19  C   UNL     1      11.047  14.299  22.331  0.00  0.00    +0.021 C 
ATOM     20  C   UNL     1      11.139  10.596  22.621  0.00  0.00    +0.218 C 
BRANCH  15  22
ATOM     22  C   UNL     1      11.688  12.668  25.003  0.00  0.00    +0.181 C 
BRANCH  22   5
ATOM      5  O   UNL     1      11.358  13.635  25.983  0.00  0.00    -0.381 OA
ATOM     24  C   UNL     1      12.499  14.381  26.392  0.00  0.00    +0.194 C 
ENDBRANCH  22   5
ENDBRANCH  15  22
ENDBRANCH  16  20
ENDBRANCH  11  16
BRANCH  14  21
ATOM     21  C   UNL     1      12.629   7.350  18.307  0.00  0.00    +0.139 C 
BRANCH  21  10
ATOM     10  N   UNL     1      13.552   8.311  17.779  0.00  0.00    -0.192 NA
ATOM     27  H   UNL     1      14.541   8.080  17.937  0.00  0.00    +0.148 HD
BRANCH  10   1
ATOM      1  S   UNL     1      13.211   9.127  16.294  0.00  0.00    +0.027 S 
ATOM      7  O   UNL     1      11.785   9.370  16.206  0.00  0.00    -0.158 OA
ATOM      8  O   UNL     1      13.922   8.481  15.207  0.00  0.00    -0.158 OA
ATOM     23  C   UNL     1      14.014  10.683  16.603  0.00  0.00    +0.214 C 
ENDBRANCH  10   1
ENDBRANCH  21  10
ENDBRANCH  14  21
TORSDOF 9
ENDMDL
MODEL 3
REMARK VINA RESULT:      -6.2      3.122      6.464
REMARK  Name = 40777893
REMARK  11 active torsions:
REMARK  status: ('A' for Active; 'I' for Inactive)
REMARK    1  A    between atoms: S_1  and  N_10
REMARK    2  A    between atoms: S_1  and  C_23
REMARK    3  A    between atoms: O_3  and  C_12
REMARK    4  A    between atoms: O_4  and  C_13
REMARK    5  A    between atoms: O_5  and  C_22
REMARK    6  A    between atoms: O_5  and  C_24
REMARK    7  A    between atoms: N_10  and  C_21
REMARK    8  A    between atoms: C_11  and  C_16
REMARK    9  A    between atoms: C_14  and  C_21
REMARK   10  A    between atoms: C_15  and  C_22
REMARK   11  A    between atoms: C_16  and  C_20
REMARK                            x       y       z     vdW  Elec       q    Type
REMARK                         _______ _______ _______ _____ _____    ______ ____
ROOT
ATOM      2  O   UNL     1      14.064   8.296  20.257  0.00  0.00    -0.366 OA
ATOM     11  C   UNL     1      12.776   8.912  20.428  0.00  0.00    +0.158 C 
ATOM     12  C   UNL     1      11.922   8.406  19.278  0.00  0.00    +0.175 C 
ATOM     13  C   UNL     1      12.433   6.989  19.121  0.00  0.00    +0.175 C 
ATOM     14  C   UNL     1      13.928   7.161  19.371  0.00  0.00    +0.165 C 
ENDROOT
BRANCH  12   3
ATOM      3  O   UNL     1      10.543   8.474  19.570  0.00  0.00    -0.387 OA
ATOM     25  H   UNL     1      10.452   8.523  20.537  0.00  0.00    +0.210 HD
ENDBRANCH  12   3
BRANCH  13   4
ATOM      4  O   UNL     1      11.904   6.155  20.151  0.00  0.00    -0.387 OA
ATOM     26  H   UNL     1      11.141   5.681  19.780  0.00  0.00    +0.210 HD
ENDBRANCH  13   4
BRANCH  11  16
ATOM     16  C   UNL     1      12.929  10.423  20.444  0.00  0.00    +0.130 C 
BRANCH  16  20
ATOM      6  O   UNL     1      11.261  10.330  22.141  0.00  0.00    -0.276 OA
ATOM      9  N   UNL     1      11.715  12.402  21.218  0.00  0.00    -0.296 N 
ATOM     15  C   UNL     1      10.682  13.140  21.950  0.00  0.00    +0.102 C 
ATOM     17  C   UNL     1      10.572  14.463  21.187  0.00  0.00    +0.026 C 
ATOM     18  C   UNL     1      12.435  13.277  20.295  0.00  0.00    +0.108 C 
ATOM     19  C   UNL     1      11.983  14.684  20.655  0.00  0.00    +0.021 C 
ATOM     20  C   UNL     1      11.890  11.035  21.349  0.00  0.00    +0.218 C 
BRANCH  15  22
ATOM     22  C   UNL     1      11.074  13.348  23.411  0.00  0.00    +0.181 C 
BRANCH  22   5
ATOM      5  O   UNL     1      10.250  12.526  24.217  0.00  0.00    -0.381 OA
ATOM     24  C   UNL     1      10.917  12.114  25.405  0.00  0.00    +0.194 C 
ENDBRANCH  22   5
ENDBRANCH  15  22
ENDBRANCH  16  20
ENDBRANCH  11  16
BRANCH  14  21
ATOM     21  C   UNL     1      14.714   7.461  18.103  0.00  0.00    +0.139 C 
BRANCH  21  10
ATOM     10  N   UNL     1      13.839   7.654  16.985  0.00  0.00    -0.192 NA
ATOM     27  H   UNL     1      12.905   7.239  17.101  0.00  0.00    +0.148 HD
BRANCH  10   1
ATOM      1  S   UNL     1      13.887   9.126  16.080  0.00  0.00    +0.027 S 
ATOM      7  O   UNL     1      14.591   8.891  14.835  0.00  0.00    -0.158 OA
ATOM      8  O   UNL     1      14.265  10.222  16.952  0.00  0.00    -0.158 OA
ATOM     23  C   UNL     1      12.159   9.317  15.705  0.00  0.00    +0.214 C 
ENDBRANCH  10   1
ENDBRANCH  21  10
ENDBRANCH  14  21
TORSDOF 9
ENDMDL
MODEL 4
REMARK VINA RESULT:      -6.2      3.877      5.676
REMARK  Name = 40777893
REMARK  11 active torsions:
REMARK  status: ('A' for Active; 'I' for Inactive)
REMARK    1  A    between atoms: S_1  and  N_10
REMARK    2  A    between atoms: S_1  and  C_23
REMARK    3  A    between atoms: O_3  and  C_12
REMARK    4  A    between atoms: O_4  and  C_13
REMARK    5  A    between atoms: O_5  and  C_22
REMARK    6  A    between atoms: O_5  and  C_24
REMARK    7  A    between atoms: N_10  and  C_21
REMARK    8  A    between atoms: C_11  and  C_16
REMARK    9  A    between atoms: C_14  and  C_21
REMARK   10  A    between atoms: C_15  and  C_22
REMARK   11  A    between atoms: C_16  and  C_20
REMARK                            x       y       z     vdW  Elec       q    Type
REMARK                         _______ _______ _______ _____ _____    ______ ____
ROOT
ATOM      2  O   UNL     1      14.090   7.619  18.385  0.00  0.00    -0.366 OA
ATOM     11  C   UNL     1      14.640   7.247  19.660  0.00  0.00    +0.158 C 
ATOM     12  C   UNL     1      13.576   7.603  20.686  0.00  0.00    +0.175 C 
ATOM     13  C   UNL     1      12.304   7.296  19.923  0.00  0.00    +0.175 C 
ATOM     14  C   UNL     1      12.657   7.765  18.515  0.00  0.00    +0.165 C 
ENDROOT
BRANCH  12   3
ATOM      3  O   UNL     1      13.712   6.852  21.873  0.00  0.00    -0.387 OA
ATOM     25  H   UNL     1      14.603   7.019  22.224  0.00  0.00    +0.210 HD
ENDBRANCH  12   3
BRANCH  13   4
ATOM      4  O   UNL     1      12.081   5.887  19.877  0.00  0.00    -0.387 OA
ATOM     26  H   UNL     1      11.326   5.693  20.458  0.00  0.00    +0.210 HD
ENDBRANCH  13   4
BRANCH  11  16
ATOM     16  C   UNL     1      15.955   7.971  19.882  0.00  0.00    +0.130 C 
BRANCH  16  20
ATOM      6  O   UNL     1      17.000   5.835  19.760  0.00  0.00    -0.276 OA
ATOM      9  N   UNL     1      18.040   7.446  21.054  0.00  0.00    -0.296 N 
ATOM     15  C   UNL     1      19.114   6.587  21.558  0.00  0.00    +0.102 C 
ATOM     17  C   UNL     1      19.687   7.378  22.738  0.00  0.00    +0.026 C 
ATOM     18  C   UNL     1      18.126   8.790  21.622  0.00  0.00    +0.108 C 
ATOM     19  C   UNL     1      19.473   8.829  22.329  0.00  0.00    +0.021 C 
ATOM     20  C   UNL     1      17.038   6.978  20.219  0.00  0.00    +0.218 C 
BRANCH  15  22
ATOM     22  C   UNL     1      20.163   6.316  20.482  0.00  0.00    +0.181 C 
BRANCH  22   5
ATOM      5  O   UNL     1      21.309   5.764  21.102  0.00  0.00    -0.381 OA
ATOM     24  C   UNL     1      21.419   4.366  20.860  0.00  0.00    +0.194 C 
ENDBRANCH  22   5
ENDBRANCH  15  22
ENDBRANCH  16  20
ENDBRANCH  11  16
BRANCH  14  21
ATOM     21  C   UNL     1      12.314   9.228  18.271  0.00  0.00    +0.139 C 
BRANCH  21  10
ATOM     10  N   UNL     1      13.197   9.813  17.305  0.00  0.00    -0.192 NA
ATOM     27  H   UNL     1      14.182   9.847  17.598  0.00  0.00    +0.148 HD
BRANCH  10   1
ATOM      1  S   UNL     1      12.935   9.561  15.616  0.00  0.00    +0.027 S 
ATOM      7  O   UNL     1      13.578   8.325  15.218  0.00  0.00    -0.158 OA
ATOM      8  O   UNL     1      13.186  10.795  14.894  0.00  0.00    -0.158 OA
ATOM     23  C   UNL     1      11.177   9.292  15.610  0.00  0.00    +0.214 C 
ENDBRANCH  10   1
ENDBRANCH  21  10
ENDBRANCH  14  21
TORSDOF 9
ENDMDL
MODEL 5
REMARK VINA RESULT:      -6.1      1.329      2.022
REMARK  Name = 40777893
REMARK  11 active torsions:
REMARK  status: ('A' for Active; 'I' for Inactive)
REMARK    1  A    between atoms: S_1  and  N_10
REMARK    2  A    between atoms: S_1  and  C_23
REMARK    3  A    between atoms: O_3  and  C_12
REMARK    4  A    between atoms: O_4  and  C_13
REMARK    5  A    between atoms: O_5  and  C_22
REMARK    6  A    between atoms: O_5  and  C_24
REMARK    7  A    between atoms: N_10  and  C_21
REMARK    8  A    between atoms: C_11  and  C_16
REMARK    9  A    between atoms: C_14  and  C_21
REMARK   10  A    between atoms: C_15  and  C_22
REMARK   11  A    between atoms: C_16  and  C_20
REMARK                            x       y       z     vdW  Elec       q    Type
REMARK                         _______ _______ _______ _____ _____    ______ ____
ROOT
ATOM      2  O   UNL     1      11.372   8.865  20.353  0.00  0.00    -0.366 OA
ATOM     11  C   UNL     1      11.762   7.500  20.129  0.00  0.00    +0.158 C 
ATOM     12  C   UNL     1      11.929   6.888  21.510  0.00  0.00    +0.175 C 
ATOM     13  C   UNL     1      10.834   7.588  22.287  0.00  0.00    +0.175 C 
ATOM     14  C   UNL     1      10.887   8.999  21.709  0.00  0.00    +0.165 C 
ENDROOT
BRANCH  12   3
ATOM      3  O   UNL     1      11.791   5.484  21.488  0.00  0.00    -0.387 OA
ATOM     25  H   UNL     1      11.232   5.257  20.726  0.00  0.00    +0.210 HD
ENDBRANCH  12   3
BRANCH  13   4
ATOM      4  O   UNL     1       9.562   7.025  21.966  0.00  0.00    -0.387 OA
ATOM     26  H   UNL     1       9.498   6.170  22.424  0.00  0.00    +0.210 HD
ENDBRANCH  13   4
BRANCH  11  16
ATOM     16  C   UNL     1      13.031   7.461  19.296  0.00  0.00    +0.130 C 
BRANCH  16  20
ATOM      6  O   UNL     1      14.585   6.362  20.726  0.00  0.00    -0.276 OA
ATOM      9  N   UNL     1      14.895   8.627  20.371  0.00  0.00    -0.296 N 
ATOM     15  C   UNL     1      16.026   8.786  21.289  0.00  0.00    +0.102 C 
ATOM     17  C   UNL     1      16.127  10.302  21.481  0.00  0.00    +0.026 C 
ATOM     18  C   UNL     1      14.521   9.904  19.768  0.00  0.00    +0.108 C 
ATOM     19  C   UNL     1      15.640  10.860  20.151  0.00  0.00    +0.021 C 
ATOM     20  C   UNL     1      14.237   7.420  20.198  0.00  0.00    +0.218 C 
BRANCH  15  22
ATOM     22  C   UNL     1      17.306   8.192  20.705  0.00  0.00    +0.181 C 
BRANCH  22   5
ATOM      5  O   UNL     1      18.409   8.926  21.204  0.00  0.00    -0.381 OA
ATOM     24  C   UNL     1      19.498   8.075  21.545  0.00  0.00    +0.194 C 
ENDBRANCH  22   5
ENDBRANCH  15  22
ENDBRANCH  16  20
ENDBRANCH  11  16
BRANCH  14  21
ATOM     21  C   UNL     1      11.844   9.914  22.459  0.00  0.00    +0.139 C 
BRANCH  21  10
ATOM     10  N   UNL     1      11.373  10.180  23.787  0.00  0.00    -0.192 NA
ATOM     27  H   UNL     1      11.663   9.484  24.486  0.00  0.00    +0.148 HD
BRANCH  10   1
ATOM      1  S   UNL     1      11.257  11.805  24.364  0.00  0.00    +0.027 S 
ATOM      7  O   UNL     1      10.668  11.794  25.688  0.00  0.00    -0.158 OA
ATOM      8  O   UNL     1      10.719  12.657  23.319  0.00  0.00    -0.158 OA
ATOM     23  C   UNL     1      12.982  12.200  24.534  0.00  0.00    +0.214 C 
ENDBRANCH  10   1
ENDBRANCH  21  10
ENDBRANCH  14  21
TORSDOF 9
ENDMDL
MODEL 6
REMARK VINA RESULT:      -5.8      3.416      6.313
REMARK  Name = 40777893
REMARK  11 active torsions:
REMARK  status: ('A' for Active; 'I' for Inactive)
REMARK    1  A    between atoms: S_1  and  N_10
REMARK    2  A    between atoms: S_1  and  C_23
REMARK    3  A    between atoms: O_3  and  C_12
REMARK    4  A    between atoms: O_4  and  C_13
REMARK    5  A    between atoms: O_5  and  C_22
REMARK    6  A    between atoms: O_5  and  C_24
REMARK    7  A    between atoms: N_10  and  C_21
REMARK    8  A    between atoms: C_11  and  C_16
REMARK    9  A    between atoms: C_14  and  C_21
REMARK   10  A    between atoms: C_15  and  C_22
REMARK   11  A    between atoms: C_16  and  C_20
REMARK                            x       y       z     vdW  Elec       q    Type
REMARK                         _______ _______ _______ _____ _____    ______ ____
ROOT
ATOM      2  O   UNL     1      14.179   8.583  19.025  0.00  0.00    -0.366 OA
ATOM     11  C   UNL     1      13.271   8.051  20.005  0.00  0.00    +0.158 C 
ATOM     12  C   UNL     1      11.882   8.454  19.541  0.00  0.00    +0.175 C 
ATOM     13  C   UNL     1      12.026   8.362  18.036  0.00  0.00    +0.175 C 
ATOM     14  C   UNL     1      13.440   8.891  17.820  0.00  0.00    +0.165 C 
ENDROOT
BRANCH  12   3
ATOM      3  O   UNL     1      10.882   7.605  20.060  0.00  0.00    -0.387 OA
ATOM     25  H   UNL     1      11.292   6.739  20.229  0.00  0.00    +0.210 HD
ENDBRANCH  12   3
BRANCH  13   4
ATOM      4  O   UNL     1      11.995   6.998  17.618  0.00  0.00    -0.387 OA
ATOM     26  H   UNL     1      11.708   6.984  16.689  0.00  0.00    +0.210 HD
ENDBRANCH  13   4
BRANCH  11  16
ATOM     16  C   UNL     1      13.627   8.593  21.378  0.00  0.00    +0.130 C 
BRANCH  16  20
ATOM      6  O   UNL     1      11.585   8.395  22.587  0.00  0.00    -0.276 OA
ATOM      9  N   UNL     1      12.264  10.528  22.003  0.00  0.00    -0.296 N 
ATOM     15  C   UNL     1      11.082  11.225  22.516  0.00  0.00    +0.102 C 
ATOM     17  C   UNL     1      11.172  12.613  21.875  0.00  0.00    +0.026 C 
ATOM     18  C   UNL     1      13.196  11.461  21.374  0.00  0.00    +0.108 C 
ATOM     19  C   UNL     1      12.672  12.842  21.737  0.00  0.00    +0.021 C 
ATOM     20  C   UNL     1      12.395   9.150  22.046  0.00  0.00    +0.218 C 
BRANCH  15  22
ATOM     22  C   UNL     1      11.093  11.292  24.042  0.00  0.00    +0.181 C 
BRANCH  22   5
ATOM      5  O   UNL     1      10.151  12.265  24.455  0.00  0.00    -0.381 OA
ATOM     24  C   UNL     1      10.673  13.100  25.482  0.00  0.00    +0.194 C 
ENDBRANCH  22   5
ENDBRANCH  15  22
ENDBRANCH  16  20
ENDBRANCH  11  16
BRANCH  14  21
ATOM     21  C   UNL     1      13.488  10.398  17.616  0.00  0.00    +0.139 C 
BRANCH  21  10
ATOM     10  N   UNL     1      13.350  10.738  16.230  0.00  0.00    -0.192 NA
ATOM     27  H   UNL     1      12.540  11.335  16.019  0.00  0.00    +0.148 HD
BRANCH  10   1
ATOM      1  S   UNL     1      14.749  11.018  15.255  0.00  0.00    +0.027 S 
ATOM      7  O   UNL     1      15.043   9.819  14.497  0.00  0.00    -0.158 OA
ATOM      8  O   UNL     1      15.777  11.665  16.050  0.00  0.00    -0.158 OA
ATOM     23  C   UNL     1      14.106  12.235  14.129  0.00  0.00    +0.214 C 
ENDBRANCH  10   1
ENDBRANCH  21  10
ENDBRANCH  14  21
TORSDOF 9
ENDMDL
MODEL 7
REMARK VINA RESULT:      -5.7     25.597     28.120
REMARK  Name = 40777893
REMARK  11 active torsions:
REMARK  status: ('A' for Active; 'I' for Inactive)
REMARK    1  A    between atoms: S_1  and  N_10
REMARK    2  A    between atoms: S_1  and  C_23
REMARK    3  A    between atoms: O_3  and  C_12
REMARK    4  A    between atoms: O_4  and  C_13
REMARK    5  A    between atoms: O_5  and  C_22
REMARK    6  A    between atoms: O_5  and  C_24
REMARK    7  A    between atoms: N_10  and  C_21
REMARK    8  A    between atoms: C_11  and  C_16
REMARK    9  A    between atoms: C_14  and  C_21
REMARK   10  A    between atoms: C_15  and  C_22
REMARK   11  A    between atoms: C_16  and  C_20
REMARK                            x       y       z     vdW  Elec       q    Type
REMARK                         _______ _______ _______ _____ _____    ______ ____
ROOT
ATOM      2  O   UNL     1      -3.776 -10.466  13.967  0.00  0.00    -0.366 OA
ATOM     11  C   UNL     1      -3.618 -10.842  15.346  0.00  0.00    +0.158 C 
ATOM     12  C   UNL     1      -2.195 -11.361  15.470  0.00  0.00    +0.175 C 
ATOM     13  C   UNL     1      -1.457 -10.460  14.502  0.00  0.00    +0.175 C 
ATOM     14  C   UNL     1      -2.468 -10.317  13.368  0.00  0.00    +0.165 C 
ENDROOT
BRANCH  12   3
ATOM      3  O   UNL     1      -1.712 -11.275  16.793  0.00  0.00    -0.387 OA
ATOM     25  H   UNL     1      -1.291 -10.405  16.895  0.00  0.00    +0.210 HD
ENDBRANCH  12   3
BRANCH  13   4
ATOM      4  O   UNL     1      -1.257  -9.171  15.080  0.00  0.00    -0.387 OA
ATOM     26  H   UNL     1      -0.433  -8.810  14.709  0.00  0.00    +0.210 HD
ENDBRANCH  13   4
BRANCH  11  16
ATOM     16  C   UNL     1      -4.669 -11.873  15.719  0.00  0.00    +0.130 C 
BRANCH  16  20
ATOM      6  O   UNL     1      -6.745 -10.711  15.647  0.00  0.00    -0.276 OA
ATOM      9  N   UNL     1      -5.856 -11.157  17.736  0.00  0.00    -0.296 N 
ATOM     15  C   UNL     1      -6.881 -10.450  18.508  0.00  0.00    +0.102 C 
ATOM     17  C   UNL     1      -6.255 -10.307  19.898  0.00  0.00    +0.026 C 
ATOM     18  C   UNL     1      -4.825 -11.710  18.610  0.00  0.00    +0.108 C 
ATOM     19  C   UNL     1      -5.375 -11.544  20.018  0.00  0.00    +0.021 C 
ATOM     20  C   UNL     1      -5.855 -11.190  16.351  0.00  0.00    +0.218 C 
BRANCH  15  22
ATOM     22  C   UNL     1      -8.192 -11.234  18.544  0.00  0.00    +0.181 C 
BRANCH  22   5
ATOM      5  O   UNL     1      -8.696 -11.205  19.866  0.00  0.00    -0.381 OA
ATOM     24  C   UNL     1     -10.043 -10.748  19.907  0.00  0.00    +0.194 C 
ENDBRANCH  22   5
ENDBRANCH  15  22
ENDBRANCH  16  20
ENDBRANCH  11  16
BRANCH  14  21
ATOM     21  C   UNL     1      -2.320 -11.392  12.300  0.00  0.00    +0.139 C 
BRANCH  21  10
ATOM     10  N   UNL     1      -3.421 -11.366  11.383  0.00  0.00    -0.192 NA
ATOM     27  H   UNL     1      -4.235 -11.919  11.683  0.00  0.00    +0.148 HD
BRANCH  10   1
ATOM      1  S   UNL     1      -3.790  -9.927  10.499  0.00  0.00    +0.027 S 
ATOM      7  O   UNL     1      -2.561  -9.204  10.242  0.00  0.00    -0.158 OA
ATOM      8  O   UNL     1      -4.930  -9.262  11.102  0.00  0.00    -0.158 OA
ATOM     23  C   UNL     1      -4.340 -10.637   8.964  0.00  0.00    +0.214 C 
ENDBRANCH  10   1
ENDBRANCH  21  10
ENDBRANCH  14  21
TORSDOF 9
ENDMDL
MODEL 8
REMARK VINA RESULT:      -5.7      2.579      3.360
REMARK  Name = 40777893
REMARK  11 active torsions:
REMARK  status: ('A' for Active; 'I' for Inactive)
REMARK    1  A    between atoms: S_1  and  N_10
REMARK    2  A    between atoms: S_1  and  C_23
REMARK    3  A    between atoms: O_3  and  C_12
REMARK    4  A    between atoms: O_4  and  C_13
REMARK    5  A    between atoms: O_5  and  C_22
REMARK    6  A    between atoms: O_5  and  C_24
REMARK    7  A    between atoms: N_10  and  C_21
REMARK    8  A    between atoms: C_11  and  C_16
REMARK    9  A    between atoms: C_14  and  C_21
REMARK   10  A    between atoms: C_15  and  C_22
REMARK   11  A    between atoms: C_16  and  C_20
REMARK                            x       y       z     vdW  Elec       q    Type
REMARK                         _______ _______ _______ _____ _____    ______ ____
ROOT
ATOM      2  O   UNL     1      11.686   9.735  21.046  0.00  0.00    -0.366 OA
ATOM     11  C   UNL     1      12.515   8.629  20.649  0.00  0.00    +0.158 C 
ATOM     12  C   UNL     1      12.384   7.598  21.758  0.00  0.00    +0.175 C 
ATOM     13  C   UNL     1      10.937   7.775  22.167  0.00  0.00    +0.175 C 
ATOM     14  C   UNL     1      10.759   9.286  22.061  0.00  0.00    +0.165 C 
ENDROOT
BRANCH  12   3
ATOM      3  O   UNL     1      12.683   6.295  21.308  0.00  0.00    -0.387 OA
ATOM     25  H   UNL     1      12.358   6.218  20.395  0.00  0.00    +0.210 HD
ENDBRANCH  12   3
BRANCH  13   4
ATOM      4  O   UNL     1      10.073   7.159  21.212  0.00  0.00    -0.387 OA
ATOM     26  H   UNL     1       9.334   7.770  21.051  0.00  0.00    +0.210 HD
ENDBRANCH  13   4
BRANCH  11  16
ATOM     16  C   UNL     1      13.940   9.108  20.438  0.00  0.00    +0.130 C 
BRANCH  16  20
ATOM      6  O   UNL     1      13.998  11.395  19.778  0.00  0.00    -0.276 OA
ATOM      9  N   UNL     1      13.947   9.811  18.093  0.00  0.00    -0.296 N 
ATOM     15  C   UNL     1      13.868  10.757  16.977  0.00  0.00    +0.102 C 
ATOM     17  C   UNL     1      13.438   9.887  15.793  0.00  0.00    +0.026 C 
ATOM     18  C   UNL     1      13.905   8.429  17.618  0.00  0.00    +0.108 C 
ATOM     19  C   UNL     1      14.055   8.530  16.108  0.00  0.00    +0.021 C 
ATOM     20  C   UNL     1      13.963  10.217  19.417  0.00  0.00    +0.218 C 
BRANCH  15  22
ATOM     22  C   UNL     1      15.211  11.442  16.731  0.00  0.00    +0.181 C 
BRANCH  22   5
ATOM      5  O   UNL     1      15.249  11.885  15.388  0.00  0.00    -0.381 OA
ATOM     24  C   UNL     1      16.505  11.609  14.777  0.00  0.00    +0.194 C 
ENDBRANCH  22   5
ENDBRANCH  15  22
ENDBRANCH  16  20
ENDBRANCH  11  16
BRANCH  14  21
ATOM     21  C   UNL     1      11.093  10.017  23.354  0.00  0.00    +0.139 C 
BRANCH  21  10
ATOM     10  N   UNL     1      10.270  11.179  23.519  0.00  0.00    -0.192 NA
ATOM     27  H   UNL     1       9.272  10.974  23.662  0.00  0.00    +0.148 HD
BRANCH  10   1
ATOM      1  S   UNL     1      10.869  12.563  24.363  0.00  0.00    +0.027 S 
ATOM      7  O   UNL     1      11.357  12.148  25.663  0.00  0.00    -0.158 OA
ATOM      8  O   UNL     1       9.925  13.657  24.239  0.00  0.00    -0.158 OA
ATOM     23  C   UNL     1      12.277  12.959  23.350  0.00  0.00    +0.214 C 
ENDBRANCH  10   1
ENDBRANCH  21  10
ENDBRANCH  14  21
TORSDOF 9
ENDMDL
MODEL 9
REMARK VINA RESULT:      -5.7      2.558      4.902
REMARK  Name = 40777893
REMARK  11 active torsions:
REMARK  status: ('A' for Active; 'I' for Inactive)
REMARK    1  A    between atoms: S_1  and  N_10
REMARK    2  A    between atoms: S_1  and  C_23
REMARK    3  A    between atoms: O_3  and  C_12
REMARK    4  A    between atoms: O_4  and  C_13
REMARK    5  A    between atoms: O_5  and  C_22
REMARK    6  A    between atoms: O_5  and  C_24
REMARK    7  A    between atoms: N_10  and  C_21
REMARK    8  A    between atoms: C_11  and  C_16
REMARK    9  A    between atoms: C_14  and  C_21
REMARK   10  A    between atoms: C_15  and  C_22
REMARK   11  A    between atoms: C_16  and  C_20
REMARK                            x       y       z     vdW  Elec       q    Type
REMARK                         _______ _______ _______ _____ _____    ______ ____
ROOT
ATOM      2  O   UNL     1      11.235  10.975  21.569  0.00  0.00    -0.366 OA
ATOM     11  C   UNL     1      11.208  10.072  22.688  0.00  0.00    +0.158 C 
ATOM     12  C   UNL     1      11.743  10.865  23.869  0.00  0.00    +0.175 C 
ATOM     13  C   UNL     1      11.197  12.247  23.579  0.00  0.00    +0.175 C 
ATOM     14  C   UNL     1      11.333  12.331  22.062  0.00  0.00    +0.165 C 
ENDROOT
BRANCH  12   3
ATOM      3  O   UNL     1      11.306  10.338  25.103  0.00  0.00    -0.387 OA
ATOM     25  H   UNL     1      11.868  10.720  25.798  0.00  0.00    +0.210 HD
ENDBRANCH  12   3
BRANCH  13   4
ATOM      4  O   UNL     1       9.808  12.309  23.902  0.00  0.00    -0.387 OA
ATOM     26  H   UNL     1       9.732  12.703  24.788  0.00  0.00    +0.210 HD
ENDBRANCH  13   4
BRANCH  11  16
ATOM     16  C   UNL     1      12.032   8.837  22.369  0.00  0.00    +0.130 C 
BRANCH  16  20
ATOM      6  O   UNL     1      10.523   7.955  20.753  0.00  0.00    -0.276 OA
ATOM      9  N   UNL     1      12.710   8.297  20.080  0.00  0.00    -0.296 N 
ATOM     15  C   UNL     1      12.560   7.736  18.735  0.00  0.00    +0.102 C 
ATOM     17  C   UNL     1      14.002   7.523  18.267  0.00  0.00    +0.026 C 
ATOM     18  C   UNL     1      14.087   8.719  20.326  0.00  0.00    +0.108 C 
ATOM     19  C   UNL     1      14.769   8.637  18.969  0.00  0.00    +0.021 C 
ATOM     20  C   UNL     1      11.674   8.320  20.999  0.00  0.00    +0.218 C 
BRANCH  15  22
ATOM     22  C   UNL     1      11.790   8.684  17.817  0.00  0.00    +0.181 C 
BRANCH  22   5
ATOM      5  O   UNL     1      12.238   8.485  16.489  0.00  0.00    -0.381 OA
ATOM     24  C   UNL     1      11.550   9.326  15.570  0.00  0.00    +0.194 C 
ENDBRANCH  22   5
ENDBRANCH  15  22
ENDBRANCH  16  20
ENDBRANCH  11  16
BRANCH  14  21
ATOM     21  C   UNL     1      12.675  12.894  21.615  0.00  0.00    +0.139 C 
BRANCH  21  10
ATOM     10  N   UNL     1      13.301  12.036  20.652  0.00  0.00    -0.192 NA
ATOM     27  H   UNL     1      12.903  11.089  20.606  0.00  0.00    +0.148 HD
BRANCH  10   1
ATOM      1  S   UNL     1      13.869  12.674  19.151  0.00  0.00    +0.027 S 
ATOM      7  O   UNL     1      13.474  11.782  18.079  0.00  0.00    -0.158 OA
ATOM      8  O   UNL     1      15.250  13.099  19.292  0.00  0.00    -0.158 OA
ATOM     23  C   UNL     1      12.871  14.141  19.038  0.00  0.00    +0.214 C 
ENDBRANCH  10   1
ENDBRANCH  21  10
ENDBRANCH  14  21
TORSDOF 9
ENDMDL
MODEL 10
REMARK VINA RESULT:      -5.6      3.289      5.099
REMARK  Name = 40777893
REMARK  11 active torsions:
REMARK  status: ('A' for Active; 'I' for Inactive)
REMARK    1  A    between atoms: S_1  and  N_10
REMARK    2  A    between atoms: S_1  and  C_23
REMARK    3  A    between atoms: O_3  and  C_12
REMARK    4  A    between atoms: O_4  and  C_13
REMARK    5  A    between atoms: O_5  and  C_22
REMARK    6  A    between atoms: O_5  and  C_24
REMARK    7  A    between atoms: N_10  and  C_21
REMARK    8  A    between atoms: C_11  and  C_16
REMARK    9  A    between atoms: C_14  and  C_21
REMARK   10  A    between atoms: C_15  and  C_22
REMARK   11  A    between atoms: C_16  and  C_20
REMARK                            x       y       z     vdW  Elec       q    Type
REMARK                         _______ _______ _______ _____ _____    ______ ____
ROOT
ATOM      2  O   UNL     1      14.249   6.989  21.572  0.00  0.00    -0.366 OA
ATOM     11  C   UNL     1      15.209   8.049  21.422  0.00  0.00    +0.158 C 
ATOM     12  C   UNL     1      14.459   9.191  20.757  0.00  0.00    +0.175 C 
ATOM     13  C   UNL     1      13.084   9.054  21.377  0.00  0.00    +0.175 C 
ATOM     14  C   UNL     1      12.918   7.539  21.448  0.00  0.00    +0.165 C 
ENDROOT
BRANCH  12   3
ATOM      3  O   UNL     1      15.064  10.441  21.008  0.00  0.00    -0.387 OA
ATOM     25  H   UNL     1      15.593  10.672  20.226  0.00  0.00    +0.210 HD
ENDBRANCH  12   3
BRANCH  13   4
ATOM      4  O   UNL     1      13.089   9.561  22.710  0.00  0.00    -0.387 OA
ATOM     26  H   UNL     1      13.462   8.870  23.284  0.00  0.00    +0.210 HD
ENDBRANCH  13   4
BRANCH  11  16
ATOM     16  C   UNL     1      16.395   7.556  20.613  0.00  0.00    +0.130 C 
BRANCH  16  20
ATOM      6  O   UNL     1      17.722   8.992  21.971  0.00  0.00    -0.276 OA
ATOM      9  N   UNL     1      18.766   7.140  21.059  0.00  0.00    -0.296 N 
ATOM     15  C   UNL     1      20.111   7.448  21.551  0.00  0.00    +0.102 C 
ATOM     17  C   UNL     1      21.018   6.533  20.723  0.00  0.00    +0.026 C 
ATOM     18  C   UNL     1      18.765   5.924  20.249  0.00  0.00    +0.108 C 
ATOM     19  C   UNL     1      20.143   5.315  20.455  0.00  0.00    +0.021 C 
ATOM     20  C   UNL     1      17.681   7.973  21.280  0.00  0.00    +0.218 C 
BRANCH  15  22
ATOM     22  C   UNL     1      20.232   7.178  23.049  0.00  0.00    +0.181 C 
BRANCH  22   5
ATOM      5  O   UNL     1      20.520   8.400  23.703  0.00  0.00    -0.381 OA
ATOM     24  C   UNL     1      20.572   8.241  25.117  0.00  0.00    +0.194 C 
ENDBRANCH  22   5
ENDBRANCH  15  22
ENDBRANCH  16  20
ENDBRANCH  11  16
BRANCH  14  21
ATOM     21  C   UNL     1      12.285   6.950  20.195  0.00  0.00    +0.139 C 
BRANCH  21  10
ATOM     10  N   UNL     1      11.553   7.945  19.467  0.00  0.00    -0.192 NA
ATOM     27  H   UNL     1      11.199   8.718  20.046  0.00  0.00    +0.148 HD
BRANCH  10   1
ATOM      1  S   UNL     1      12.024   8.378  17.862  0.00  0.00    +0.027 S 
ATOM      7  O   UNL     1      12.393   9.779  17.840  0.00  0.00    -0.158 OA
ATOM      8  O   UNL     1      11.064   7.848  16.912  0.00  0.00    -0.158 OA
ATOM     23  C   UNL     1      13.512   7.416  17.704  0.00  0.00    +0.214 C 
ENDBRANCH  10   1
ENDBRANCH  21  10
ENDBRANCH  14  21
TORSDOF 9
ENDMDL
