REMARK  Name = 26743954
REMARK  5 active torsions:
REMARK  status: ('A' for Active; 'I' for Inactive)
REMARK    1  A    between atoms: O_1  and  C_13
REMARK    2  A    between atoms: N_4  and  C_9
REMARK    3  A    between atoms: C_10  and  C_18
REMARK    4  A    between atoms: C_19  and  C_21
REMARK    5  A    between atoms: C_20  and  C_22
REMARK                            x       y       z     vdW  Elec       q    Type
REMARK                         _______ _______ _______ _____ _____    ______ ____
ROOT
ATOM      4  N   UNL     1      -1.611  -1.603  -0.317  0.00  0.00    -0.286 NA
ATOM     10  C   UNL     1      -0.701  -2.249   0.652  0.00  0.00    +0.149 C 
ATOM     11  C   UNL     1      -2.470  -2.661  -0.846  0.00  0.00    +0.116 C 
ATOM     12  C   UNL     1      -0.573  -3.704   0.162  0.00  0.00    +0.061 C 
ATOM     13  C   UNL     1      -1.480  -3.790  -1.059  0.00  0.00    +0.130 C 
ENDROOT
BRANCH   4   9
ATOM      3  O   UNL     1      -3.906   4.066  -0.944  0.00  0.00    -0.276 OA
ATOM      5  N   UNL     1      -3.101   2.298   0.330  0.00  0.00    -0.302 N 
ATOM      9  C   UNL     1      -2.382  -0.506   0.261  0.00  0.00    +0.060 C 
ATOM     14  C   UNL     1      -3.290   0.118  -0.806  0.00  0.00    +0.038 C 
ATOM     15  C   UNL     1      -1.436   0.552   0.845  0.00  0.00    +0.038 C 
ATOM     16  C   UNL     1      -4.035   1.329  -0.247  0.00  0.00    +0.109 C 
ATOM     17  C   UNL     1      -2.218   1.756   1.371  0.00  0.00    +0.109 C 
ATOM     19  C   UNL     1      -3.129   3.627  -0.092  0.00  0.00    +0.212 C 
ATOM     21  C   UNL     1      -2.134   4.561   0.549  0.00  0.00    +0.109 C 
ENDBRANCH   4   9
BRANCH  10  18
ATOM      2  O   UNL     1       1.290  -1.659   1.940  0.00  0.00    -0.336 OA
ATOM      6  N   UNL     1       1.268  -0.830  -0.140  0.00  0.00    -0.190 NA
ATOM      7  N   UNL     1       2.481  -0.936   1.796  0.00  0.00    -0.056 NA
ATOM     18  C   UNL     1       0.636  -1.546   0.755  0.00  0.00    +0.245 A 
ATOM     20  C   UNL     1       2.395  -0.478   0.544  0.00  0.00    +0.204 A 
BRANCH  20  22
ATOM      8  N   UNL     1       5.554   1.445   0.152  0.00  0.00    -0.263 NA
ATOM     22  C   UNL     1       3.417   0.333  -0.053  0.00  0.00    +0.041 A 
ATOM     23  C   UNL     1       3.295   0.792  -1.360  0.00  0.00    +0.014 A 
ATOM     24  C   UNL     1       4.555   0.684   0.654  0.00  0.00    +0.122 A 
ATOM     25  C   UNL     1       4.301   1.577  -1.911  0.00  0.00    +0.020 A 
ATOM     26  C   UNL     1       5.400   1.873  -1.121  0.00  0.00    +0.111 A 
ENDBRANCH  20  22
ENDBRANCH  10  18
BRANCH  13   1
ATOM      1  O   UNL     1      -2.124  -5.048  -1.117  0.00  0.00    -0.390 OA
ATOM     27  H   UNL     1      -1.431  -5.728  -1.177  0.00  0.00    +0.210 HD
ENDBRANCH  13   1
TORSDOF 4
