REMARK  Name = 11913048
REMARK  7 active torsions:
REMARK  status: ('A' for Active; 'I' for Inactive)
REMARK    1  A    between atoms: O_3  and  C_14
REMARK    2  A    between atoms: O_3  and  C_18
REMARK    3  A    between atoms: N_7  and  C_13
REMARK    4  A    between atoms: N_10  and  C_21
REMARK    5  A    between atoms: C_19  and  C_23
REMARK    6  A    between atoms: C_29  and  C_32
REMARK    7  A    between atoms: C_32  and  C_33
REMARK                            x       y       z     vdW  Elec       q    Type
REMARK                         _______ _______ _______ _____ _____    ______ ____
ROOT
ATOM      1  O   UNL     1       0.103  -0.475  -1.578  0.00  0.00    -0.368 OA
ATOM      2  O   UNL     1      -1.840  -2.293  -0.050  0.00  0.00    -0.368 OA
ATOM     11  C   UNL     1      -1.698  -0.858  -0.083  0.00  0.00    +0.173 C 
ATOM     12  C   UNL     1      -0.213  -0.566  -0.179  0.00  0.00    +0.192 C 
ATOM     13  C   UNL     1      -2.262  -0.311  -1.373  0.00  0.00    +0.130 C 
ATOM     14  C   UNL     1       0.403  -1.790   0.455  0.00  0.00    +0.235 C 
ATOM     15  C   UNL     1      -1.111  -0.517  -2.343  0.00  0.00    +0.185 C 
ATOM     16  C   UNL     1      -0.535  -2.888   0.006  0.00  0.00    +0.207 C 
ENDROOT
BRANCH  13   7
ATOM      7  N   UNL     1      -2.556   1.099  -1.235  0.00  0.00    -0.306 N 
ATOM      8  N   UNL     1      -4.678   0.681  -0.325  0.00  0.00    -0.211 NA
ATOM      9  N   UNL     1      -3.890   2.936  -0.643  0.00  0.00    -0.223 NA
ATOM     17  C   UNL     1      -3.744   1.586  -0.719  0.00  0.00    +0.216 A 
ATOM     19  C   UNL     1      -5.823   1.191   0.174  0.00  0.00    +0.111 A 
ATOM     20  C   UNL     1      -5.059   3.377  -0.134  0.00  0.00    +0.116 A 
ATOM     22  C   UNL     1      -6.072   2.543   0.295  0.00  0.00    +0.051 A 
ATOM     34  H   UNL     1      -1.847   1.782  -1.477  0.00  0.00    +0.149 HD
BRANCH  19  23
ATOM      5  O   UNL     1      -6.417  -1.083   0.407  0.00  0.00    -0.461 OA
ATOM     23  C   UNL     1      -6.793   0.209   0.582  0.00  0.00    +0.153 A 
ATOM     26  C   UNL     1      -8.052   0.281   1.125  0.00  0.00    +0.051 A 
ATOM     30  C   UNL     1      -8.481  -1.056   1.296  0.00  0.00    +0.042 A 
ATOM     31  C   UNL     1      -7.452  -1.848   0.844  0.00  0.00    +0.196 A 
ENDBRANCH  19  23
ENDBRANCH  13   7
BRANCH  14   3
ATOM      3  O   UNL     1       1.731  -2.026   0.048  0.00  0.00    -0.442 OA
BRANCH   3  18
ATOM      4  O   UNL     1       2.376  -0.042   0.985  0.00  0.00    -0.226 OA
ATOM     10  N   UNL     1       3.906  -1.447  -0.095  0.00  0.00    -0.251 N 
ATOM     18  C   UNL     1       2.664  -1.063   0.372  0.00  0.00    +0.405 C 
ATOM     35  H   UNL     1       3.946  -2.338  -0.585  0.00  0.00    +0.158 HD
BRANCH  10  21
ATOM     21  C   UNL     1       5.133  -0.754   0.022  0.00  0.00    +0.036 A 
ATOM     24  C   UNL     1       5.163   0.468   0.675  0.00  0.00    +0.024 A 
ATOM     25  C   UNL     1       6.281  -1.310  -0.519  0.00  0.00    +0.024 A 
ATOM     27  C   UNL     1       6.373   1.151   0.790  0.00  0.00    +0.013 A 
ATOM     28  C   UNL     1       7.491  -0.627  -0.404  0.00  0.00    +0.013 A 
ATOM     29  C   UNL     1       7.537   0.604   0.250  0.00  0.00    +0.017 A 
BRANCH  29  32
ATOM      6  O   UNL     1       9.857   0.852  -0.101  0.00  0.00    -0.292 OA
ATOM     32  C   UNL     1       8.800   1.316   0.371  0.00  0.00    +0.160 C 
ATOM     33  C   UNL     1       8.858   2.662   1.086  0.00  0.00    +0.091 C 
ENDBRANCH  29  32
ENDBRANCH  10  21
ENDBRANCH   3  18
ENDBRANCH  14   3
TORSDOF 6
