MODEL 1
REMARK VINA RESULT:      -7.1      0.000      0.000
REMARK  Name = 26761815
REMARK  7 active torsions:
REMARK  status: ('A' for Active; 'I' for Inactive)
REMARK    1  A    between atoms: O_1  and  C_14
REMARK    2  A    between atoms: O_1  and  C_22
REMARK    3  A    between atoms: O_3  and  C_23
REMARK    4  A    between atoms: N_5  and  C_13
REMARK    5  A    between atoms: C_8  and  C_14
REMARK    6  A    between atoms: C_13  and  C_15
REMARK    7  A    between atoms: C_21  and  C_23
REMARK                            x       y       z     vdW  Elec       q    Type
REMARK                         _______ _______ _______ _____ _____    ______ ____
ROOT
ATOM      5  N   UNL     1      14.250   7.505  19.250  0.00  0.00    -0.280 NA
ATOM      6  N   UNL     1      13.491  10.949  20.555  0.00  0.00    -0.347 N 
ATOM      7  N   UNL     1      11.453  10.132  20.981  0.00  0.00    -0.240 NA
ATOM      8  C   UNL     1      12.822   7.185  18.984  0.00  0.00    +0.173 C 
ATOM      9  C   UNL     1      11.779   7.844  19.931  0.00  0.00    +0.087 C 
ATOM     10  C   UNL     1      14.535   8.964  19.322  0.00  0.00    +0.140 C 
ATOM     11  C   UNL     1      13.466   9.687  20.045  0.00  0.00    +0.053 A 
ATOM     12  C   UNL     1      12.208   9.210  20.313  0.00  0.00    +0.065 A 
ATOM     16  C   UNL     1      12.255  11.171  21.110  0.00  0.00    +0.197 A 
ATOM     24  H   UNL     1      14.264  11.601  20.532  0.00  0.00    +0.167 HD
ENDROOT
BRANCH   8  14
ATOM      2  O   UNL     1      13.420   7.689  16.702  0.00  0.00    -0.249 OA
ATOM     14  C   UNL     1      12.550   7.558  17.553  0.00  0.00    +0.325 C 
BRANCH  14   1
ATOM      1  O   UNL     1      11.210   7.720  17.370  0.00  0.00    -0.467 OA
ATOM     22  C   UNL     1      10.833   8.783  16.488  0.00  0.00    +0.280 C 
ENDBRANCH  14   1
ENDBRANCH   8  14
BRANCH   5  13
ATOM     13  C   UNL     1      14.723   6.815  20.454  0.00  0.00    +0.120 C 
BRANCH  13  15
ATOM     15  C   UNL     1      16.209   6.579  20.418  0.00  0.00    -0.033 A 
ATOM     17  C   UNL     1      17.009   7.009  21.477  0.00  0.00    +0.006 A 
ATOM     18  C   UNL     1      16.786   5.928  19.328  0.00  0.00    +0.006 A 
ATOM     19  C   UNL     1      18.386   6.789  21.445  0.00  0.00    +0.015 A 
ATOM     20  C   UNL     1      18.164   5.709  19.295  0.00  0.00    +0.015 A 
ATOM     21  C   UNL     1      18.963   6.139  20.354  0.00  0.00    +0.059 A 
BRANCH  21  23
ATOM      4  O   UNL     1      21.265   6.748  20.595  0.00  0.00    -0.245 OA
ATOM     23  C   UNL     1      20.400   5.910  20.320  0.00  0.00    +0.337 C 
BRANCH  23   3
ATOM      3  O   UNL     1      20.715   4.640  19.944  0.00  0.00    -0.477 OA
ATOM     25  H   UNL     1      20.176   3.974  20.422  0.00  0.00    +0.295 HD
ENDBRANCH  23   3
ENDBRANCH  21  23
ENDBRANCH  13  15
ENDBRANCH   5  13
TORSDOF 6
ENDMDL
MODEL 2
REMARK VINA RESULT:      -7.0      2.138      3.317
REMARK  Name = 26761815
REMARK  7 active torsions:
REMARK  status: ('A' for Active; 'I' for Inactive)
REMARK    1  A    between atoms: O_1  and  C_14
REMARK    2  A    between atoms: O_1  and  C_22
REMARK    3  A    between atoms: O_3  and  C_23
REMARK    4  A    between atoms: N_5  and  C_13
REMARK    5  A    between atoms: C_8  and  C_14
REMARK    6  A    between atoms: C_13  and  C_15
REMARK    7  A    between atoms: C_21  and  C_23
REMARK                            x       y       z     vdW  Elec       q    Type
REMARK                         _______ _______ _______ _____ _____    ______ ____
ROOT
ATOM      5  N   UNL     1      13.411   8.285  19.567  0.00  0.00    -0.280 NA
ATOM      6  N   UNL     1      10.409   8.511  17.314  0.00  0.00    -0.347 N 
ATOM      7  N   UNL     1      11.883   9.047  15.719  0.00  0.00    -0.240 NA
ATOM      8  C   UNL     1      14.239   9.181  18.716  0.00  0.00    +0.173 C 
ATOM      9  C   UNL     1      13.952   9.139  17.188  0.00  0.00    +0.087 C 
ATOM     10  C   UNL     1      11.946   8.445  19.359  0.00  0.00    +0.140 C 
ATOM     11  C   UNL     1      11.620   8.616  17.927  0.00  0.00    +0.053 A 
ATOM     12  C   UNL     1      12.505   8.949  16.932  0.00  0.00    +0.065 A 
ATOM     16  C   UNL     1      10.619   8.778  15.983  0.00  0.00    +0.197 A 
ATOM     24  H   UNL     1       9.524   8.283  17.748  0.00  0.00    +0.167 HD
ENDROOT
BRANCH   8  14
ATOM      2  O   UNL     1      13.664  11.520  18.586  0.00  0.00    -0.249 OA
ATOM     14  C   UNL     1      14.068  10.575  19.251  0.00  0.00    +0.325 C 
BRANCH  14   1
ATOM      1  O   UNL     1      14.428  10.606  20.565  0.00  0.00    -0.467 OA
ATOM     22  C   UNL     1      13.624  11.443  21.404  0.00  0.00    +0.280 C 
ENDBRANCH  14   1
ENDBRANCH   8  14
BRANCH   5  13
ATOM     13  C   UNL     1      13.817   6.887  19.403  0.00  0.00    +0.120 C 
BRANCH  13  15
ATOM     15  C   UNL     1      15.268   6.680  19.743  0.00  0.00    -0.033 A 
ATOM     17  C   UNL     1      15.732   6.969  21.027  0.00  0.00    +0.006 A 
ATOM     18  C   UNL     1      16.150   6.198  18.776  0.00  0.00    +0.006 A 
ATOM     19  C   UNL     1      17.077   6.777  21.343  0.00  0.00    +0.015 A 
ATOM     20  C   UNL     1      17.496   6.006  19.091  0.00  0.00    +0.015 A 
ATOM     21  C   UNL     1      17.958   6.295  20.375  0.00  0.00    +0.059 A 
BRANCH  21  23
ATOM      4  O   UNL     1      19.989   6.712  21.570  0.00  0.00    -0.245 OA
ATOM     23  C   UNL     1      19.362   6.095  20.703  0.00  0.00    +0.337 C 
BRANCH  23   3
ATOM      3  O   UNL     1      19.942   5.128  19.940  0.00  0.00    -0.477 OA
ATOM     25  H   UNL     1      20.224   4.358  20.480  0.00  0.00    +0.295 HD
ENDBRANCH  23   3
ENDBRANCH  21  23
ENDBRANCH  13  15
ENDBRANCH   5  13
TORSDOF 6
ENDMDL
MODEL 3
REMARK VINA RESULT:      -6.6      2.664      3.648
REMARK  Name = 26761815
REMARK  7 active torsions:
REMARK  status: ('A' for Active; 'I' for Inactive)
REMARK    1  A    between atoms: O_1  and  C_14
REMARK    2  A    between atoms: O_1  and  C_22
REMARK    3  A    between atoms: O_3  and  C_23
REMARK    4  A    between atoms: N_5  and  C_13
REMARK    5  A    between atoms: C_8  and  C_14
REMARK    6  A    between atoms: C_13  and  C_15
REMARK    7  A    between atoms: C_21  and  C_23
REMARK                            x       y       z     vdW  Elec       q    Type
REMARK                         _______ _______ _______ _____ _____    ______ ____
ROOT
ATOM      5  N   UNL     1      15.058   8.925  21.392  0.00  0.00    -0.280 NA
ATOM      6  N   UNL     1      12.483   6.195  21.639  0.00  0.00    -0.347 N 
ATOM      7  N   UNL     1      11.159   7.603  20.513  0.00  0.00    -0.240 NA
ATOM      8  C   UNL     1      14.044   9.998  21.210  0.00  0.00    +0.173 C 
ATOM      9  C   UNL     1      12.735   9.592  20.475  0.00  0.00    +0.087 C 
ATOM     10  C   UNL     1      14.520   7.694  22.033  0.00  0.00    +0.140 C 
ATOM     11  C   UNL     1      13.174   7.362  21.519  0.00  0.00    +0.053 A 
ATOM     12  C   UNL     1      12.341   8.209  20.831  0.00  0.00    +0.065 A 
ATOM     16  C   UNL     1      11.275   6.389  21.016  0.00  0.00    +0.197 A 
ATOM     24  H   UNL     1      12.793   5.348  22.097  0.00  0.00    +0.167 HD
ENDROOT
BRANCH   8  14
ATOM      2  O   UNL     1      14.589  10.793  23.421  0.00  0.00    -0.249 OA
ATOM     14  C   UNL     1      13.739  10.547  22.576  0.00  0.00    +0.325 C 
BRANCH  14   1
ATOM      1  O   UNL     1      12.394  10.720  22.708  0.00  0.00    -0.467 OA
ATOM     22  C   UNL     1      11.992  11.754  23.614  0.00  0.00    +0.280 C 
ENDBRANCH  14   1
ENDBRANCH   8  14
BRANCH   5  13
ATOM     13  C   UNL     1      15.720   8.612  20.123  0.00  0.00    +0.120 C 
BRANCH  13  15
ATOM     15  C   UNL     1      16.974   7.806  20.327  0.00  0.00    -0.033 A 
ATOM     17  C   UNL     1      17.972   8.274  21.184  0.00  0.00    +0.006 A 
ATOM     18  C   UNL     1      17.140   6.591  19.663  0.00  0.00    +0.006 A 
ATOM     19  C   UNL     1      19.135   7.527  21.374  0.00  0.00    +0.015 A 
ATOM     20  C   UNL     1      18.303   5.844  19.852  0.00  0.00    +0.015 A 
ATOM     21  C   UNL     1      19.300   6.313  20.708  0.00  0.00    +0.059 A 
BRANCH  21  23
ATOM      4  O   UNL     1      21.188   5.510  21.940  0.00  0.00    -0.245 OA
ATOM     23  C   UNL     1      20.513   5.533  20.906  0.00  0.00    +0.337 C 
BRANCH  23   3
ATOM      3  O   UNL     1      20.847   4.804  19.806  0.00  0.00    -0.477 OA
ATOM     25  H   UNL     1      21.803   4.880  19.595  0.00  0.00    +0.295 HD
ENDBRANCH  23   3
ENDBRANCH  21  23
ENDBRANCH  13  15
ENDBRANCH   5  13
TORSDOF 6
ENDMDL
MODEL 4
REMARK VINA RESULT:      -6.3      1.780      2.501
REMARK  Name = 26761815
REMARK  7 active torsions:
REMARK  status: ('A' for Active; 'I' for Inactive)
REMARK    1  A    between atoms: O_1  and  C_14
REMARK    2  A    between atoms: O_1  and  C_22
REMARK    3  A    between atoms: O_3  and  C_23
REMARK    4  A    between atoms: N_5  and  C_13
REMARK    5  A    between atoms: C_8  and  C_14
REMARK    6  A    between atoms: C_13  and  C_15
REMARK    7  A    between atoms: C_21  and  C_23
REMARK                            x       y       z     vdW  Elec       q    Type
REMARK                         _______ _______ _______ _____ _____    ______ ____
ROOT
ATOM      5  N   UNL     1      13.659   9.415  20.968  0.00  0.00    -0.280 NA
ATOM      6  N   UNL     1      11.890  12.384  22.450  0.00  0.00    -0.347 N 
ATOM      7  N   UNL     1      10.594  10.867  23.461  0.00  0.00    -0.240 NA
ATOM      8  C   UNL     1      12.490   8.511  21.138  0.00  0.00    +0.173 C 
ATOM      9  C   UNL     1      11.566   8.800  22.355  0.00  0.00    +0.087 C 
ATOM     10  C   UNL     1      13.303  10.860  20.956  0.00  0.00    +0.140 C 
ATOM     11  C   UNL     1      12.268  11.169  21.967  0.00  0.00    +0.053 A 
ATOM     12  C   UNL     1      11.458  10.258  22.596  0.00  0.00    +0.065 A 
ATOM     16  C   UNL     1      10.878  12.150  23.349  0.00  0.00    +0.197 A 
ATOM     24  H   UNL     1      12.273  13.286  22.199  0.00  0.00    +0.167 HD
ENDROOT
BRANCH   8  14
ATOM      2  O   UNL     1      10.487   8.544  19.795  0.00  0.00    -0.249 OA
ATOM     14  C   UNL     1      11.709   8.559  19.854  0.00  0.00    +0.325 C 
BRANCH  14   1
ATOM      1  O   UNL     1      12.570   8.621  18.799  0.00  0.00    -0.467 OA
ATOM     22  C   UNL     1      12.748   7.396  18.078  0.00  0.00    +0.280 C 
ENDBRANCH  14   1
ENDBRANCH   8  14
BRANCH   5  13
ATOM     13  C   UNL     1      14.687   9.134  21.973  0.00  0.00    +0.120 C 
BRANCH  13  15
ATOM     15  C   UNL     1      15.764   8.229  21.438  0.00  0.00    -0.033 A 
ATOM     17  C   UNL     1      17.106   8.587  21.572  0.00  0.00    +0.006 A 
ATOM     18  C   UNL     1      15.421   7.032  20.808  0.00  0.00    +0.006 A 
ATOM     19  C   UNL     1      18.105   7.748  21.077  0.00  0.00    +0.015 A 
ATOM     20  C   UNL     1      16.420   6.194  20.312  0.00  0.00    +0.015 A 
ATOM     21  C   UNL     1      17.761   6.552  20.447  0.00  0.00    +0.059 A 
BRANCH  21  23
ATOM      4  O   UNL     1      19.919   5.517  20.433  0.00  0.00    -0.245 OA
ATOM     23  C   UNL     1      18.802   5.677  19.929  0.00  0.00    +0.337 C 
BRANCH  23   3
ATOM      3  O   UNL     1      18.419   5.025  18.797  0.00  0.00    -0.477 OA
ATOM     25  H   UNL     1      17.755   5.539  18.288  0.00  0.00    +0.295 HD
ENDBRANCH  23   3
ENDBRANCH  21  23
ENDBRANCH  13  15
ENDBRANCH   5  13
TORSDOF 6
ENDMDL
MODEL 5
REMARK VINA RESULT:      -6.2     12.705     15.565
REMARK  Name = 26761815
REMARK  7 active torsions:
REMARK  status: ('A' for Active; 'I' for Inactive)
REMARK    1  A    between atoms: O_1  and  C_14
REMARK    2  A    between atoms: O_1  and  C_22
REMARK    3  A    between atoms: O_3  and  C_23
REMARK    4  A    between atoms: N_5  and  C_13
REMARK    5  A    between atoms: C_8  and  C_14
REMARK    6  A    between atoms: C_13  and  C_15
REMARK    7  A    between atoms: C_21  and  C_23
REMARK                            x       y       z     vdW  Elec       q    Type
REMARK                         _______ _______ _______ _____ _____    ______ ____
ROOT
ATOM      5  N   UNL     1      10.666   7.321   5.773  0.00  0.00    -0.280 NA
ATOM      6  N   UNL     1      10.718   4.695   8.465  0.00  0.00    -0.347 N 
ATOM      7  N   UNL     1       8.800   5.624   9.143  0.00  0.00    -0.240 NA
ATOM      8  C   UNL     1       9.792   8.239   6.551  0.00  0.00    +0.173 C 
ATOM      9  C   UNL     1       8.770   7.569   7.513  0.00  0.00    +0.087 C 
ATOM     10  C   UNL     1      11.391   6.329   6.613  0.00  0.00    +0.140 C 
ATOM     11  C   UNL     1      10.525   5.796   7.687  0.00  0.00    +0.053 A 
ATOM     12  C   UNL     1       9.348   6.350   8.124  0.00  0.00    +0.065 A 
ATOM     16  C   UNL     1       9.651   4.633   9.327  0.00  0.00    +0.197 A 
ATOM     24  H   UNL     1      11.494   4.047   8.422  0.00  0.00    +0.167 HD
ENDROOT
BRANCH   8  14
ATOM      2  O   UNL     1      11.806   9.517   6.913  0.00  0.00    -0.249 OA
ATOM     14  C   UNL     1      10.698   9.173   7.304  0.00  0.00    +0.325 C 
BRANCH  14   1
ATOM      1  O   UNL     1      10.093   9.560   8.462  0.00  0.00    -0.467 OA
ATOM     22  C   UNL     1       9.917  10.972   8.622  0.00  0.00    +0.280 C 
ENDBRANCH  14   1
ENDBRANCH   8  14
BRANCH   5  13
ATOM     13  C   UNL     1       9.910   6.657   4.708  0.00  0.00    +0.120 C 
BRANCH  13  15
ATOM     15  C   UNL     1      10.802   5.845   3.809  0.00  0.00    -0.033 A 
ATOM     17  C   UNL     1      10.503   4.505   3.555  0.00  0.00    +0.006 A 
ATOM     18  C   UNL     1      11.926   6.429   3.227  0.00  0.00    +0.006 A 
ATOM     19  C   UNL     1      11.329   3.752   2.721  0.00  0.00    +0.015 A 
ATOM     20  C   UNL     1      12.753   5.676   2.393  0.00  0.00    +0.015 A 
ATOM     21  C   UNL     1      12.454   4.337   2.140  0.00  0.00    +0.059 A 
BRANCH  21  23
ATOM      4  O   UNL     1      13.087   3.287   0.086  0.00  0.00    -0.245 OA
ATOM     23  C   UNL     1      13.316   3.552   1.270  0.00  0.00    +0.337 C 
BRANCH  23   3
ATOM      3  O   UNL     1      14.441   3.120   1.904  0.00  0.00    -0.477 OA
ATOM     25  H   UNL     1      14.242   2.767   2.799  0.00  0.00    +0.295 HD
ENDBRANCH  23   3
ENDBRANCH  21  23
ENDBRANCH  13  15
ENDBRANCH   5  13
TORSDOF 6
ENDMDL
MODEL 6
REMARK VINA RESULT:      -6.1     25.663     27.486
REMARK  Name = 26761815
REMARK  7 active torsions:
REMARK  status: ('A' for Active; 'I' for Inactive)
REMARK    1  A    between atoms: O_1  and  C_14
REMARK    2  A    between atoms: O_1  and  C_22
REMARK    3  A    between atoms: O_3  and  C_23
REMARK    4  A    between atoms: N_5  and  C_13
REMARK    5  A    between atoms: C_8  and  C_14
REMARK    6  A    between atoms: C_13  and  C_15
REMARK    7  A    between atoms: C_21  and  C_23
REMARK                            x       y       z     vdW  Elec       q    Type
REMARK                         _______ _______ _______ _____ _____    ______ ____
ROOT
ATOM      5  N   UNL     1     -11.210   9.509  18.363  0.00  0.00    -0.280 NA
ATOM      6  N   UNL     1      -9.817  12.910  17.566  0.00  0.00    -0.347 N 
ATOM      7  N   UNL     1     -11.640  13.148  16.291  0.00  0.00    -0.240 NA
ATOM      8  C   UNL     1     -12.029   9.446  17.123  0.00  0.00    +0.173 C 
ATOM      9  C   UNL     1     -12.565  10.802  16.581  0.00  0.00    +0.087 C 
ATOM     10  C   UNL     1     -10.074  10.466  18.284  0.00  0.00    +0.140 C 
ATOM     11  C   UNL     1     -10.466  11.713  17.591  0.00  0.00    +0.053 A 
ATOM     12  C   UNL     1     -11.574  11.882  16.800  0.00  0.00    +0.065 A 
ATOM     16  C   UNL     1     -10.564  13.743  16.770  0.00  0.00    +0.197 A 
ATOM     24  H   UNL     1      -8.954  13.145  18.037  0.00  0.00    +0.167 HD
ENDROOT
BRANCH   8  14
ATOM      2  O   UNL     1     -10.305   7.950  16.341  0.00  0.00    -0.249 OA
ATOM     14  C   UNL     1     -11.195   8.750  16.083  0.00  0.00    +0.325 C 
BRANCH  14   1
ATOM      1  O   UNL     1     -11.588   9.150  14.841  0.00  0.00    -0.467 OA
ATOM     22  C   UNL     1     -11.116   8.342  13.757  0.00  0.00    +0.280 C 
ENDBRANCH  14   1
ENDBRANCH   8  14
BRANCH   5  13
ATOM     13  C   UNL     1     -12.051   9.785  19.530  0.00  0.00    +0.120 C 
BRANCH  13  15
ATOM     15  C   UNL     1     -12.456   8.523  20.242  0.00  0.00    -0.033 A 
ATOM     17  C   UNL     1     -11.530   7.494  20.419  0.00  0.00    +0.006 A 
ATOM     18  C   UNL     1     -13.756   8.380  20.727  0.00  0.00    +0.006 A 
ATOM     19  C   UNL     1     -11.905   6.323  21.079  0.00  0.00    +0.015 A 
ATOM     20  C   UNL     1     -14.131   7.210  21.387  0.00  0.00    +0.015 A 
ATOM     21  C   UNL     1     -13.205   6.182  21.563  0.00  0.00    +0.059 A 
BRANCH  21  23
ATOM      4  O   UNL     1     -14.736   4.483  22.269  0.00  0.00    -0.245 OA
ATOM     23  C   UNL     1     -13.597   4.961  22.252  0.00  0.00    +0.337 C 
BRANCH  23   3
ATOM      3  O   UNL     1     -12.554   4.372  22.899  0.00  0.00    -0.477 OA
ATOM     25  H   UNL     1     -11.743   4.358  22.346  0.00  0.00    +0.295 HD
ENDBRANCH  23   3
ENDBRANCH  21  23
ENDBRANCH  13  15
ENDBRANCH   5  13
TORSDOF 6
ENDMDL
MODEL 7
REMARK VINA RESULT:      -6.0      3.487      6.050
REMARK  Name = 26761815
REMARK  7 active torsions:
REMARK  status: ('A' for Active; 'I' for Inactive)
REMARK    1  A    between atoms: O_1  and  C_14
REMARK    2  A    between atoms: O_1  and  C_22
REMARK    3  A    between atoms: O_3  and  C_23
REMARK    4  A    between atoms: N_5  and  C_13
REMARK    5  A    between atoms: C_8  and  C_14
REMARK    6  A    between atoms: C_13  and  C_15
REMARK    7  A    between atoms: C_21  and  C_23
REMARK                            x       y       z     vdW  Elec       q    Type
REMARK                         _______ _______ _______ _____ _____    ______ ____
ROOT
ATOM      5  N   UNL     1      13.412   8.594  18.671  0.00  0.00    -0.280 NA
ATOM      6  N   UNL     1      10.474   7.637  20.814  0.00  0.00    -0.347 N 
ATOM      7  N   UNL     1      11.685   8.453  22.508  0.00  0.00    -0.240 NA
ATOM      8  C   UNL     1      14.374   8.560  19.805  0.00  0.00    +0.173 C 
ATOM      9  C   UNL     1      13.807   8.941  21.202  0.00  0.00    +0.087 C 
ATOM     10  C   UNL     1      12.176   7.800  18.910  0.00  0.00    +0.140 C 
ATOM     11  C   UNL     1      11.691   7.961  20.298  0.00  0.00    +0.053 A 
ATOM     12  C   UNL     1      12.416   8.453  21.354  0.00  0.00    +0.065 A 
ATOM     16  C   UNL     1      10.518   7.953  22.150  0.00  0.00    +0.197 A 
ATOM     24  H   UNL     1       9.687   7.239  20.318  0.00  0.00    +0.167 HD
ENDROOT
BRANCH   8  14
ATOM      2  O   UNL     1      15.139   6.488  18.836  0.00  0.00    -0.249 OA
ATOM     14  C   UNL     1      14.971   7.181  19.831  0.00  0.00    +0.325 C 
BRANCH  14   1
ATOM      1  O   UNL     1      15.284   6.843  21.113  0.00  0.00    -0.467 OA
ATOM     22  C   UNL     1      16.653   6.489  21.340  0.00  0.00    +0.280 C 
ENDBRANCH  14   1
ENDBRANCH   8  14
BRANCH   5  13
ATOM     13  C   UNL     1      13.089   9.975  18.302  0.00  0.00    +0.120 C 
BRANCH  13  15
ATOM     15  C   UNL     1      13.844  10.421  17.080  0.00  0.00    -0.033 A 
ATOM     17  C   UNL     1      14.179   9.496  16.090  0.00  0.00    +0.006 A 
ATOM     18  C   UNL     1      14.209  11.759  16.934  0.00  0.00    +0.006 A 
ATOM     19  C   UNL     1      14.880   9.909  14.957  0.00  0.00    +0.015 A 
ATOM     20  C   UNL     1      14.910  12.173  15.801  0.00  0.00    +0.015 A 
ATOM     21  C   UNL     1      15.245  11.248  14.813  0.00  0.00    +0.059 A 
BRANCH  21  23
ATOM      4  O   UNL     1      16.796  12.602  13.594  0.00  0.00    -0.245 OA
ATOM     23  C   UNL     1      15.975  11.679  13.631  0.00  0.00    +0.337 C 
BRANCH  23   3
ATOM      3  O   UNL     1      15.661  10.946  12.528  0.00  0.00    -0.477 OA
ATOM     25  H   UNL     1      14.728  11.081  12.254  0.00  0.00    +0.295 HD
ENDBRANCH  23   3
ENDBRANCH  21  23
ENDBRANCH  13  15
ENDBRANCH   5  13
TORSDOF 6
ENDMDL
MODEL 8
REMARK VINA RESULT:      -5.9     31.511     33.082
REMARK  Name = 26761815
REMARK  7 active torsions:
REMARK  status: ('A' for Active; 'I' for Inactive)
REMARK    1  A    between atoms: O_1  and  C_14
REMARK    2  A    between atoms: O_1  and  C_22
REMARK    3  A    between atoms: O_3  and  C_23
REMARK    4  A    between atoms: N_5  and  C_13
REMARK    5  A    between atoms: C_8  and  C_14
REMARK    6  A    between atoms: C_13  and  C_15
REMARK    7  A    between atoms: C_21  and  C_23
REMARK                            x       y       z     vdW  Elec       q    Type
REMARK                         _______ _______ _______ _____ _____    ______ ____
ROOT
ATOM      5  N   UNL     1     -14.474   5.249  32.817  0.00  0.00    -0.280 NA
ATOM      6  N   UNL     1     -12.766   8.285  34.235  0.00  0.00    -0.347 N 
ATOM      7  N   UNL     1     -12.866   7.195  36.186  0.00  0.00    -0.240 NA
ATOM      8  C   UNL     1     -15.048   4.840  34.127  0.00  0.00    +0.173 C 
ATOM      9  C   UNL     1     -14.210   5.195  35.388  0.00  0.00    +0.087 C 
ATOM     10  C   UNL     1     -14.105   6.689  32.747  0.00  0.00    +0.140 C 
ATOM     11  C   UNL     1     -13.479   7.147  34.007  0.00  0.00    +0.053 A 
ATOM     12  C   UNL     1     -13.531   6.500  35.215  0.00  0.00    +0.065 A 
ATOM     16  C   UNL     1     -12.418   8.268  35.564  0.00  0.00    +0.197 A 
ATOM     24  H   UNL     1     -12.537   9.006  33.564  0.00  0.00    +0.167 HD
ENDROOT
BRANCH   8  14
ATOM      2  O   UNL     1     -17.001   5.965  33.266  0.00  0.00    -0.249 OA
ATOM     14  C   UNL     1     -16.420   5.447  34.212  0.00  0.00    +0.325 C 
BRANCH  14   1
ATOM      1  O   UNL     1     -16.894   5.328  35.484  0.00  0.00    -0.467 OA
ATOM     22  C   UNL     1     -18.320   5.316  35.611  0.00  0.00    +0.280 C 
ENDBRANCH  14   1
ENDBRANCH   8  14
BRANCH   5  13
ATOM     13  C   UNL     1     -13.338   4.396  32.456  0.00  0.00    +0.120 C 
BRANCH  13  15
ATOM     15  C   UNL     1     -13.785   3.059  31.929  0.00  0.00    -0.033 A 
ATOM     17  C   UNL     1     -14.337   2.116  32.797  0.00  0.00    +0.006 A 
ATOM     18  C   UNL     1     -13.650   2.762  30.573  0.00  0.00    +0.006 A 
ATOM     19  C   UNL     1     -14.752   0.877  32.310  0.00  0.00    +0.015 A 
ATOM     20  C   UNL     1     -14.064   1.523  30.085  0.00  0.00    +0.015 A 
ATOM     21  C   UNL     1     -14.616   0.581  30.953  0.00  0.00    +0.059 A 
BRANCH  21  23
ATOM      4  O   UNL     1     -16.136  -1.248  30.682  0.00  0.00    -0.245 OA
ATOM     23  C   UNL     1     -15.048  -0.712  30.444  0.00  0.00    +0.337 C 
BRANCH  23   3
ATOM      3  O   UNL     1     -14.110  -1.298  29.650  0.00  0.00    -0.477 OA
ATOM     25  H   UNL     1     -14.516  -1.739  28.872  0.00  0.00    +0.295 HD
ENDBRANCH  23   3
ENDBRANCH  21  23
ENDBRANCH  13  15
ENDBRANCH   5  13
TORSDOF 6
ENDMDL
MODEL 9
REMARK VINA RESULT:      -5.8     27.033     30.056
REMARK  Name = 26761815
REMARK  7 active torsions:
REMARK  status: ('A' for Active; 'I' for Inactive)
REMARK    1  A    between atoms: O_1  and  C_14
REMARK    2  A    between atoms: O_1  and  C_22
REMARK    3  A    between atoms: O_3  and  C_23
REMARK    4  A    between atoms: N_5  and  C_13
REMARK    5  A    between atoms: C_8  and  C_14
REMARK    6  A    between atoms: C_13  and  C_15
REMARK    7  A    between atoms: C_21  and  C_23
REMARK                            x       y       z     vdW  Elec       q    Type
REMARK                         _______ _______ _______ _____ _____    ______ ____
ROOT
ATOM      5  N   UNL     1       2.354   3.928  -6.562  0.00  0.00    -0.280 NA
ATOM      6  N   UNL     1       5.777   5.451  -6.234  0.00  0.00    -0.347 N 
ATOM      7  N   UNL     1       5.138   5.973  -4.156  0.00  0.00    -0.240 NA
ATOM      8  C   UNL     1       1.771   4.767  -5.481  0.00  0.00    +0.173 C 
ATOM      9  C   UNL     1       2.734   5.177  -4.330  0.00  0.00    +0.087 C 
ATOM     10  C   UNL     1       3.590   4.499  -7.163  0.00  0.00    +0.140 C 
ATOM     11  C   UNL     1       4.467   5.093  -6.131  0.00  0.00    +0.053 A 
ATOM     12  C   UNL     1       4.098   5.427  -4.853  0.00  0.00    +0.065 A 
ATOM     16  C   UNL     1       6.136   5.976  -5.017  0.00  0.00    +0.197 A 
ATOM     24  H   UNL     1       6.373   5.354  -7.046  0.00  0.00    +0.167 HD
ENDROOT
BRANCH   8  14
ATOM      2  O   UNL     1       1.326   7.126  -5.724  0.00  0.00    -0.249 OA
ATOM     14  C   UNL     1       1.182   5.984  -6.140  0.00  0.00    +0.325 C 
BRANCH  14   1
ATOM      1  O   UNL     1       0.482   5.608  -7.247  0.00  0.00    -0.467 OA
ATOM     22  C   UNL     1       0.268   6.638  -8.219  0.00  0.00    +0.280 C 
ENDBRANCH  14   1
ENDBRANCH   8  14
BRANCH   5  13
ATOM     13  C   UNL     1       2.579   2.558  -6.095  0.00  0.00    +0.120 C 
BRANCH  13  15
ATOM     15  C   UNL     1       1.366   1.690  -6.294  0.00  0.00    -0.033 A 
ATOM     17  C   UNL     1       1.041   0.718  -5.347  0.00  0.00    +0.006 A 
ATOM     18  C   UNL     1       0.565   1.858  -7.423  0.00  0.00    +0.006 A 
ATOM     19  C   UNL     1      -0.084  -0.086  -5.530  0.00  0.00    +0.015 A 
ATOM     20  C   UNL     1      -0.560   1.053  -7.608  0.00  0.00    +0.015 A 
ATOM     21  C   UNL     1      -0.884   0.081  -6.661  0.00  0.00    +0.059 A 
BRANCH  21  23
ATOM      4  O   UNL     1      -3.081  -0.427  -7.461  0.00  0.00    -0.245 OA
ATOM     23  C   UNL     1      -2.057  -0.757  -6.853  0.00  0.00    +0.337 C 
BRANCH  23   3
ATOM      3  O   UNL     1      -1.919  -1.985  -6.282  0.00  0.00    -0.477 OA
ATOM     25  H   UNL     1      -0.995  -2.313  -6.342  0.00  0.00    +0.295 HD
ENDBRANCH  23   3
ENDBRANCH  21  23
ENDBRANCH  13  15
ENDBRANCH   5  13
TORSDOF 6
ENDMDL
MODEL 10
REMARK VINA RESULT:      -5.8     14.496     17.629
REMARK  Name = 26761815
REMARK  7 active torsions:
REMARK  status: ('A' for Active; 'I' for Inactive)
REMARK    1  A    between atoms: O_1  and  C_14
REMARK    2  A    between atoms: O_1  and  C_22
REMARK    3  A    between atoms: O_3  and  C_23
REMARK    4  A    between atoms: N_5  and  C_13
REMARK    5  A    between atoms: C_8  and  C_14
REMARK    6  A    between atoms: C_13  and  C_15
REMARK    7  A    between atoms: C_21  and  C_23
REMARK                            x       y       z     vdW  Elec       q    Type
REMARK                         _______ _______ _______ _____ _____    ______ ____
ROOT
ATOM      5  N   UNL     1      10.592   5.943   3.875  0.00  0.00    -0.280 NA
ATOM      6  N   UNL     1      11.521   5.969   7.519  0.00  0.00    -0.347 N 
ATOM      7  N   UNL     1       9.318   5.852   7.887  0.00  0.00    -0.240 NA
ATOM      8  C   UNL     1       9.218   6.456   4.123  0.00  0.00    +0.173 C 
ATOM      9  C   UNL     1       8.561   6.048   5.472  0.00  0.00    +0.087 C 
ATOM     10  C   UNL     1      11.550   6.241   4.974  0.00  0.00    +0.140 C 
ATOM     11  C   UNL     1      10.920   6.066   6.301  0.00  0.00    +0.053 A 
ATOM     12  C   UNL     1       9.573   5.997   6.553  0.00  0.00    +0.065 A 
ATOM     16  C   UNL     1      10.514   5.840   8.444  0.00  0.00    +0.197 A 
ATOM     24  H   UNL     1      12.514   5.989   7.713  0.00  0.00    +0.167 HD
ENDROOT
BRANCH   8  14
ATOM      2  O   UNL     1       9.952   8.540   3.155  0.00  0.00    -0.249 OA
ATOM     14  C   UNL     1       9.280   7.953   3.992  0.00  0.00    +0.325 C 
BRANCH  14   1
ATOM      1  O   UNL     1       8.484   8.526   4.938  0.00  0.00    -0.467 OA
ATOM     22  C   UNL     1       9.042   9.664   5.604  0.00  0.00    +0.280 C 
ENDBRANCH  14   1
ENDBRANCH   8  14
BRANCH   5  13
ATOM     13  C   UNL     1      10.566   4.509   3.573  0.00  0.00    +0.120 C 
BRANCH  13  15
ATOM     15  C   UNL     1      11.139   4.212   2.213  0.00  0.00    -0.033 A 
ATOM     17  C   UNL     1      10.439   4.587   1.065  0.00  0.00    +0.006 A 
ATOM     18  C   UNL     1      12.368   3.564   2.099  0.00  0.00    +0.006 A 
ATOM     19  C   UNL     1      10.969   4.312  -0.196  0.00  0.00    +0.015 A 
ATOM     20  C   UNL     1      12.898   3.288   0.838  0.00  0.00    +0.015 A 
ATOM     21  C   UNL     1      12.198   3.663  -0.309  0.00  0.00    +0.059 A 
BRANCH  21  23
ATOM      4  O   UNL     1      13.690   3.980  -2.153  0.00  0.00    -0.245 OA
ATOM     23  C   UNL     1      12.751   3.375  -1.623  0.00  0.00    +0.337 C 
BRANCH  23   3
ATOM      3  O   UNL     1      12.118   2.340  -2.239  0.00  0.00    -0.477 OA
ATOM     25  H   UNL     1      11.254   2.139  -1.819  0.00  0.00    +0.295 HD
ENDBRANCH  23   3
ENDBRANCH  21  23
ENDBRANCH  13  15
ENDBRANCH   5  13
TORSDOF 6
ENDMDL
