MODEL 1
REMARK VINA RESULT:      -7.5      0.000      0.000
REMARK  Name = 45783724
REMARK  4 active torsions:
REMARK  status: ('A' for Active; 'I' for Inactive)
REMARK    1  A    between atoms: N_3  and  C_10
REMARK    2  A    between atoms: C_11  and  C_19
REMARK    3  A    between atoms: C_20  and  C_21
REMARK    4  A    between atoms: C_22  and  C_23
REMARK                            x       y       z     vdW  Elec       q    Type
REMARK                         _______ _______ _______ _____ _____    ______ ____
ROOT
ATOM      3  N   UNL     1      12.914   7.822  21.261  0.00  0.00    -0.288 NA
ATOM     11  C   UNL     1      11.843   8.678  20.713  0.00  0.00    +0.146 C 
ATOM     12  C   UNL     1      12.428   6.445  21.173  0.00  0.00    +0.085 C 
ATOM     13  C   UNL     1      10.544   7.897  20.980  0.00  0.00    +0.030 C 
ATOM     16  C   UNL     1      10.989   6.593  21.623  0.00  0.00    +0.017 C 
ENDROOT
BRANCH   3  10
ATOM      2  O   UNL     1      18.189   5.319  19.333  0.00  0.00    -0.276 OA
ATOM      4  N   UNL     1      16.903   7.114  20.055  0.00  0.00    -0.302 N 
ATOM     10  C   UNL     1      14.196   7.996  20.582  0.00  0.00    +0.060 C 
ATOM     14  C   UNL     1      14.486   6.785  19.686  0.00  0.00    +0.038 C 
ATOM     15  C   UNL     1      15.317   8.184  21.613  0.00  0.00    +0.038 C 
ATOM     17  C   UNL     1      15.867   6.903  19.042  0.00  0.00    +0.109 C 
ATOM     18  C   UNL     1      16.681   8.273  20.929  0.00  0.00    +0.109 C 
ATOM     20  C   UNL     1      18.008   6.266  20.103  0.00  0.00    +0.212 C 
ATOM     21  C   UNL     1      19.029   6.547  21.178  0.00  0.00    +0.109 C 
ENDBRANCH   3  10
BRANCH  11  19
ATOM      1  O   UNL     1      12.559  11.015  20.690  0.00  0.00    -0.336 OA
ATOM      5  N   UNL     1      11.219  10.487  22.406  0.00  0.00    -0.190 NA
ATOM      6  N   UNL     1      12.397  12.190  21.435  0.00  0.00    -0.056 NA
ATOM     19  C   UNL     1      11.832  10.061  21.330  0.00  0.00    +0.245 A 
ATOM     22  C   UNL     1      11.596  11.798  22.429  0.00  0.00    +0.207 A 
BRANCH  22  23
ATOM      7  N   UNL     1      10.754  13.220  25.775  0.00  0.00    -0.220 NA
ATOM      8  N   UNL     1      11.659  11.110  25.203  0.00  0.00    -0.342 N 
ATOM      9  N   UNL     1      10.231  14.832  24.062  0.00  0.00    -0.243 NA
ATOM     23  C   UNL     1      11.151  12.690  23.461  0.00  0.00    +0.080 A 
ATOM     24  C   UNL     1      11.173  12.380  24.805  0.00  0.00    +0.130 A 
ATOM     25  C   UNL     1      10.665  13.943  23.145  0.00  0.00    +0.127 A 
ATOM     26  C   UNL     1      10.302  14.411  25.339  0.00  0.00    +0.223 A 
ATOM     27  H   UNL     1      11.508  10.318  24.592  0.00  0.00    +0.144 HD
ATOM     28  H   UNL     1      11.670  10.928  26.201  0.00  0.00    +0.144 HD
ENDBRANCH  22  23
ENDBRANCH  11  19
TORSDOF 3
ENDMDL
MODEL 2
REMARK VINA RESULT:      -7.4      5.195      7.818
REMARK  Name = 45783724
REMARK  4 active torsions:
REMARK  status: ('A' for Active; 'I' for Inactive)
REMARK    1  A    between atoms: N_3  and  C_10
REMARK    2  A    between atoms: C_11  and  C_19
REMARK    3  A    between atoms: C_20  and  C_21
REMARK    4  A    between atoms: C_22  and  C_23
REMARK                            x       y       z     vdW  Elec       q    Type
REMARK                         _______ _______ _______ _____ _____    ______ ____
ROOT
ATOM      3  N   UNL     1      20.157   7.267  21.078  0.00  0.00    -0.288 NA
ATOM     11  C   UNL     1      18.839   7.761  21.524  0.00  0.00    +0.146 C 
ATOM     12  C   UNL     1      21.138   8.269  21.495  0.00  0.00    +0.085 C 
ATOM     13  C   UNL     1      18.982   9.294  21.540  0.00  0.00    +0.030 C 
ATOM     16  C   UNL     1      20.428   9.563  21.150  0.00  0.00    +0.017 C 
ENDROOT
BRANCH   3  10
ATOM      2  O   UNL     1      24.462   3.239  22.825  0.00  0.00    -0.276 OA
ATOM      4  N   UNL     1      22.369   3.778  21.974  0.00  0.00    -0.302 N 
ATOM     10  C   UNL     1      20.478   5.937  21.593  0.00  0.00    +0.060 C 
ATOM     14  C   UNL     1      21.608   6.031  22.626  0.00  0.00    +0.038 C 
ATOM     15  C   UNL     1      20.881   5.010  20.439  0.00  0.00    +0.038 C 
ATOM     17  C   UNL     1      22.025   4.642  23.106  0.00  0.00    +0.109 C 
ATOM     18  C   UNL     1      21.313   3.640  20.963  0.00  0.00    +0.109 C 
ATOM     20  C   UNL     1      23.605   3.134  21.944  0.00  0.00    +0.212 C 
ATOM     21  C   UNL     1      23.885   2.265  20.744  0.00  0.00    +0.109 C 
ENDBRANCH   3  10
BRANCH  11  19
ATOM      1  O   UNL     1      17.923   6.135  19.946  0.00  0.00    -0.336 OA
ATOM      5  N   UNL     1      16.538   7.831  20.418  0.00  0.00    -0.190 NA
ATOM      6  N   UNL     1      16.758   5.905  19.204  0.00  0.00    -0.056 NA
ATOM     19  C   UNL     1      17.710   7.289  20.633  0.00  0.00    +0.245 A 
ATOM     22  C   UNL     1      15.990   6.947  19.535  0.00  0.00    +0.207 A 
BRANCH  22  23
ATOM      7  N   UNL     1      12.274   7.057  19.212  0.00  0.00    -0.220 NA
ATOM      8  N   UNL     1      13.622   6.406  21.044  0.00  0.00    -0.342 N 
ATOM      9  N   UNL     1      13.282   7.793  17.151  0.00  0.00    -0.243 NA
ATOM     23  C   UNL     1      14.671   7.134  19.004  0.00  0.00    +0.080 A 
ATOM     24  C   UNL     1      13.515   6.880  19.713  0.00  0.00    +0.130 A 
ATOM     25  C   UNL     1      14.491   7.593  17.714  0.00  0.00    +0.127 A 
ATOM     26  C   UNL     1      12.232   7.508  17.944  0.00  0.00    +0.223 A 
ATOM     27  H   UNL     1      14.403   5.808  21.285  0.00  0.00    +0.144 HD
ATOM     28  H   UNL     1      12.749   6.244  21.533  0.00  0.00    +0.144 HD
ENDBRANCH  22  23
ENDBRANCH  11  19
TORSDOF 3
ENDMDL
MODEL 3
REMARK VINA RESULT:      -7.2      2.401      8.249
REMARK  Name = 45783724
REMARK  4 active torsions:
REMARK  status: ('A' for Active; 'I' for Inactive)
REMARK    1  A    between atoms: N_3  and  C_10
REMARK    2  A    between atoms: C_11  and  C_19
REMARK    3  A    between atoms: C_20  and  C_21
REMARK    4  A    between atoms: C_22  and  C_23
REMARK                            x       y       z     vdW  Elec       q    Type
REMARK                         _______ _______ _______ _____ _____    ______ ____
ROOT
ATOM      3  N   UNL     1      13.851  10.572  20.249  0.00  0.00    -0.288 NA
ATOM     11  C   UNL     1      13.617   9.363  19.434  0.00  0.00    +0.146 C 
ATOM     12  C   UNL     1      13.298  11.695  19.491  0.00  0.00    +0.085 C 
ATOM     13  C   UNL     1      13.593   9.871  17.980  0.00  0.00    +0.030 C 
ATOM     16  C   UNL     1      13.759  11.379  18.083  0.00  0.00    +0.017 C 
ENDROOT
BRANCH   3  10
ATOM      2  O   UNL     1       9.920  12.802  24.418  0.00  0.00    -0.276 OA
ATOM      4  N   UNL     1      11.868  11.692  23.810  0.00  0.00    -0.302 N 
ATOM     10  C   UNL     1      13.281  10.482  21.591  0.00  0.00    +0.060 C 
ATOM     14  C   UNL     1      11.769  10.733  21.540  0.00  0.00    +0.038 C 
ATOM     15  C   UNL     1      13.963  11.494  22.521  0.00  0.00    +0.038 C 
ATOM     17  C   UNL     1      11.169  10.739  22.945  0.00  0.00    +0.109 C 
ATOM     18  C   UNL     1      13.318  11.484  23.907  0.00  0.00    +0.109 C 
ATOM     20  C   UNL     1      11.145  12.670  24.490  0.00  0.00    +0.212 C 
ATOM     21  C   UNL     1      11.938  13.616  25.357  0.00  0.00    +0.109 C 
ENDBRANCH   3  10
BRANCH  11  19
ATOM      1  O   UNL     1      14.298   7.017  19.385  0.00  0.00    -0.336 OA
ATOM      5  N   UNL     1      15.895   8.418  20.098  0.00  0.00    -0.190 NA
ATOM      6  N   UNL     1      15.415   6.223  19.670  0.00  0.00    -0.056 NA
ATOM     19  C   UNL     1      14.666   8.296  19.663  0.00  0.00    +0.245 A 
ATOM     22  C   UNL     1      16.314   7.119  20.086  0.00  0.00    +0.207 A 
BRANCH  22  23
ATOM      7  N   UNL     1      19.691   5.534  20.180  0.00  0.00    -0.220 NA
ATOM      8  N   UNL     1      17.943   5.297  18.603  0.00  0.00    -0.342 N 
ATOM      9  N   UNL     1      19.429   6.982  22.088  0.00  0.00    -0.243 NA
ATOM     23  C   UNL     1      17.640   6.753  20.494  0.00  0.00    +0.080 A 
ATOM     24  C   UNL     1      18.444   5.877  19.795  0.00  0.00    +0.130 A 
ATOM     25  C   UNL     1      18.191   7.280  21.645  0.00  0.00    +0.127 A 
ATOM     26  C   UNL     1      20.114   6.114  21.319  0.00  0.00    +0.223 A 
ATOM     27  H   UNL     1      16.953   5.103  18.536  0.00  0.00    +0.144 HD
ATOM     28  H   UNL     1      18.571   4.669  18.113  0.00  0.00    +0.144 HD
ENDBRANCH  22  23
ENDBRANCH  11  19
TORSDOF 3
ENDMDL
MODEL 4
REMARK VINA RESULT:      -7.1      3.340      4.023
REMARK  Name = 45783724
REMARK  4 active torsions:
REMARK  status: ('A' for Active; 'I' for Inactive)
REMARK    1  A    between atoms: N_3  and  C_10
REMARK    2  A    between atoms: C_11  and  C_19
REMARK    3  A    between atoms: C_20  and  C_21
REMARK    4  A    between atoms: C_22  and  C_23
REMARK                            x       y       z     vdW  Elec       q    Type
REMARK                         _______ _______ _______ _____ _____    ______ ____
ROOT
ATOM      3  N   UNL     1      13.939   8.613  19.455  0.00  0.00    -0.288 NA
ATOM     11  C   UNL     1      12.766   7.936  20.044  0.00  0.00    +0.146 C 
ATOM     12  C   UNL     1      14.910   7.563  19.144  0.00  0.00    +0.085 C 
ATOM     13  C   UNL     1      13.337   6.665  20.699  0.00  0.00    +0.030 C 
ATOM     16  C   UNL     1      14.824   6.683  20.375  0.00  0.00    +0.017 C 
ENDROOT
BRANCH   3  10
ATOM      2  O   UNL     1      15.443  10.446  13.782  0.00  0.00    -0.276 OA
ATOM      4  N   UNL     1      14.414  10.754  15.842  0.00  0.00    -0.302 N 
ATOM     10  C   UNL     1      13.610   9.421  18.283  0.00  0.00    +0.060 C 
ATOM     14  C   UNL     1      13.911   8.636  17.001  0.00  0.00    +0.038 C 
ATOM     15  C   UNL     1      14.405  10.733  18.309  0.00  0.00    +0.038 C 
ATOM     17  C   UNL     1      13.665   9.498  15.763  0.00  0.00    +0.109 C 
ATOM     18  C   UNL     1      14.150  11.554  17.045  0.00  0.00    +0.109 C 
ATOM     20  C   UNL     1      15.265  11.120  14.800  0.00  0.00    +0.212 C 
ATOM     21  C   UNL     1      16.004  12.426  14.958  0.00  0.00    +0.109 C 
ENDBRANCH   3  10
BRANCH  11  19
ATOM      1  O   UNL     1      10.917   8.271  21.605  0.00  0.00    -0.336 OA
ATOM      5  N   UNL     1      12.276  10.041  21.404  0.00  0.00    -0.190 NA
ATOM      6  N   UNL     1      10.404   9.256  22.458  0.00  0.00    -0.056 NA
ATOM     19  C   UNL     1      12.019   8.815  21.024  0.00  0.00    +0.245 A 
ATOM     22  C   UNL     1      11.258  10.269  22.284  0.00  0.00    +0.207 A 
BRANCH  22  23
ATOM      7  N   UNL     1      11.028  12.824  24.994  0.00  0.00    -0.220 NA
ATOM      8  N   UNL     1      11.322  10.481  25.135  0.00  0.00    -0.342 N 
ATOM      9  N   UNL     1      10.827  13.905  22.850  0.00  0.00    -0.243 NA
ATOM     23  C   UNL     1      11.125  11.520  22.973  0.00  0.00    +0.080 A 
ATOM     24  C   UNL     1      11.153  11.646  24.347  0.00  0.00    +0.130 A 
ATOM     25  C   UNL     1      10.957  12.695  22.269  0.00  0.00    +0.127 A 
ATOM     26  C   UNL     1      10.869  13.897  24.196  0.00  0.00    +0.223 A 
ATOM     27  H   UNL     1      10.932   9.608  24.801  0.00  0.00    +0.144 HD
ATOM     28  H   UNL     1      11.350  10.620  26.138  0.00  0.00    +0.144 HD
ENDBRANCH  22  23
ENDBRANCH  11  19
TORSDOF 3
ENDMDL
MODEL 5
REMARK VINA RESULT:      -7.1     28.514     30.652
REMARK  Name = 45783724
REMARK  4 active torsions:
REMARK  status: ('A' for Active; 'I' for Inactive)
REMARK    1  A    between atoms: N_3  and  C_10
REMARK    2  A    between atoms: C_11  and  C_19
REMARK    3  A    between atoms: C_20  and  C_21
REMARK    4  A    between atoms: C_22  and  C_23
REMARK                            x       y       z     vdW  Elec       q    Type
REMARK                         _______ _______ _______ _____ _____    ______ ____
ROOT
ATOM      3  N   UNL     1     -17.183   1.852  27.394  0.00  0.00    -0.288 NA
ATOM     11  C   UNL     1     -16.952   1.199  26.090  0.00  0.00    +0.146 C 
ATOM     12  C   UNL     1     -18.111   0.991  28.129  0.00  0.00    +0.085 C 
ATOM     13  C   UNL     1     -18.239   0.398  25.820  0.00  0.00    +0.030 C 
ATOM     16  C   UNL     1     -19.107   0.613  27.051  0.00  0.00    +0.017 C 
ENDROOT
BRANCH   3  10
ATOM      2  O   UNL     1     -14.191   1.597  32.760  0.00  0.00    -0.276 OA
ATOM      4  N   UNL     1     -14.579   2.508  30.658  0.00  0.00    -0.302 N 
ATOM     10  C   UNL     1     -15.953   2.097  28.143  0.00  0.00    +0.060 C 
ATOM     14  C   UNL     1     -15.684   0.938  29.110  0.00  0.00    +0.038 C 
ATOM     15  C   UNL     1     -16.058   3.423  28.908  0.00  0.00    +0.038 C 
ATOM     17  C   UNL     1     -14.454   1.220  29.971  0.00  0.00    +0.109 C 
ATOM     18  C   UNL     1     -14.820   3.655  29.774  0.00  0.00    +0.109 C 
ATOM     20  C   UNL     1     -14.429   2.572  32.042  0.00  0.00    +0.212 C 
ATOM     21  C   UNL     1     -14.575   3.934  32.675  0.00  0.00    +0.109 C 
ENDBRANCH   3  10
BRANCH  11  19
ATOM      1  O   UNL     1     -16.753   1.737  23.715  0.00  0.00    -0.336 OA
ATOM      5  N   UNL     1     -16.265   3.443  25.083  0.00  0.00    -0.190 NA
ATOM      6  N   UNL     1     -16.418   2.817  22.888  0.00  0.00    -0.056 NA
ATOM     19  C   UNL     1     -16.638   2.192  24.991  0.00  0.00    +0.245 A 
ATOM     22  C   UNL     1     -16.142   3.784  23.767  0.00  0.00    +0.207 A 
BRANCH  22  23
ATOM      7  N   UNL     1     -14.273   6.605  22.194  0.00  0.00    -0.220 NA
ATOM      8  N   UNL     1     -13.860   4.276  22.117  0.00  0.00    -0.342 N 
ATOM      9  N   UNL     1     -16.147   7.475  23.434  0.00  0.00    -0.243 NA
ATOM     23  C   UNL     1     -15.743   5.102  23.366  0.00  0.00    +0.080 A 
ATOM     24  C   UNL     1     -14.647   5.364  22.571  0.00  0.00    +0.130 A 
ATOM     25  C   UNL     1     -16.464   6.208  23.772  0.00  0.00    +0.127 A 
ATOM     26  C   UNL     1     -15.055   7.599  22.655  0.00  0.00    +0.223 A 
ATOM     27  H   UNL     1     -13.763   3.465  22.713  0.00  0.00    +0.144 HD
ATOM     28  H   UNL     1     -13.072   4.512  21.524  0.00  0.00    +0.144 HD
ENDBRANCH  22  23
ENDBRANCH  11  19
TORSDOF 3
ENDMDL
MODEL 6
REMARK VINA RESULT:      -6.7     26.643     28.810
REMARK  Name = 45783724
REMARK  4 active torsions:
REMARK  status: ('A' for Active; 'I' for Inactive)
REMARK    1  A    between atoms: N_3  and  C_10
REMARK    2  A    between atoms: C_11  and  C_19
REMARK    3  A    between atoms: C_20  and  C_21
REMARK    4  A    between atoms: C_22  and  C_23
REMARK                            x       y       z     vdW  Elec       q    Type
REMARK                         _______ _______ _______ _____ _____    ______ ____
ROOT
ATOM      3  N   UNL     1      -3.732  -9.770  11.786  0.00  0.00    -0.288 NA
ATOM     11  C   UNL     1      -3.031 -10.833  12.534  0.00  0.00    +0.146 C 
ATOM     12  C   UNL     1      -2.942  -9.523  10.580  0.00  0.00    +0.085 C 
ATOM     13  C   UNL     1      -1.551 -10.678  12.140  0.00  0.00    +0.030 C 
ATOM     16  C   UNL     1      -1.527  -9.547  11.123  0.00  0.00    +0.017 C 
ENDROOT
BRANCH   3  10
ATOM      2  O   UNL     1      -8.358  -9.627   7.738  0.00  0.00    -0.276 OA
ATOM      4  N   UNL     1      -7.514  -9.683   9.902  0.00  0.00    -0.302 N 
ATOM     10  C   UNL     1      -5.120 -10.103  11.475  0.00  0.00    +0.060 C 
ATOM     14  C   UNL     1      -5.230 -10.603  10.029  0.00  0.00    +0.038 C 
ATOM     15  C   UNL     1      -6.016  -8.876  11.688  0.00  0.00    +0.038 C 
ATOM     17  C   UNL     1      -6.687 -10.865   9.652  0.00  0.00    +0.109 C 
ATOM     18  C   UNL     1      -7.458  -9.173  11.277  0.00  0.00    +0.109 C 
ATOM     20  C   UNL     1      -8.301  -9.158   8.878  0.00  0.00    +0.212 C 
ATOM     21  C   UNL     1      -9.121  -7.937   9.214  0.00  0.00    +0.109 C 
ENDBRANCH   3  10
BRANCH  11  19
ATOM      1  O   UNL     1      -2.153 -10.476  14.786  0.00  0.00    -0.336 OA
ATOM      5  N   UNL     1      -4.359 -10.863  14.716  0.00  0.00    -0.190 NA
ATOM      6  N   UNL     1      -2.600 -10.432  16.113  0.00  0.00    -0.056 NA
ATOM     19  C   UNL     1      -3.252 -10.734  14.029  0.00  0.00    +0.245 A 
ATOM     22  C   UNL     1      -3.908 -10.669  15.990  0.00  0.00    +0.207 A 
BRANCH  22  23
ATOM      7  N   UNL     1      -6.846 -10.120  18.224  0.00  0.00    -0.220 NA
ATOM      8  N   UNL     1      -6.424  -9.312  16.041  0.00  0.00    -0.342 N 
ATOM      9  N   UNL     1      -5.241 -11.531  19.338  0.00  0.00    -0.243 NA
ATOM     23  C   UNL     1      -4.795 -10.718  17.116  0.00  0.00    +0.080 A 
ATOM     24  C   UNL     1      -6.013 -10.072  17.164  0.00  0.00    +0.130 A 
ATOM     25  C   UNL     1      -4.458 -11.440  18.244  0.00  0.00    +0.127 A 
ATOM     26  C   UNL     1      -6.404 -10.855  19.262  0.00  0.00    +0.223 A 
ATOM     27  H   UNL     1      -5.719  -8.840  15.489  0.00  0.00    +0.144 HD
ATOM     28  H   UNL     1      -7.331  -8.864  16.112  0.00  0.00    +0.144 HD
ENDBRANCH  22  23
ENDBRANCH  11  19
TORSDOF 3
ENDMDL
MODEL 7
REMARK VINA RESULT:      -6.7      3.467      7.659
REMARK  Name = 45783724
REMARK  4 active torsions:
REMARK  status: ('A' for Active; 'I' for Inactive)
REMARK    1  A    between atoms: N_3  and  C_10
REMARK    2  A    between atoms: C_11  and  C_19
REMARK    3  A    between atoms: C_20  and  C_21
REMARK    4  A    between atoms: C_22  and  C_23
REMARK                            x       y       z     vdW  Elec       q    Type
REMARK                         _______ _______ _______ _____ _____    ______ ____
ROOT
ATOM      3  N   UNL     1      11.508   9.412  21.841  0.00  0.00    -0.288 NA
ATOM     11  C   UNL     1      12.633   8.503  21.543  0.00  0.00    +0.146 C 
ATOM     12  C   UNL     1      10.543   8.633  22.618  0.00  0.00    +0.085 C 
ATOM     13  C   UNL     1      12.006   7.098  21.522  0.00  0.00    +0.030 C 
ATOM     16  C   UNL     1      10.542   7.310  21.879  0.00  0.00    +0.017 C 
ENDROOT
BRANCH   3  10
ATOM      2  O   UNL     1      10.168  13.790  25.946  0.00  0.00    -0.276 OA
ATOM      4  N   UNL     1      11.254  13.009  24.047  0.00  0.00    -0.302 N 
ATOM     10  C   UNL     1      11.919  10.629  22.538  0.00  0.00    +0.060 C 
ATOM     14  C   UNL     1      11.507  10.556  24.014  0.00  0.00    +0.038 C 
ATOM     15  C   UNL     1      11.293  11.857  21.865  0.00  0.00    +0.038 C 
ATOM     17  C   UNL     1      11.841  11.859  24.738  0.00  0.00    +0.109 C 
ATOM     18  C   UNL     1      11.631  13.135  22.633  0.00  0.00    +0.109 C 
ATOM     20  C   UNL     1      10.441  13.898  24.748  0.00  0.00    +0.212 C 
ATOM     21  C   UNL     1       9.872  15.055  23.964  0.00  0.00    +0.109 C 
ENDBRANCH   3  10
BRANCH  11  19
ATOM      1  O   UNL     1      14.445   8.130  19.946  0.00  0.00    -0.336 OA
ATOM      5  N   UNL     1      13.025   9.758  19.352  0.00  0.00    -0.190 NA
ATOM      6  N   UNL     1      14.908   8.625  18.721  0.00  0.00    -0.056 NA
ATOM     19  C   UNL     1      13.332   8.851  20.245  0.00  0.00    +0.245 A 
ATOM     22  C   UNL     1      14.020   9.581  18.436  0.00  0.00    +0.207 A 
BRANCH  22  23
ATOM      7  N   UNL     1      14.119  10.606  14.849  0.00  0.00    -0.220 NA
ATOM      8  N   UNL     1      13.918   8.454  15.810  0.00  0.00    -0.342 N 
ATOM      9  N   UNL     1      14.300  12.560  16.249  0.00  0.00    -0.243 NA
ATOM     23  C   UNL     1      14.096  10.377  17.245  0.00  0.00    +0.080 A 
ATOM     24  C   UNL     1      14.048   9.856  15.969  0.00  0.00    +0.130 A 
ATOM     25  C   UNL     1      14.224  11.750  17.325  0.00  0.00    +0.127 A 
ATOM     26  C   UNL     1      14.244  11.931  15.060  0.00  0.00    +0.223 A 
ATOM     27  H   UNL     1      14.345   7.846  16.497  0.00  0.00    +0.144 HD
ATOM     28  H   UNL     1      13.874   8.114  14.856  0.00  0.00    +0.144 HD
ENDBRANCH  22  23
ENDBRANCH  11  19
TORSDOF 3
ENDMDL
MODEL 8
REMARK VINA RESULT:      -6.7     28.585     31.007
REMARK  Name = 45783724
REMARK  4 active torsions:
REMARK  status: ('A' for Active; 'I' for Inactive)
REMARK    1  A    between atoms: N_3  and  C_10
REMARK    2  A    between atoms: C_11  and  C_19
REMARK    3  A    between atoms: C_20  and  C_21
REMARK    4  A    between atoms: C_22  and  C_23
REMARK                            x       y       z     vdW  Elec       q    Type
REMARK                         _______ _______ _______ _____ _____    ______ ____
ROOT
ATOM      3  N   UNL     1     -17.672   1.625  25.459  0.00  0.00    -0.288 NA
ATOM     11  C   UNL     1     -18.348   1.633  26.771  0.00  0.00    +0.146 C 
ATOM     12  C   UNL     1     -18.586   0.963  24.527  0.00  0.00    +0.085 C 
ATOM     13  C   UNL     1     -19.269   0.400  26.744  0.00  0.00    +0.030 C 
ATOM     16  C   UNL     1     -19.089  -0.200  25.358  0.00  0.00    +0.017 C 
ENDROOT
BRANCH   3  10
ATOM      2  O   UNL     1     -15.798   5.221  20.836  0.00  0.00    -0.276 OA
ATOM      4  N   UNL     1     -15.948   4.671  23.088  0.00  0.00    -0.302 N 
ATOM     10  C   UNL     1     -17.290   2.958  24.999  0.00  0.00    +0.060 C 
ATOM     14  C   UNL     1     -17.877   3.223  23.606  0.00  0.00    +0.038 C 
ATOM     15  C   UNL     1     -15.762   3.088  24.972  0.00  0.00    +0.038 C 
ATOM     17  C   UNL     1     -17.410   4.574  23.066  0.00  0.00    +0.109 C 
ATOM     18  C   UNL     1     -15.337   4.442  24.403  0.00  0.00    +0.109 C 
ATOM     20  C   UNL     1     -15.258   4.998  21.923  0.00  0.00    +0.212 C 
ATOM     21  C   UNL     1     -13.755   5.075  22.027  0.00  0.00    +0.109 C 
ENDBRANCH   3  10
BRANCH  11  19
ATOM      1  O   UNL     1     -16.948   0.382  28.336  0.00  0.00    -0.336 OA
ATOM      5  N   UNL     1     -16.863   2.604  28.609  0.00  0.00    -0.190 NA
ATOM      6  N   UNL     1     -16.067   0.611  29.400  0.00  0.00    -0.056 NA
ATOM     19  C   UNL     1     -17.371   1.608  27.928  0.00  0.00    +0.245 A 
ATOM     22  C   UNL     1     -16.069   1.943  29.501  0.00  0.00    +0.207 A 
BRANCH  22  23
ATOM      7  N   UNL     1     -13.209   3.099  31.600  0.00  0.00    -0.220 NA
ATOM      8  N   UNL     1     -13.274   1.475  29.881  0.00  0.00    -0.342 N 
ATOM      9  N   UNL     1     -15.204   4.295  32.231  0.00  0.00    -0.243 NA
ATOM     23  C   UNL     1     -15.290   2.646  30.479  0.00  0.00    +0.080 A 
ATOM     24  C   UNL     1     -13.941   2.437  30.680  0.00  0.00    +0.130 A 
ATOM     25  C   UNL     1     -15.875   3.596  31.292  0.00  0.00    +0.127 A 
ATOM     26  C   UNL     1     -13.894   3.999  32.331  0.00  0.00    +0.223 A 
ATOM     27  H   UNL     1     -13.786   0.656  29.579  0.00  0.00    +0.144 HD
ATOM     28  H   UNL     1     -12.282   1.363  30.052  0.00  0.00    +0.144 HD
ENDBRANCH  22  23
ENDBRANCH  11  19
TORSDOF 3
ENDMDL
MODEL 9
REMARK VINA RESULT:      -6.6      3.628      6.673
REMARK  Name = 45783724
REMARK  4 active torsions:
REMARK  status: ('A' for Active; 'I' for Inactive)
REMARK    1  A    between atoms: N_3  and  C_10
REMARK    2  A    between atoms: C_11  and  C_19
REMARK    3  A    between atoms: C_20  and  C_21
REMARK    4  A    between atoms: C_22  and  C_23
REMARK                            x       y       z     vdW  Elec       q    Type
REMARK                         _______ _______ _______ _____ _____    ______ ____
ROOT
ATOM      3  N   UNL     1      11.425   8.919  21.556  0.00  0.00    -0.288 NA
ATOM     11  C   UNL     1      12.292   7.926  20.892  0.00  0.00    +0.146 C 
ATOM     12  C   UNL     1      10.724   8.208  22.626  0.00  0.00    +0.085 C 
ATOM     13  C   UNL     1      11.575   6.579  21.102  0.00  0.00    +0.030 C 
ATOM     16  C   UNL     1      10.351   6.907  21.944  0.00  0.00    +0.017 C 
ENDROOT
BRANCH   3  10
ATOM      2  O   UNL     1      15.059  13.728  20.340  0.00  0.00    -0.276 OA
ATOM      4  N   UNL     1      14.240  12.067  21.742  0.00  0.00    -0.302 N 
ATOM     10  C   UNL     1      12.157  10.081  22.057  0.00  0.00    +0.060 C 
ATOM     14  C   UNL     1      12.004  11.258  21.085  0.00  0.00    +0.038 C 
ATOM     15  C   UNL     1      13.637   9.728  22.245  0.00  0.00    +0.038 C 
ATOM     17  C   UNL     1      12.841  12.452  21.541  0.00  0.00    +0.109 C 
ATOM     18  C   UNL     1      14.442  10.954  22.678  0.00  0.00    +0.109 C 
ATOM     20  C   UNL     1      15.253  12.772  21.095  0.00  0.00    +0.212 C 
ATOM     21  C   UNL     1      16.666  12.311  21.351  0.00  0.00    +0.109 C 
ENDBRANCH   3  10
BRANCH  11  19
ATOM      1  O   UNL     1      11.719   7.609  18.538  0.00  0.00    -0.336 OA
ATOM      5  N   UNL     1      13.402   9.047  18.883  0.00  0.00    -0.190 NA
ATOM      6  N   UNL     1      12.118   8.055  17.272  0.00  0.00    -0.056 NA
ATOM     19  C   UNL     1      12.526   8.243  19.430  0.00  0.00    +0.245 A 
ATOM     22  C   UNL     1      13.113   8.899  17.558  0.00  0.00    +0.207 A 
BRANCH  22  23
ATOM      7  N   UNL     1      14.730  11.642  15.612  0.00  0.00    -0.220 NA
ATOM      8  N   UNL     1      13.515  11.728  17.641  0.00  0.00    -0.342 N 
ATOM      9  N   UNL     1      15.078   9.542  14.483  0.00  0.00    -0.243 NA
ATOM     23  C   UNL     1      13.840   9.610  16.546  0.00  0.00    +0.080 A 
ATOM     24  C   UNL     1      14.046  10.974  16.565  0.00  0.00    +0.130 A 
ATOM     25  C   UNL     1      14.384   8.939  15.469  0.00  0.00    +0.127 A 
ATOM     26  C   UNL     1      15.210  10.876  14.615  0.00  0.00    +0.223 A 
ATOM     27  H   UNL     1      12.644  11.429  18.061  0.00  0.00    +0.144 HD
ATOM     28  H   UNL     1      13.701  12.725  17.623  0.00  0.00    +0.144 HD
ENDBRANCH  22  23
ENDBRANCH  11  19
TORSDOF 3
ENDMDL
MODEL 10
REMARK VINA RESULT:      -6.4     26.876     29.848
REMARK  Name = 45783724
REMARK  4 active torsions:
REMARK  status: ('A' for Active; 'I' for Inactive)
REMARK    1  A    between atoms: N_3  and  C_10
REMARK    2  A    between atoms: C_11  and  C_19
REMARK    3  A    between atoms: C_20  and  C_21
REMARK    4  A    between atoms: C_22  and  C_23
REMARK                            x       y       z     vdW  Elec       q    Type
REMARK                         _______ _______ _______ _____ _____    ______ ____
ROOT
ATOM      3  N   UNL     1      -8.739 -10.631  17.511  0.00  0.00    -0.288 NA
ATOM     11  C   UNL     1      -7.489 -10.334  18.239  0.00  0.00    +0.146 C 
ATOM     12  C   UNL     1      -9.769 -10.845  18.528  0.00  0.00    +0.085 C 
ATOM     13  C   UNL     1      -7.641 -11.060  19.588  0.00  0.00    +0.030 C 
ATOM     16  C   UNL     1      -9.028 -11.683  19.551  0.00  0.00    +0.017 C 
ENDROOT
BRANCH   3  10
ATOM      2  O   UNL     1     -12.736  -6.261  15.858  0.00  0.00    -0.276 OA
ATOM      4  N   UNL     1     -11.119  -7.860  15.384  0.00  0.00    -0.302 N 
ATOM     10  C   UNL     1      -9.114  -9.587  16.560  0.00  0.00    +0.060 C 
ATOM     14  C   UNL     1      -9.662  -8.365  17.309  0.00  0.00    +0.038 C 
ATOM     15  C   UNL     1     -10.158 -10.125  15.573  0.00  0.00    +0.038 C 
ATOM     17  C   UNL     1     -10.150  -7.300  16.329  0.00  0.00    +0.109 C 
ATOM     18  C   UNL     1     -10.638  -9.023  14.628  0.00  0.00    +0.109 C 
ATOM     20  C   UNL     1     -12.368  -7.261  15.235  0.00  0.00    +0.212 C 
ATOM     21  C   UNL     1     -13.310  -7.900  14.245  0.00  0.00    +0.109 C 
ENDBRANCH   3  10
BRANCH  11  19
ATOM      1  O   UNL     1      -5.650 -11.909  17.904  0.00  0.00    -0.336 OA
ATOM      5  N   UNL     1      -5.670 -10.204  16.451  0.00  0.00    -0.190 NA
ATOM      6  N   UNL     1      -4.551 -12.104  17.059  0.00  0.00    -0.056 NA
ATOM     19  C   UNL     1      -6.255 -10.769  17.477  0.00  0.00    +0.245 A 
ATOM     22  C   UNL     1      -4.629 -11.059  16.231  0.00  0.00    +0.207 A 
BRANCH  22  23
ATOM      7  N   UNL     1      -1.434 -10.613  14.356  0.00  0.00    -0.220 NA
ATOM      8  N   UNL     1      -1.802 -11.026  16.656  0.00  0.00    -0.342 N 
ATOM      9  N   UNL     1      -3.292 -10.420  12.834  0.00  0.00    -0.243 NA
ATOM     23  C   UNL     1      -3.687 -10.840  15.172  0.00  0.00    +0.080 A 
ATOM     24  C   UNL     1      -2.319 -10.819  15.353  0.00  0.00    +0.130 A 
ATOM     25  C   UNL     1      -4.121 -10.632  13.878  0.00  0.00    +0.127 A 
ATOM     26  C   UNL     1      -1.981 -10.422  13.140  0.00  0.00    +0.223 A 
ATOM     27  H   UNL     1      -2.336 -10.693  17.449  0.00  0.00    +0.144 HD
ATOM     28  H   UNL     1      -0.792 -11.016  16.743  0.00  0.00    +0.144 HD
ENDBRANCH  22  23
ENDBRANCH  11  19
TORSDOF 3
ENDMDL
