MODEL 1
REMARK VINA RESULT:      -6.7      0.000      0.000
REMARK  Name = 40776909
REMARK  10 active torsions:
REMARK  status: ('A' for Active; 'I' for Inactive)
REMARK    1  A    between atoms: O_2  and  C_22
REMARK    2  A    between atoms: O_2  and  C_29
REMARK    3  A    between atoms: O_3  and  C_24
REMARK    4  A    between atoms: O_3  and  C_30
REMARK    5  A    between atoms: N_5  and  C_15
REMARK    6  A    between atoms: C_9  and  C_16
REMARK    7  A    between atoms: C_10  and  C_15
REMARK    8  A    between atoms: C_18  and  C_21
REMARK    9  A    between atoms: C_19  and  C_22
REMARK   10  A    between atoms: C_20  and  C_23
REMARK                            x       y       z     vdW  Elec       q    Type
REMARK                         _______ _______ _______ _____ _____    ______ ____
ROOT
ATOM      4  N   UNL     1      11.431   7.655  19.811  0.00  0.00    -0.297 NA
ATOM      8  C   UNL     1      13.731   8.461  20.728  0.00  0.00    +0.002 C 
ATOM      9  C   UNL     1      12.570   9.201  21.447  0.00  0.00    +0.055 C 
ATOM     10  C   UNL     1      12.330   8.018  18.683  0.00  0.00    +0.074 C 
ATOM     11  C   UNL     1      13.617   8.689  19.206  0.00  0.00    +0.024 C 
ATOM     12  C   UNL     1      13.520   6.952  20.977  0.00  0.00    +0.019 C 
ATOM     13  C   UNL     1      11.253   8.821  20.712  0.00  0.00    +0.094 C 
ATOM     14  C   UNL     1      12.083   6.570  20.581  0.00  0.00    +0.085 C 
ENDROOT
BRANCH   9  16
ATOM      6  N   UNL     1      13.945  11.184  21.846  0.00  0.00    -0.237 NA
ATOM      7  N   UNL     1      12.992  13.388  22.055  0.00  0.00    -0.232 NA
ATOM     16  C   UNL     1      12.699  10.703  21.662  0.00  0.00    +0.050 A 
ATOM     17  C   UNL     1      11.565  11.489  21.659  0.00  0.00    +0.052 A 
ATOM     18  C   UNL     1      11.774  12.838  21.863  0.00  0.00    +0.078 A 
ATOM     20  C   UNL     1      14.018  12.515  22.035  0.00  0.00    +0.127 A 
ATOM     23  C   UNL     1      15.381  13.085  22.245  0.00  0.00    +0.088 C 
BRANCH  18  21
ATOM     21  C   UNL     1      10.671  13.769  21.885  0.00  0.00    +0.042 A 
ATOM     24  C   UNL     1       9.917  13.957  23.044  0.00  0.00    +0.129 A 
ATOM     25  C   UNL     1      10.364  14.485  20.729  0.00  0.00    +0.013 A 
ATOM     26  C   UNL     1       8.856  14.862  23.045  0.00  0.00    +0.046 A 
ATOM     27  C   UNL     1       9.301  15.389  20.730  0.00  0.00    +0.001 A 
ATOM     28  C   UNL     1       8.547  15.578  21.889  0.00  0.00    +0.004 A 
BRANCH  24   3
ATOM      3  O   UNL     1      10.195  13.271  24.189  0.00  0.00    -0.494 OA
ATOM     30  C   UNL     1      10.536  14.043  25.338  0.00  0.00    +0.277 C 
ENDBRANCH  24   3
ENDBRANCH  18  21
ENDBRANCH   9  16
BRANCH  10  15
ATOM     15  C   UNL     1      11.627   8.875  17.629  0.00  0.00    +0.123 C 
BRANCH  15   5
ATOM      1  O   UNL     1      13.048   8.667  15.118  0.00  0.00    -0.273 OA
ATOM      5  N   UNL     1      12.528   9.832  17.065  0.00  0.00    -0.312 N 
ATOM     19  C   UNL     1      13.172   9.650  15.842  0.00  0.00    +0.239 C 
ATOM     31  H   UNL     1      12.705  10.684  17.589  0.00  0.00    +0.149 HD
BRANCH  19  22
ATOM     22  C   UNL     1      14.067  10.820  15.488  0.00  0.00    +0.255 C 
BRANCH  22   2
ATOM      2  O   UNL     1      14.937  10.479  14.430  0.00  0.00    -0.374 OA
ATOM     29  C   UNL     1      16.116  11.279  14.433  0.00  0.00    +0.194 C 
ENDBRANCH  22   2
ENDBRANCH  19  22
ENDBRANCH  15   5
ENDBRANCH  10  15
TORSDOF 7
ENDMDL
MODEL 2
REMARK VINA RESULT:      -6.5     13.014     18.410
REMARK  Name = 40776909
REMARK  10 active torsions:
REMARK  status: ('A' for Active; 'I' for Inactive)
REMARK    1  A    between atoms: O_2  and  C_22
REMARK    2  A    between atoms: O_2  and  C_29
REMARK    3  A    between atoms: O_3  and  C_24
REMARK    4  A    between atoms: O_3  and  C_30
REMARK    5  A    between atoms: N_5  and  C_15
REMARK    6  A    between atoms: C_9  and  C_16
REMARK    7  A    between atoms: C_10  and  C_15
REMARK    8  A    between atoms: C_18  and  C_21
REMARK    9  A    between atoms: C_19  and  C_22
REMARK   10  A    between atoms: C_20  and  C_23
REMARK                            x       y       z     vdW  Elec       q    Type
REMARK                         _______ _______ _______ _____ _____    ______ ____
ROOT
ATOM      4  N   UNL     1      12.326   9.946   5.761  0.00  0.00    -0.297 NA
ATOM      8  C   UNL     1      13.824   7.828   5.536  0.00  0.00    +0.002 C 
ATOM      9  C   UNL     1      12.854   7.939   4.327  0.00  0.00    +0.055 C 
ATOM     10  C   UNL     1      12.295   9.165   7.026  0.00  0.00    +0.074 C 
ATOM     11  C   UNL     1      13.007   7.807   6.845  0.00  0.00    +0.024 C 
ATOM     12  C   UNL     1      14.669   9.119   5.549  0.00  0.00    +0.019 C 
ATOM     13  C   UNL     1      11.866   9.100   4.631  0.00  0.00    +0.094 C 
ATOM     14  C   UNL     1      13.731  10.339   5.502  0.00  0.00    +0.085 C 
ENDROOT
BRANCH   9  16
ATOM      6  N   UNL     1      11.309   6.090   4.746  0.00  0.00    -0.237 NA
ATOM      7  N   UNL     1      10.832   4.412   3.084  0.00  0.00    -0.232 NA
ATOM     16  C   UNL     1      12.139   6.678   3.861  0.00  0.00    +0.050 A 
ATOM     17  C   UNL     1      12.365   6.200   2.586  0.00  0.00    +0.052 A 
ATOM     18  C   UNL     1      11.677   5.052   2.249  0.00  0.00    +0.078 A 
ATOM     20  C   UNL     1      10.697   4.977   4.299  0.00  0.00    +0.127 A 
ATOM     23  C   UNL     1       9.771   4.297   5.250  0.00  0.00    +0.088 C 
BRANCH  18  21
ATOM     21  C   UNL     1      11.826   4.450   0.946  0.00  0.00    +0.042 A 
ATOM     24  C   UNL     1      12.820   3.501   0.706  0.00  0.00    +0.129 A 
ATOM     25  C   UNL     1      10.959   4.826  -0.079  0.00  0.00    +0.013 A 
ATOM     26  C   UNL     1      12.948   2.930  -0.560  0.00  0.00    +0.046 A 
ATOM     27  C   UNL     1      11.087   4.255  -1.346  0.00  0.00    +0.001 A 
ATOM     28  C   UNL     1      12.081   3.306  -1.586  0.00  0.00    +0.004 A 
BRANCH  24   3
ATOM      3  O   UNL     1      13.682   3.114   1.690  0.00  0.00    -0.494 OA
ATOM     30  C   UNL     1      15.039   3.532   1.560  0.00  0.00    +0.277 C 
ENDBRANCH  24   3
ENDBRANCH  18  21
ENDBRANCH   9  16
BRANCH  10  15
ATOM     15  C   UNL     1      10.877   8.997   7.574  0.00  0.00    +0.123 C 
BRANCH  15   5
ATOM      1  O   UNL     1       8.291   7.701   7.591  0.00  0.00    -0.273 OA
ATOM      5  N   UNL     1      10.602   7.625   7.868  0.00  0.00    -0.312 N 
ATOM     19  C   UNL     1       9.318   7.081   7.852  0.00  0.00    +0.239 C 
ATOM     31  H   UNL     1      11.385   7.023   8.102  0.00  0.00    +0.149 HD
BRANCH  19  22
ATOM     22  C   UNL     1       9.319   5.606   8.200  0.00  0.00    +0.255 C 
BRANCH  22   2
ATOM      2  O   UNL     1      10.142   5.359   9.320  0.00  0.00    -0.374 OA
ATOM     29  C   UNL     1       9.510   4.501  10.265  0.00  0.00    +0.194 C 
ENDBRANCH  22   2
ENDBRANCH  19  22
ENDBRANCH  15   5
ENDBRANCH  10  15
TORSDOF 7
ENDMDL
MODEL 3
REMARK VINA RESULT:      -6.4     27.597     29.586
REMARK  Name = 40776909
REMARK  10 active torsions:
REMARK  status: ('A' for Active; 'I' for Inactive)
REMARK    1  A    between atoms: O_2  and  C_22
REMARK    2  A    between atoms: O_2  and  C_29
REMARK    3  A    between atoms: O_3  and  C_24
REMARK    4  A    between atoms: O_3  and  C_30
REMARK    5  A    between atoms: N_5  and  C_15
REMARK    6  A    between atoms: C_9  and  C_16
REMARK    7  A    between atoms: C_10  and  C_15
REMARK    8  A    between atoms: C_18  and  C_21
REMARK    9  A    between atoms: C_19  and  C_22
REMARK   10  A    between atoms: C_20  and  C_23
REMARK                            x       y       z     vdW  Elec       q    Type
REMARK                         _______ _______ _______ _____ _____    ______ ____
ROOT
ATOM      4  N   UNL     1      -6.893 -10.136  18.313  0.00  0.00    -0.297 NA
ATOM      8  C   UNL     1      -5.525 -12.352  18.334  0.00  0.00    +0.002 C 
ATOM      9  C   UNL     1      -4.922 -11.350  17.311  0.00  0.00    +0.055 C 
ATOM     10  C   UNL     1      -7.809 -11.301  18.184  0.00  0.00    +0.074 C 
ATOM     11  C   UNL     1      -7.008 -12.605  17.987  0.00  0.00    +0.024 C 
ATOM     12  C   UNL     1      -5.494 -11.655  19.710  0.00  0.00    +0.019 C 
ATOM     13  C   UNL     1      -5.901 -10.146  17.209  0.00  0.00    +0.094 C 
ATOM     14  C   UNL     1      -6.161 -10.273  19.595  0.00  0.00    +0.085 C 
ENDROOT
BRANCH   9  16
ATOM      6  N   UNL     1      -4.432 -13.219  15.811  0.00  0.00    -0.237 NA
ATOM      7  N   UNL     1      -3.781 -12.885  13.514  0.00  0.00    -0.232 NA
ATOM     16  C   UNL     1      -4.513 -11.879  15.943  0.00  0.00    +0.050 A 
ATOM     17  C   UNL     1      -4.248 -10.989  14.922  0.00  0.00    +0.052 A 
ATOM     18  C   UNL     1      -3.882 -11.555  13.717  0.00  0.00    +0.078 A 
ATOM     20  C   UNL     1      -4.066 -13.647  14.587  0.00  0.00    +0.127 A 
ATOM     23  C   UNL     1      -3.963 -15.124  14.402  0.00  0.00    +0.088 C 
BRANCH  18  21
ATOM     21  C   UNL     1      -3.577 -10.734  12.570  0.00  0.00    +0.042 A 
ATOM     24  C   UNL     1      -4.596 -10.193  11.786  0.00  0.00    +0.129 A 
ATOM     25  C   UNL     1      -2.243 -10.484  12.250  0.00  0.00    +0.013 A 
ATOM     26  C   UNL     1      -4.280  -9.402  10.682  0.00  0.00    +0.046 A 
ATOM     27  C   UNL     1      -1.927  -9.693  11.145  0.00  0.00    +0.001 A 
ATOM     28  C   UNL     1      -2.946  -9.151  10.361  0.00  0.00    +0.004 A 
BRANCH  24   3
ATOM      3  O   UNL     1      -5.909 -10.421  12.076  0.00  0.00    -0.494 OA
ATOM     30  C   UNL     1      -6.716  -9.280  12.357  0.00  0.00    +0.277 C 
ENDBRANCH  24   3
ENDBRANCH  18  21
ENDBRANCH   9  16
BRANCH  10  15
ATOM     15  C   UNL     1      -8.854 -11.101  17.085  0.00  0.00    +0.123 C 
BRANCH  15   5
ATOM      1  O   UNL     1      -9.035  -8.997  15.109  0.00  0.00    -0.273 OA
ATOM      5  N   UNL     1      -9.510  -9.838  17.227  0.00  0.00    -0.312 N 
ATOM     19  C   UNL     1      -9.549  -8.878  16.217  0.00  0.00    +0.239 C 
ATOM     31  H   UNL     1      -9.966  -9.637  18.112  0.00  0.00    +0.149 HD
BRANCH  19  22
ATOM     22  C   UNL     1     -10.310  -7.638  16.638  0.00  0.00    +0.255 C 
BRANCH  22   2
ATOM      2  O   UNL     1     -10.124  -6.597  15.702  0.00  0.00    -0.374 OA
ATOM     29  C   UNL     1     -11.343  -5.921  15.409  0.00  0.00    +0.194 C 
ENDBRANCH  22   2
ENDBRANCH  19  22
ENDBRANCH  15   5
ENDBRANCH  10  15
TORSDOF 7
ENDMDL
MODEL 4
REMARK VINA RESULT:      -6.3     26.471     29.830
REMARK  Name = 40776909
REMARK  10 active torsions:
REMARK  status: ('A' for Active; 'I' for Inactive)
REMARK    1  A    between atoms: O_2  and  C_22
REMARK    2  A    between atoms: O_2  and  C_29
REMARK    3  A    between atoms: O_3  and  C_24
REMARK    4  A    between atoms: O_3  and  C_30
REMARK    5  A    between atoms: N_5  and  C_15
REMARK    6  A    between atoms: C_9  and  C_16
REMARK    7  A    between atoms: C_10  and  C_15
REMARK    8  A    between atoms: C_18  and  C_21
REMARK    9  A    between atoms: C_19  and  C_22
REMARK   10  A    between atoms: C_20  and  C_23
REMARK                            x       y       z     vdW  Elec       q    Type
REMARK                         _______ _______ _______ _____ _____    ______ ____
ROOT
ATOM      4  N   UNL     1      -7.505 -11.707  17.462  0.00  0.00    -0.297 NA
ATOM      8  C   UNL     1      -5.154 -10.971  18.307  0.00  0.00    +0.002 C 
ATOM      9  C   UNL     1      -5.415 -10.419  16.878  0.00  0.00    +0.055 C 
ATOM     10  C   UNL     1      -6.760 -12.884  17.982  0.00  0.00    +0.074 C 
ATOM     11  C   UNL     1      -5.296 -12.507  18.296  0.00  0.00    +0.024 C 
ATOM     12  C   UNL     1      -6.278 -10.419  19.210  0.00  0.00    +0.019 C 
ATOM     13  C   UNL     1      -6.736 -11.063  16.368  0.00  0.00    +0.094 C 
ATOM     14  C   UNL     1      -7.642 -10.730  18.569  0.00  0.00    +0.085 C 
ENDROOT
BRANCH   9  16
ATOM      6  N   UNL     1      -3.033 -10.410  16.325  0.00  0.00    -0.237 NA
ATOM      7  N   UNL     1      -2.238 -10.678  14.065  0.00  0.00    -0.232 NA
ATOM     16  C   UNL     1      -4.292 -10.516  15.855  0.00  0.00    +0.050 A 
ATOM     17  C   UNL     1      -4.602 -10.702  14.523  0.00  0.00    +0.052 A 
ATOM     18  C   UNL     1      -3.523 -10.776  13.664  0.00  0.00    +0.078 A 
ATOM     20  C   UNL     1      -2.068 -10.498  15.389  0.00  0.00    +0.127 A 
ATOM     23  C   UNL     1      -0.661 -10.384  15.870  0.00  0.00    +0.088 C 
BRANCH  18  21
ATOM     21  C   UNL     1      -3.711 -10.968  12.247  0.00  0.00    +0.042 A 
ATOM     24  C   UNL     1      -3.785 -12.250  11.701  0.00  0.00    +0.129 A 
ATOM     25  C   UNL     1      -3.819  -9.851  11.419  0.00  0.00    +0.013 A 
ATOM     26  C   UNL     1      -3.966 -12.414  10.328  0.00  0.00    +0.046 A 
ATOM     27  C   UNL     1      -4.000 -10.015  10.045  0.00  0.00    +0.001 A 
ATOM     28  C   UNL     1      -4.074 -11.297   9.500  0.00  0.00    +0.004 A 
BRANCH  24   3
ATOM      3  O   UNL     1      -3.682 -13.360  12.487  0.00  0.00    -0.494 OA
ATOM     30  C   UNL     1      -2.526 -14.175  12.303  0.00  0.00    +0.277 C 
ENDBRANCH  24   3
ENDBRANCH  18  21
ENDBRANCH   9  16
BRANCH  10  15
ATOM     15  C   UNL     1      -6.851 -14.092  17.048  0.00  0.00    +0.123 C 
BRANCH  15   5
ATOM      1  O   UNL     1      -4.839 -15.048  15.203  0.00  0.00    -0.273 OA
ATOM      5  N   UNL     1      -5.805 -15.029  17.321  0.00  0.00    -0.312 N 
ATOM     19  C   UNL     1      -4.873 -15.436  16.367  0.00  0.00    +0.239 C 
ATOM     31  H   UNL     1      -5.748 -15.415  18.258  0.00  0.00    +0.149 HD
BRANCH  19  22
ATOM     22  C   UNL     1      -3.881 -16.433  16.928  0.00  0.00    +0.255 C 
BRANCH  22   2
ATOM      2  O   UNL     1      -3.343 -17.234  15.898  0.00  0.00    -0.374 OA
ATOM     29  C   UNL     1      -1.946 -17.012  15.727  0.00  0.00    +0.194 C 
ENDBRANCH  22   2
ENDBRANCH  19  22
ENDBRANCH  15   5
ENDBRANCH  10  15
TORSDOF 7
ENDMDL
MODEL 5
REMARK VINA RESULT:      -6.3     26.149     28.867
REMARK  Name = 40776909
REMARK  10 active torsions:
REMARK  status: ('A' for Active; 'I' for Inactive)
REMARK    1  A    between atoms: O_2  and  C_22
REMARK    2  A    between atoms: O_2  and  C_29
REMARK    3  A    between atoms: O_3  and  C_24
REMARK    4  A    between atoms: O_3  and  C_30
REMARK    5  A    between atoms: N_5  and  C_15
REMARK    6  A    between atoms: C_9  and  C_16
REMARK    7  A    between atoms: C_10  and  C_15
REMARK    8  A    between atoms: C_18  and  C_21
REMARK    9  A    between atoms: C_19  and  C_22
REMARK   10  A    between atoms: C_20  and  C_23
REMARK                            x       y       z     vdW  Elec       q    Type
REMARK                         _______ _______ _______ _____ _____    ______ ____
ROOT
ATOM      4  N   UNL     1      -5.790 -11.304  10.723  0.00  0.00    -0.297 NA
ATOM      8  C   UNL     1      -3.292 -11.667  11.361  0.00  0.00    +0.002 C 
ATOM      9  C   UNL     1      -4.212 -11.971  12.575  0.00  0.00    +0.055 C 
ATOM     10  C   UNL     1      -4.986 -10.119  10.323  0.00  0.00    +0.074 C 
ATOM     11  C   UNL     1      -3.548 -10.225  10.875  0.00  0.00    +0.024 C 
ATOM     12  C   UNL     1      -3.728 -12.614  10.223  0.00  0.00    +0.019 C 
ATOM     13  C   UNL     1      -5.654 -11.540  12.182  0.00  0.00    +0.094 C 
ATOM     14  C   UNL     1      -5.247 -12.485  10.011  0.00  0.00    +0.085 C 
ENDROOT
BRANCH   9  16
ATOM      6  N   UNL     1      -2.544 -10.962  14.052  0.00  0.00    -0.237 NA
ATOM      7  N   UNL     1      -3.007 -10.468  16.365  0.00  0.00    -0.232 NA
ATOM     16  C   UNL     1      -3.801 -11.436  13.940  0.00  0.00    +0.050 A 
ATOM     17  C   UNL     1      -4.708 -11.459  14.980  0.00  0.00    +0.052 A 
ATOM     18  C   UNL     1      -4.252 -10.958  16.182  0.00  0.00    +0.078 A 
ATOM     20  C   UNL     1      -2.218 -10.501  15.274  0.00  0.00    +0.127 A 
ATOM     23  C   UNL     1      -0.833  -9.969  15.438  0.00  0.00    +0.088 C 
BRANCH  18  21
ATOM     21  C   UNL     1      -5.101 -10.926  17.348  0.00  0.00    +0.042 A 
ATOM     24  C   UNL     1      -6.268 -10.162  17.362  0.00  0.00    +0.129 A 
ATOM     25  C   UNL     1      -4.743 -11.673  18.469  0.00  0.00    +0.013 A 
ATOM     26  C   UNL     1      -7.076 -10.145  18.499  0.00  0.00    +0.046 A 
ATOM     27  C   UNL     1      -5.550 -11.656  19.607  0.00  0.00    +0.001 A 
ATOM     28  C   UNL     1      -6.717 -10.891  19.622  0.00  0.00    +0.004 A 
BRANCH  24   3
ATOM      3  O   UNL     1      -6.643  -9.421  16.280  0.00  0.00    -0.494 OA
ATOM     30  C   UNL     1      -7.913  -9.717  15.705  0.00  0.00    +0.277 C 
ENDBRANCH  24   3
ENDBRANCH  18  21
ENDBRANCH   9  16
BRANCH  10  15
ATOM     15  C   UNL     1      -5.653  -8.800  10.719  0.00  0.00    +0.123 C 
BRANCH  15   5
ATOM      1  O   UNL     1      -8.480  -9.120  10.200  0.00  0.00    -0.273 OA
ATOM      5  N   UNL     1      -6.397  -8.256   9.625  0.00  0.00    -0.312 N 
ATOM     19  C   UNL     1      -7.765  -8.461   9.452  0.00  0.00    +0.239 C 
ATOM     31  H   UNL     1      -5.895  -7.695   8.943  0.00  0.00    +0.149 HD
BRANCH  19  22
ATOM     22  C   UNL     1      -8.293  -7.770   8.212  0.00  0.00    +0.255 C 
BRANCH  22   2
ATOM      2  O   UNL     1      -7.916  -6.409   8.202  0.00  0.00    -0.374 OA
ATOM     29  C   UNL     1      -9.030  -5.547   8.413  0.00  0.00    +0.194 C 
ENDBRANCH  22   2
ENDBRANCH  19  22
ENDBRANCH  15   5
ENDBRANCH  10  15
TORSDOF 7
ENDMDL
MODEL 6
REMARK VINA RESULT:      -6.2     14.455     19.217
REMARK  Name = 40776909
REMARK  10 active torsions:
REMARK  status: ('A' for Active; 'I' for Inactive)
REMARK    1  A    between atoms: O_2  and  C_22
REMARK    2  A    between atoms: O_2  and  C_29
REMARK    3  A    between atoms: O_3  and  C_24
REMARK    4  A    between atoms: O_3  and  C_30
REMARK    5  A    between atoms: N_5  and  C_15
REMARK    6  A    between atoms: C_9  and  C_16
REMARK    7  A    between atoms: C_10  and  C_15
REMARK    8  A    between atoms: C_18  and  C_21
REMARK    9  A    between atoms: C_19  and  C_22
REMARK   10  A    between atoms: C_20  and  C_23
REMARK                            x       y       z     vdW  Elec       q    Type
REMARK                         _______ _______ _______ _____ _____    ______ ____
ROOT
ATOM      4  N   UNL     1      10.156   6.904   7.371  0.00  0.00    -0.297 NA
ATOM      8  C   UNL     1       9.559   5.086   5.603  0.00  0.00    +0.002 C 
ATOM      9  C   UNL     1      10.887   5.798   5.224  0.00  0.00    +0.055 C 
ATOM     10  C   UNL     1       8.745   7.068   6.928  0.00  0.00    +0.074 C 
ATOM     11  C   UNL     1       8.437   6.136   5.737  0.00  0.00    +0.024 C 
ATOM     12  C   UNL     1       9.770   4.468   7.002  0.00  0.00    +0.019 C 
ATOM     13  C   UNL     1      11.068   6.993   6.203  0.00  0.00    +0.094 C 
ATOM     14  C   UNL     1      10.292   5.551   7.962  0.00  0.00    +0.085 C 
ENDROOT
BRANCH   9  16
ATOM      6  N   UNL     1      10.966   7.516   3.485  0.00  0.00    -0.237 NA
ATOM      7  N   UNL     1      11.452   6.992   1.183  0.00  0.00    -0.232 NA
ATOM     16  C   UNL     1      11.094   6.205   3.771  0.00  0.00    +0.050 A 
ATOM     17  C   UNL     1      11.396   5.239   2.832  0.00  0.00    +0.052 A 
ATOM     18  C   UNL     1      11.565   5.696   1.541  0.00  0.00    +0.078 A 
ATOM     20  C   UNL     1      11.155   7.836   2.190  0.00  0.00    +0.127 A 
ATOM     23  C   UNL     1      11.020   9.278   1.833  0.00  0.00    +0.088 C 
BRANCH  18  21
ATOM     21  C   UNL     1      11.881   4.788   0.465  0.00  0.00    +0.042 A 
ATOM     24  C   UNL     1      10.910   4.415  -0.465  0.00  0.00    +0.129 A 
ATOM     25  C   UNL     1      13.177   4.283   0.361  0.00  0.00    +0.013 A 
ATOM     26  C   UNL     1      11.236   3.536  -1.498  0.00  0.00    +0.046 A 
ATOM     27  C   UNL     1      13.503   3.404  -0.673  0.00  0.00    +0.001 A 
ATOM     28  C   UNL     1      12.532   3.031  -1.603  0.00  0.00    +0.004 A 
BRANCH  24   3
ATOM      3  O   UNL     1       9.635   4.893  -0.388  0.00  0.00    -0.494 OA
ATOM     30  C   UNL     1       9.135   5.585  -1.529  0.00  0.00    +0.277 C 
ENDBRANCH  24   3
ENDBRANCH  18  21
ENDBRANCH   9  16
BRANCH  10  15
ATOM     15  C   UNL     1       8.398   8.525   6.618  0.00  0.00    +0.123 C 
BRANCH  15   5
ATOM      1  O   UNL     1       8.979  10.369   4.466  0.00  0.00    -0.273 OA
ATOM      5  N   UNL     1       7.716   8.632   5.365  0.00  0.00    -0.312 N 
ATOM     19  C   UNL     1       8.065   9.554   4.379  0.00  0.00    +0.239 C 
ATOM     31  H   UNL     1       6.937   8.003   5.193  0.00  0.00    +0.149 HD
BRANCH  19  22
ATOM     22  C   UNL     1       7.177   9.447   3.156  0.00  0.00    +0.255 C 
BRANCH  22   2
ATOM      2  O   UNL     1       5.840   9.761   3.483  0.00  0.00    -0.374 OA
ATOM     29  C   UNL     1       5.214  10.538   2.466  0.00  0.00    +0.194 C 
ENDBRANCH  22   2
ENDBRANCH  19  22
ENDBRANCH  15   5
ENDBRANCH  10  15
TORSDOF 7
ENDMDL
MODEL 7
REMARK VINA RESULT:      -6.2     13.704     17.750
REMARK  Name = 40776909
REMARK  10 active torsions:
REMARK  status: ('A' for Active; 'I' for Inactive)
REMARK    1  A    between atoms: O_2  and  C_22
REMARK    2  A    between atoms: O_2  and  C_29
REMARK    3  A    between atoms: O_3  and  C_24
REMARK    4  A    between atoms: O_3  and  C_30
REMARK    5  A    between atoms: N_5  and  C_15
REMARK    6  A    between atoms: C_9  and  C_16
REMARK    7  A    between atoms: C_10  and  C_15
REMARK    8  A    between atoms: C_18  and  C_21
REMARK    9  A    between atoms: C_19  and  C_22
REMARK   10  A    between atoms: C_20  and  C_23
REMARK                            x       y       z     vdW  Elec       q    Type
REMARK                         _______ _______ _______ _____ _____    ______ ____
ROOT
ATOM      4  N   UNL     1      17.842  -2.862  32.258  0.00  0.00    -0.297 NA
ATOM      8  C   UNL     1      16.575  -2.974  29.986  0.00  0.00    +0.002 C 
ATOM      9  C   UNL     1      18.090  -3.251  29.778  0.00  0.00    +0.055 C 
ATOM     10  C   UNL     1      16.992  -1.654  32.089  0.00  0.00    +0.074 C 
ATOM     11  C   UNL     1      16.396  -1.602  30.667  0.00  0.00    +0.024 C 
ATOM     12  C   UNL     1      16.059  -4.041  30.974  0.00  0.00    +0.019 C 
ATOM     13  C   UNL     1      18.802  -2.969  31.132  0.00  0.00    +0.094 C 
ATOM     14  C   UNL     1      16.956  -4.050  32.225  0.00  0.00    +0.085 C 
ENDROOT
BRANCH   9  16
ATOM      6  N   UNL     1      19.920  -1.898  28.883  0.00  0.00    -0.237 NA
ATOM      7  N   UNL     1      20.085  -1.347  26.543  0.00  0.00    -0.232 NA
ATOM     16  C   UNL     1      18.789  -2.578  28.605  0.00  0.00    +0.050 A 
ATOM     17  C   UNL     1      18.251  -2.687  27.340  0.00  0.00    +0.052 A 
ATOM     18  C   UNL     1      18.947  -2.044  26.337  0.00  0.00    +0.078 A 
ATOM     20  C   UNL     1      20.508  -1.315  27.821  0.00  0.00    +0.127 A 
ATOM     23  C   UNL     1      21.761  -0.552  28.089  0.00  0.00    +0.088 C 
BRANCH  18  21
ATOM     21  C   UNL     1      18.489  -2.080  24.969  0.00  0.00    +0.042 A 
ATOM     24  C   UNL     1      18.866  -3.117  24.115  0.00  0.00    +0.129 A 
ATOM     25  C   UNL     1      17.658  -1.061  24.505  0.00  0.00    +0.013 A 
ATOM     26  C   UNL     1      18.412  -3.133  22.796  0.00  0.00    +0.046 A 
ATOM     27  C   UNL     1      17.205  -1.077  23.185  0.00  0.00    +0.001 A 
ATOM     28  C   UNL     1      17.581  -2.114  22.331  0.00  0.00    +0.004 A 
BRANCH  24   3
ATOM      3  O   UNL     1      19.677  -4.126  24.542  0.00  0.00    -0.494 OA
ATOM     30  C   UNL     1      20.003  -5.138  23.592  0.00  0.00    +0.277 C 
ENDBRANCH  24   3
ENDBRANCH  18  21
ENDBRANCH   9  16
BRANCH  10  15
ATOM     15  C   UNL     1      17.734  -0.364  32.445  0.00  0.00    +0.123 C 
BRANCH  15   5
ATOM      1  O   UNL     1      18.357   2.399  33.034  0.00  0.00    -0.273 OA
ATOM      5  N   UNL     1      16.940   0.784  32.137  0.00  0.00    -0.312 N 
ATOM     19  C   UNL     1      17.318   2.087  32.458  0.00  0.00    +0.239 C 
ATOM     31  H   UNL     1      16.054   0.635  31.662  0.00  0.00    +0.149 HD
BRANCH  19  22
ATOM     22  C   UNL     1      16.290   3.107  32.015  0.00  0.00    +0.255 C 
BRANCH  22   2
ATOM      2  O   UNL     1      16.796   4.417  32.156  0.00  0.00    -0.374 OA
ATOM     29  C   UNL     1      16.899   5.085  30.901  0.00  0.00    +0.194 C 
ENDBRANCH  22   2
ENDBRANCH  19  22
ENDBRANCH  15   5
ENDBRANCH  10  15
TORSDOF 7
ENDMDL
MODEL 8
REMARK VINA RESULT:      -6.1     14.768     17.674
REMARK  Name = 40776909
REMARK  10 active torsions:
REMARK  status: ('A' for Active; 'I' for Inactive)
REMARK    1  A    between atoms: O_2  and  C_22
REMARK    2  A    between atoms: O_2  and  C_29
REMARK    3  A    between atoms: O_3  and  C_24
REMARK    4  A    between atoms: O_3  and  C_30
REMARK    5  A    between atoms: N_5  and  C_15
REMARK    6  A    between atoms: C_9  and  C_16
REMARK    7  A    between atoms: C_10  and  C_15
REMARK    8  A    between atoms: C_18  and  C_21
REMARK    9  A    between atoms: C_19  and  C_22
REMARK   10  A    between atoms: C_20  and  C_23
REMARK                            x       y       z     vdW  Elec       q    Type
REMARK                         _______ _______ _______ _____ _____    ______ ____
ROOT
ATOM      4  N   UNL     1      18.229  -2.800  22.905  0.00  0.00    -0.297 NA
ATOM      8  C   UNL     1      16.795  -1.888  24.878  0.00  0.00    +0.002 C 
ATOM      9  C   UNL     1      18.284  -2.012  25.301  0.00  0.00    +0.055 C 
ATOM     10  C   UNL     1      17.035  -3.663  23.107  0.00  0.00    +0.074 C 
ATOM     11  C   UNL     1      16.285  -3.262  24.395  0.00  0.00    +0.024 C 
ATOM     12  C   UNL     1      16.755  -0.937  23.662  0.00  0.00    +0.019 C 
ATOM     13  C   UNL     1      19.032  -2.746  24.152  0.00  0.00    +0.094 C 
ATOM     14  C   UNL     1      17.755  -1.429  22.601  0.00  0.00    +0.085 C 
ENDROOT
BRANCH   9  16
ATOM      6  N   UNL     1      19.805  -3.184  26.816  0.00  0.00    -0.237 NA
ATOM      7  N   UNL     1      19.207  -3.697  29.094  0.00  0.00    -0.232 NA
ATOM     16  C   UNL     1      18.595  -2.608  26.667  0.00  0.00    +0.050 A 
ATOM     17  C   UNL     1      17.651  -2.536  27.671  0.00  0.00    +0.052 A 
ATOM     18  C   UNL     1      18.015  -3.104  28.875  0.00  0.00    +0.078 A 
ATOM     20  C   UNL     1      20.042  -3.701  28.037  0.00  0.00    +0.127 A 
ATOM     23  C   UNL     1      21.370  -4.350  28.240  0.00  0.00    +0.088 C 
BRANCH  18  21
ATOM     21  C   UNL     1      17.117  -3.097  30.004  0.00  0.00    +0.042 A 
ATOM     24  C   UNL     1      17.102  -2.028  30.901  0.00  0.00    +0.129 A 
ATOM     25  C   UNL     1      16.255  -4.177  30.193  0.00  0.00    +0.013 A 
ATOM     26  C   UNL     1      16.226  -2.040  31.986  0.00  0.00    +0.046 A 
ATOM     27  C   UNL     1      15.380  -4.190  31.280  0.00  0.00    +0.001 A 
ATOM     28  C   UNL     1      15.365  -3.121  32.176  0.00  0.00    +0.004 A 
BRANCH  24   3
ATOM      3  O   UNL     1      17.933  -0.959  30.740  0.00  0.00    -0.494 OA
ATOM     30  C   UNL     1      17.869   0.063  31.733  0.00  0.00    +0.277 C 
ENDBRANCH  24   3
ENDBRANCH  18  21
ENDBRANCH   9  16
BRANCH  10  15
ATOM     15  C   UNL     1      17.381  -5.153  23.089  0.00  0.00    +0.123 C 
BRANCH  15   5
ATOM      1  O   UNL     1      19.519  -6.106  24.789  0.00  0.00    -0.273 OA
ATOM      5  N   UNL     1      17.256  -5.722  24.395  0.00  0.00    -0.312 N 
ATOM     19  C   UNL     1      18.346  -6.157  25.148  0.00  0.00    +0.239 C 
ATOM     31  H   UNL     1      16.324  -5.814  24.785  0.00  0.00    +0.149 HD
BRANCH  19  22
ATOM     22  C   UNL     1      17.925  -6.715  26.492  0.00  0.00    +0.255 C 
BRANCH  22   2
ATOM      2  O   UNL     1      16.859  -5.963  27.032  0.00  0.00    -0.374 OA
ATOM     29  C   UNL     1      15.822  -6.799  27.537  0.00  0.00    +0.194 C 
ENDBRANCH  22   2
ENDBRANCH  19  22
ENDBRANCH  15   5
ENDBRANCH  10  15
TORSDOF 7
ENDMDL
MODEL 9
REMARK VINA RESULT:      -5.9     14.747     17.331
REMARK  Name = 40776909
REMARK  10 active torsions:
REMARK  status: ('A' for Active; 'I' for Inactive)
REMARK    1  A    between atoms: O_2  and  C_22
REMARK    2  A    between atoms: O_2  and  C_29
REMARK    3  A    between atoms: O_3  and  C_24
REMARK    4  A    between atoms: O_3  and  C_30
REMARK    5  A    between atoms: N_5  and  C_15
REMARK    6  A    between atoms: C_9  and  C_16
REMARK    7  A    between atoms: C_10  and  C_15
REMARK    8  A    between atoms: C_18  and  C_21
REMARK    9  A    between atoms: C_19  and  C_22
REMARK   10  A    between atoms: C_20  and  C_23
REMARK                            x       y       z     vdW  Elec       q    Type
REMARK                         _______ _______ _______ _____ _____    ______ ____
ROOT
ATOM      4  N   UNL     1      18.207  -3.118  22.977  0.00  0.00    -0.297 NA
ATOM      8  C   UNL     1      16.847  -1.821  24.780  0.00  0.00    +0.002 C 
ATOM      9  C   UNL     1      18.347  -1.893  25.178  0.00  0.00    +0.055 C 
ATOM     10  C   UNL     1      17.007  -3.903  23.371  0.00  0.00    +0.074 C 
ATOM     11  C   UNL     1      16.303  -3.251  24.580  0.00  0.00    +0.024 C 
ATOM     12  C   UNL     1      16.784  -1.117  23.408  0.00  0.00    +0.019 C 
ATOM     13  C   UNL     1      19.049  -2.845  24.169  0.00  0.00    +0.094 C 
ATOM     14  C   UNL     1      17.743  -1.820  22.432  0.00  0.00    +0.085 C 
ENDROOT
BRANCH   9  16
ATOM      6  N   UNL     1      19.998  -2.209  26.955  0.00  0.00    -0.237 NA
ATOM      7  N   UNL     1      19.369  -2.821  29.199  0.00  0.00    -0.232 NA
ATOM     16  C   UNL     1      18.691  -2.227  26.623  0.00  0.00    +0.050 A 
ATOM     17  C   UNL     1      17.678  -2.528  27.511  0.00  0.00    +0.052 A 
ATOM     18  C   UNL     1      18.080  -2.820  28.798  0.00  0.00    +0.078 A 
ATOM     20  C   UNL     1      20.262  -2.511  28.240  0.00  0.00    +0.127 A 
ATOM     23  C   UNL     1      21.698  -2.503  28.645  0.00  0.00    +0.088 C 
BRANCH  18  21
ATOM     21  C   UNL     1      17.119  -3.153  29.822  0.00  0.00    +0.042 A 
ATOM     24  C   UNL     1      16.751  -2.217  30.789  0.00  0.00    +0.129 A 
ATOM     25  C   UNL     1      16.555  -4.428  29.836  0.00  0.00    +0.013 A 
ATOM     26  C   UNL     1      15.821  -2.558  31.770  0.00  0.00    +0.046 A 
ATOM     27  C   UNL     1      15.624  -4.769  30.818  0.00  0.00    +0.001 A 
ATOM     28  C   UNL     1      15.257  -3.833  31.785  0.00  0.00    +0.004 A 
BRANCH  24   3
ATOM      3  O   UNL     1      17.287  -0.963  30.800  0.00  0.00    -0.494 OA
ATOM     30  C   UNL     1      17.155  -0.216  32.007  0.00  0.00    +0.277 C 
ENDBRANCH  24   3
ENDBRANCH  18  21
ENDBRANCH   9  16
BRANCH  10  15
ATOM     15  C   UNL     1      17.332  -5.376  23.625  0.00  0.00    +0.123 C 
BRANCH  15   5
ATOM      1  O   UNL     1      19.764  -6.867  24.103  0.00  0.00    -0.273 OA
ATOM      5  N   UNL     1      18.245  -5.875  22.644  0.00  0.00    -0.312 N 
ATOM     19  C   UNL     1      19.400  -6.588  22.964  0.00  0.00    +0.239 C 
ATOM     31  H   UNL     1      18.038  -5.693  21.667  0.00  0.00    +0.149 HD
BRANCH  19  22
ATOM     22  C   UNL     1      20.181  -6.994  21.731  0.00  0.00    +0.255 C 
BRANCH  22   2
ATOM      2  O   UNL     1      19.883  -6.138  20.649  0.00  0.00    -0.374 OA
ATOM     29  C   UNL     1      19.387  -6.857  19.524  0.00  0.00    +0.194 C 
ENDBRANCH  22   2
ENDBRANCH  19  22
ENDBRANCH  15   5
ENDBRANCH  10  15
TORSDOF 7
ENDMDL
MODEL 10
REMARK VINA RESULT:      -5.7     28.713     31.212
REMARK  Name = 40776909
REMARK  10 active torsions:
REMARK  status: ('A' for Active; 'I' for Inactive)
REMARK    1  A    between atoms: O_2  and  C_22
REMARK    2  A    between atoms: O_2  and  C_29
REMARK    3  A    between atoms: O_3  and  C_24
REMARK    4  A    between atoms: O_3  and  C_30
REMARK    5  A    between atoms: N_5  and  C_15
REMARK    6  A    between atoms: C_9  and  C_16
REMARK    7  A    between atoms: C_10  and  C_15
REMARK    8  A    between atoms: C_18  and  C_21
REMARK    9  A    between atoms: C_19  and  C_22
REMARK   10  A    between atoms: C_20  and  C_23
REMARK                            x       y       z     vdW  Elec       q    Type
REMARK                         _______ _______ _______ _____ _____    ______ ____
ROOT
ATOM      4  N   UNL     1      -5.472 -11.790  16.996  0.00  0.00    -0.297 NA
ATOM      8  C   UNL     1      -6.103 -11.397  19.492  0.00  0.00    +0.002 C 
ATOM      9  C   UNL     1      -6.939 -12.564  18.897  0.00  0.00    +0.055 C 
ATOM     10  C   UNL     1      -5.752 -10.349  17.229  0.00  0.00    +0.074 C 
ATOM     11  C   UNL     1      -6.325 -10.127  18.644  0.00  0.00    +0.024 C 
ATOM     12  C   UNL     1      -4.618 -11.790  19.339  0.00  0.00    +0.019 C 
ATOM     13  C   UNL     1      -6.656 -12.604  17.368  0.00  0.00    +0.094 C 
ATOM     14  C   UNL     1      -4.346 -12.183  17.877  0.00  0.00    +0.085 C 
ENDROOT
BRANCH   9  16
ATOM      6  N   UNL     1      -8.803 -13.391  20.247  0.00  0.00    -0.237 NA
ATOM      7  N   UNL     1     -11.085 -12.745  19.818  0.00  0.00    -0.232 NA
ATOM     16  C   UNL     1      -8.428 -12.614  19.211  0.00  0.00    +0.050 A 
ATOM     17  C   UNL     1      -9.309 -11.882  18.442  0.00  0.00    +0.052 A 
ATOM     18  C   UNL     1     -10.639 -11.987  18.794  0.00  0.00    +0.078 A 
ATOM     20  C   UNL     1     -10.127 -13.411  20.492  0.00  0.00    +0.127 A 
ATOM     23  C   UNL     1     -10.582 -14.261  21.630  0.00  0.00    +0.088 C 
BRANCH  18  21
ATOM     21  C   UNL     1     -11.662 -11.273  18.069  0.00  0.00    +0.042 A 
ATOM     24  C   UNL     1     -12.349 -10.212  18.659  0.00  0.00    +0.129 A 
ATOM     25  C   UNL     1     -11.959 -11.656  16.762  0.00  0.00    +0.013 A 
ATOM     26  C   UNL     1     -13.334  -9.534  17.941  0.00  0.00    +0.046 A 
ATOM     27  C   UNL     1     -12.945 -10.978  16.043  0.00  0.00    +0.001 A 
ATOM     28  C   UNL     1     -13.632  -9.917  16.633  0.00  0.00    +0.004 A 
BRANCH  24   3
ATOM      3  O   UNL     1     -12.079  -9.817  19.936  0.00  0.00    -0.494 OA
ATOM     30  C   UNL     1     -13.196  -9.610  20.797  0.00  0.00    +0.277 C 
ENDBRANCH  24   3
ENDBRANCH  18  21
ENDBRANCH   9  16
BRANCH  10  15
ATOM     15  C   UNL     1      -6.652  -9.748  16.148  0.00  0.00    +0.123 C 
BRANCH  15   5
ATOM      1  O   UNL     1      -9.445  -9.608  15.407  0.00  0.00    -0.273 OA
ATOM      5  N   UNL     1      -7.658  -8.912  16.727  0.00  0.00    -0.312 N 
ATOM     19  C   UNL     1      -8.987  -8.909  16.307  0.00  0.00    +0.239 C 
ATOM     31  H   UNL     1      -7.381  -8.289  17.480  0.00  0.00    +0.149 HD
BRANCH  19  22
ATOM     22  C   UNL     1      -9.833  -7.929  17.093  0.00  0.00    +0.255 C 
BRANCH  22   2
ATOM      2  O   UNL     1     -10.952  -7.518  16.337  0.00  0.00    -0.374 OA
ATOM     29  C   UNL     1     -10.771  -6.218  15.784  0.00  0.00    +0.194 C 
ENDBRANCH  22   2
ENDBRANCH  19  22
ENDBRANCH  15   5
ENDBRANCH  10  15
TORSDOF 7
ENDMDL
