MODEL 1
REMARK VINA RESULT:      -6.5      0.000      0.000
REMARK  Name = 25390434
REMARK  8 active torsions:
REMARK  status: ('A' for Active; 'I' for Inactive)
REMARK    1  A    between atoms: O_2  and  C_13
REMARK    2  A    between atoms: O_3  and  C_14
REMARK    3  A    between atoms: N_7  and  C_9
REMARK    4  A    between atoms: N_8  and  C_17
REMARK    5  A    between atoms: C_10  and  C_16
REMARK    6  A    between atoms: C_15  and  C_17
REMARK    7  A    between atoms: C_16  and  C_18
REMARK    8  A    between atoms: C_19  and  C_20
REMARK                            x       y       z     vdW  Elec       q    Type
REMARK                         _______ _______ _______ _____ _____    ______ ____
ROOT
ATOM      1  O   UNL     1      13.305   8.725  19.628  0.00  0.00    -0.366 OA
ATOM     10  C   UNL     1      11.867   8.706  19.645  0.00  0.00    +0.158 C 
ATOM     13  C   UNL     1      11.482   7.503  20.488  0.00  0.00    +0.175 C 
ATOM     14  C   UNL     1      12.577   7.502  21.534  0.00  0.00    +0.176 C 
ATOM     15  C   UNL     1      13.798   7.909  20.716  0.00  0.00    +0.167 C 
ENDROOT
BRANCH  13   2
ATOM      2  O   UNL     1      10.187   7.631  21.033  0.00  0.00    -0.387 OA
ATOM     25  H   UNL     1      10.002   8.582  21.125  0.00  0.00    +0.210 HD
ENDBRANCH  13   2
BRANCH  14   3
ATOM      3  O   UNL     1      12.335   8.520  22.505  0.00  0.00    -0.387 OA
ATOM     26  H   UNL     1      12.512   9.376  22.080  0.00  0.00    +0.210 HD
ENDBRANCH  14   3
BRANCH  10  16
ATOM     16  C   UNL     1      11.341   8.638  18.221  0.00  0.00    +0.130 C 
BRANCH  16  18
ATOM      4  O   UNL     1      13.002   7.647  16.764  0.00  0.00    -0.276 OA
ATOM      7  N   UNL     1      12.759   9.955  16.795  0.00  0.00    -0.312 N 
ATOM     18  C   UNL     1      12.452   8.660  17.189  0.00  0.00    +0.216 C 
ATOM     24  H   UNL     1      12.268  10.742  17.210  0.00  0.00    +0.149 HD
BRANCH   7   9
ATOM      9  C   UNL     1      13.777  10.246  15.826  0.00  0.00    +0.073 C 
ATOM     11  C   UNL     1      14.024  11.650  15.358  0.00  0.00    +0.024 C 
ATOM     12  C   UNL     1      15.041  10.955  16.216  0.00  0.00    +0.024 C 
ENDBRANCH   7   9
ENDBRANCH  16  18
ENDBRANCH  10  16
BRANCH  15  17
ATOM     17  C   UNL     1      14.533   6.722  20.112  0.00  0.00    +0.138 C 
BRANCH  17   8
ATOM      5  O   UNL     1      16.745   5.618  18.650  0.00  0.00    -0.267 OA
ATOM      8  N   UNL     1      15.906   6.696  20.526  0.00  0.00    -0.306 N 
ATOM     19  C   UNL     1      16.918   6.138  19.750  0.00  0.00    +0.279 C 
ATOM     27  H   UNL     1      16.143   7.105  21.425  0.00  0.00    +0.149 HD
BRANCH  19  20
ATOM      6  O   UNL     1      18.552   7.107  21.276  0.00  0.00    -0.458 OA
ATOM     20  C   UNL     1      18.284   6.167  20.332  0.00  0.00    +0.189 A 
ATOM     21  C   UNL     1      19.393   5.389  20.095  0.00  0.00    +0.054 A 
ATOM     22  C   UNL     1      20.409   5.883  20.949  0.00  0.00    +0.042 A 
ATOM     23  C   UNL     1      19.848   6.927  21.646  0.00  0.00    +0.196 A 
ENDBRANCH  19  20
ENDBRANCH  17   8
ENDBRANCH  15  17
TORSDOF 8
ENDMDL
MODEL 2
REMARK VINA RESULT:      -6.2     31.100     32.727
REMARK  Name = 25390434
REMARK  8 active torsions:
REMARK  status: ('A' for Active; 'I' for Inactive)
REMARK    1  A    between atoms: O_2  and  C_13
REMARK    2  A    between atoms: O_3  and  C_14
REMARK    3  A    between atoms: N_7  and  C_9
REMARK    4  A    between atoms: N_8  and  C_17
REMARK    5  A    between atoms: C_10  and  C_16
REMARK    6  A    between atoms: C_15  and  C_17
REMARK    7  A    between atoms: C_16  and  C_18
REMARK    8  A    between atoms: C_19  and  C_20
REMARK                            x       y       z     vdW  Elec       q    Type
REMARK                         _______ _______ _______ _____ _____    ______ ____
ROOT
ATOM      1  O   UNL     1     -13.635   2.711  31.484  0.00  0.00    -0.366 OA
ATOM     10  C   UNL     1     -14.049   1.553  32.228  0.00  0.00    +0.158 C 
ATOM     13  C   UNL     1     -14.916   0.743  31.280  0.00  0.00    +0.175 C 
ATOM     14  C   UNL     1     -14.225   0.988  29.954  0.00  0.00    +0.176 C 
ATOM     15  C   UNL     1     -13.821   2.453  30.073  0.00  0.00    +0.167 C 
ENDROOT
BRANCH  13   2
ATOM      2  O   UNL     1     -14.966  -0.621  31.641  0.00  0.00    -0.387 OA
ATOM     25  H   UNL     1     -14.233  -1.070  31.186  0.00  0.00    +0.210 HD
ENDBRANCH  13   2
BRANCH  14   3
ATOM      3  O   UNL     1     -13.035   0.206  29.863  0.00  0.00    -0.387 OA
ATOM     26  H   UNL     1     -12.281   0.816  29.920  0.00  0.00    +0.210 HD
ENDBRANCH  14   3
BRANCH  10  16
ATOM     16  C   UNL     1     -14.779   1.989  33.487  0.00  0.00    +0.130 C 
BRANCH  16  18
ATOM      4  O   UNL     1     -16.488   3.660  33.100  0.00  0.00    -0.276 OA
ATOM      7  N   UNL     1     -14.339   4.347  33.650  0.00  0.00    -0.312 N 
ATOM     18  C   UNL     1     -15.321   3.402  33.384  0.00  0.00    +0.216 C 
ATOM     24  H   UNL     1     -13.391   4.049  33.860  0.00  0.00    +0.149 HD
BRANCH   7   9
ATOM      9  C   UNL     1     -14.599   5.758  33.618  0.00  0.00    +0.073 C 
ATOM     11  C   UNL     1     -13.815   6.711  34.473  0.00  0.00    +0.024 C 
ATOM     12  C   UNL     1     -13.629   6.712  32.983  0.00  0.00    +0.024 C 
ENDBRANCH   7   9
ENDBRANCH  16  18
ENDBRANCH  10  16
BRANCH  15  17
ATOM     17  C   UNL     1     -14.889   3.409  29.562  0.00  0.00    +0.138 C 
BRANCH  17   8
ATOM      5  O   UNL     1     -17.266   4.151  28.131  0.00  0.00    -0.267 OA
ATOM      8  N   UNL     1     -15.150   3.200  28.168  0.00  0.00    -0.306 N 
ATOM     19  C   UNL     1     -16.336   3.593  27.554  0.00  0.00    +0.279 C 
ATOM     27  H   UNL     1     -14.434   2.744  27.610  0.00  0.00    +0.149 HD
BRANCH  19  20
ATOM      6  O   UNL     1     -17.401   2.371  25.734  0.00  0.00    -0.458 OA
ATOM     20  C   UNL     1     -16.462   3.281  26.108  0.00  0.00    +0.189 A 
ATOM     21  C   UNL     1     -15.784   3.755  25.009  0.00  0.00    +0.054 A 
ATOM     22  C   UNL     1     -16.341   3.095  23.888  0.00  0.00    +0.042 A 
ATOM     23  C   UNL     1     -17.319   2.264  24.381  0.00  0.00    +0.196 A 
ENDBRANCH  19  20
ENDBRANCH  17   8
ENDBRANCH  15  17
TORSDOF 8
ENDMDL
MODEL 3
REMARK VINA RESULT:      -6.1     13.056     16.703
REMARK  Name = 25390434
REMARK  8 active torsions:
REMARK  status: ('A' for Active; 'I' for Inactive)
REMARK    1  A    between atoms: O_2  and  C_13
REMARK    2  A    between atoms: O_3  and  C_14
REMARK    3  A    between atoms: N_7  and  C_9
REMARK    4  A    between atoms: N_8  and  C_17
REMARK    5  A    between atoms: C_10  and  C_16
REMARK    6  A    between atoms: C_15  and  C_17
REMARK    7  A    between atoms: C_16  and  C_18
REMARK    8  A    between atoms: C_19  and  C_20
REMARK                            x       y       z     vdW  Elec       q    Type
REMARK                         _______ _______ _______ _____ _____    ______ ____
ROOT
ATOM      1  O   UNL     1       9.453   5.946   5.866  0.00  0.00    -0.366 OA
ATOM     10  C   UNL     1      10.855   5.955   5.546  0.00  0.00    +0.158 C 
ATOM     13  C   UNL     1      11.543   6.610   6.731  0.00  0.00    +0.175 C 
ATOM     14  C   UNL     1      10.698   6.112   7.886  0.00  0.00    +0.176 C 
ATOM     15  C   UNL     1       9.295   6.145   7.290  0.00  0.00    +0.167 C 
ENDROOT
BRANCH  13   2
ATOM      2  O   UNL     1      12.900   6.237   6.829  0.00  0.00    -0.387 OA
ATOM     25  H   UNL     1      13.401   6.793   6.207  0.00  0.00    +0.210 HD
ENDBRANCH  13   2
BRANCH  14   3
ATOM      3  O   UNL     1      11.020   4.755   8.186  0.00  0.00    -0.387 OA
ATOM     26  H   UNL     1      11.944   4.609   7.919  0.00  0.00    +0.210 HD
ENDBRANCH  14   3
BRANCH  10  16
ATOM     16  C   UNL     1      11.076   6.693   4.238  0.00  0.00    +0.130 C 
BRANCH  16  18
ATOM      4  O   UNL     1      10.009   5.973   2.187  0.00  0.00    -0.276 OA
ATOM      7  N   UNL     1      11.827   4.776   2.995  0.00  0.00    -0.312 N 
ATOM     18  C   UNL     1      10.888   5.799   3.027  0.00  0.00    +0.216 C 
ATOM     24  H   UNL     1      12.512   4.693   3.742  0.00  0.00    +0.149 HD
BRANCH   7   9
ATOM      9  C   UNL     1      11.863   3.795   1.950  0.00  0.00    +0.073 C 
ATOM     11  C   UNL     1      12.476   4.104   0.615  0.00  0.00    +0.024 C 
ATOM     12  C   UNL     1      13.150   3.137   1.545  0.00  0.00    +0.024 C 
ENDBRANCH   7   9
ENDBRANCH  16  18
ENDBRANCH  10  16
BRANCH  15  17
ATOM     17  C   UNL     1       8.589   7.477   7.499  0.00  0.00    +0.138 C 
BRANCH  17   8
ATOM      5  O   UNL     1       9.364   9.657   5.798  0.00  0.00    -0.267 OA
ATOM      8  N   UNL     1       7.927   7.906   6.302  0.00  0.00    -0.306 N 
ATOM     19  C   UNL     1       8.374   8.979   5.535  0.00  0.00    +0.279 C 
ATOM     27  H   UNL     1       7.097   7.401   6.007  0.00  0.00    +0.149 HD
BRANCH  19  20
ATOM      6  O   UNL     1       6.419  10.025   4.524  0.00  0.00    -0.458 OA
ATOM     20  C   UNL     1       7.562   9.314   4.338  0.00  0.00    +0.189 A 
ATOM     21  C   UNL     1       7.746   9.035   3.003  0.00  0.00    +0.054 A 
ATOM     22  C   UNL     1       6.646   9.612   2.326  0.00  0.00    +0.042 A 
ATOM     23  C   UNL     1       5.867  10.202   3.294  0.00  0.00    +0.196 A 
ENDBRANCH  19  20
ENDBRANCH  17   8
ENDBRANCH  15  17
TORSDOF 8
ENDMDL
MODEL 4
REMARK VINA RESULT:      -6.0     26.801     28.191
REMARK  Name = 25390434
REMARK  8 active torsions:
REMARK  status: ('A' for Active; 'I' for Inactive)
REMARK    1  A    between atoms: O_2  and  C_13
REMARK    2  A    between atoms: O_3  and  C_14
REMARK    3  A    between atoms: N_7  and  C_9
REMARK    4  A    between atoms: N_8  and  C_17
REMARK    5  A    between atoms: C_10  and  C_16
REMARK    6  A    between atoms: C_15  and  C_17
REMARK    7  A    between atoms: C_16  and  C_18
REMARK    8  A    between atoms: C_19  and  C_20
REMARK                            x       y       z     vdW  Elec       q    Type
REMARK                         _______ _______ _______ _____ _____    ______ ____
ROOT
ATOM      1  O   UNL     1      -5.223  -9.833  17.114  0.00  0.00    -0.366 OA
ATOM     10  C   UNL     1      -5.057 -10.684  18.261  0.00  0.00    +0.158 C 
ATOM     13  C   UNL     1      -4.700 -12.053  17.709  0.00  0.00    +0.175 C 
ATOM     14  C   UNL     1      -3.861 -11.684  16.503  0.00  0.00    +0.176 C 
ATOM     15  C   UNL     1      -4.590 -10.456  15.972  0.00  0.00    +0.167 C 
ENDROOT
BRANCH  13   2
ATOM      2  O   UNL     1      -4.008 -12.841  18.652  0.00  0.00    -0.387 OA
ATOM     25  H   UNL     1      -4.248 -13.770  18.489  0.00  0.00    +0.210 HD
ENDBRANCH  13   2
BRANCH  14   3
ATOM      3  O   UNL     1      -2.555 -11.282  16.912  0.00  0.00    -0.387 OA
ATOM     26  H   UNL     1      -2.638 -10.410  17.335  0.00  0.00    +0.210 HD
ENDBRANCH  14   3
BRANCH  10  16
ATOM     16  C   UNL     1      -6.331 -10.681  19.088  0.00  0.00    +0.130 C 
BRANCH  16  18
ATOM      4  O   UNL     1      -8.135 -11.689  17.827  0.00  0.00    -0.276 OA
ATOM      7  N   UNL     1      -8.008  -9.375  17.964  0.00  0.00    -0.312 N 
ATOM     18  C   UNL     1      -7.581 -10.669  18.229  0.00  0.00    +0.216 C 
ATOM     24  H   UNL     1      -7.480  -8.583  18.321  0.00  0.00    +0.149 HD
BRANCH   7   9
ATOM      9  C   UNL     1      -9.171  -9.094  17.172  0.00  0.00    +0.073 C 
ATOM     11  C   UNL     1     -10.537  -9.038  17.790  0.00  0.00    +0.024 C 
ATOM     12  C   UNL     1      -9.890  -7.782  17.285  0.00  0.00    +0.024 C 
ENDBRANCH   7   9
ENDBRANCH  16  18
ENDBRANCH  10  16
BRANCH  15  17
ATOM     17  C   UNL     1      -5.679 -10.797  14.965  0.00  0.00    +0.138 C 
BRANCH  17   8
ATOM      5  O   UNL     1      -3.951 -11.735  12.872  0.00  0.00    -0.267 OA
ATOM      8  N   UNL     1      -5.438 -10.159  13.704  0.00  0.00    -0.306 N 
ATOM     19  C   UNL     1      -4.580 -10.688  12.743  0.00  0.00    +0.279 C 
ATOM     27  H   UNL     1      -5.917  -9.285  13.509  0.00  0.00    +0.149 HD
BRANCH  19  20
ATOM      6  O   UNL     1      -5.281  -8.866  11.284  0.00  0.00    -0.458 OA
ATOM     20  C   UNL     1      -4.418  -9.893  11.499  0.00  0.00    +0.189 A 
ATOM     21  C   UNL     1      -3.516  -9.992  10.464  0.00  0.00    +0.054 A 
ATOM     22  C   UNL     1      -3.848  -8.959   9.554  0.00  0.00    +0.042 A 
ATOM     23  C   UNL     1      -4.928  -8.304  10.098  0.00  0.00    +0.196 A 
ENDBRANCH  19  20
ENDBRANCH  17   8
ENDBRANCH  15  17
TORSDOF 8
ENDMDL
MODEL 5
REMARK VINA RESULT:      -5.9     11.627     15.118
REMARK  Name = 25390434
REMARK  8 active torsions:
REMARK  status: ('A' for Active; 'I' for Inactive)
REMARK    1  A    between atoms: O_2  and  C_13
REMARK    2  A    between atoms: O_3  and  C_14
REMARK    3  A    between atoms: N_7  and  C_9
REMARK    4  A    between atoms: N_8  and  C_17
REMARK    5  A    between atoms: C_10  and  C_16
REMARK    6  A    between atoms: C_15  and  C_17
REMARK    7  A    between atoms: C_16  and  C_18
REMARK    8  A    between atoms: C_19  and  C_20
REMARK                            x       y       z     vdW  Elec       q    Type
REMARK                         _______ _______ _______ _____ _____    ______ ____
ROOT
ATOM      1  O   UNL     1       9.506   5.686   5.566  0.00  0.00    -0.366 OA
ATOM     10  C   UNL     1      10.886   5.674   5.161  0.00  0.00    +0.158 C 
ATOM     13  C   UNL     1      11.602   6.618   6.111  0.00  0.00    +0.175 C 
ATOM     14  C   UNL     1      10.849   6.375   7.403  0.00  0.00    +0.176 C 
ATOM     15  C   UNL     1       9.416   6.211   6.911  0.00  0.00    +0.167 C 
ENDROOT
BRANCH  13   2
ATOM      2  O   UNL     1      12.980   6.332   6.203  0.00  0.00    -0.387 OA
ATOM     25  H   UNL     1      13.070   5.378   6.368  0.00  0.00    +0.210 HD
ENDBRANCH  13   2
BRANCH  14   3
ATOM      3  O   UNL     1      11.261   5.142   7.991  0.00  0.00    -0.387 OA
ATOM     26  H   UNL     1      11.433   4.517   7.266  0.00  0.00    +0.210 HD
ENDBRANCH  14   3
BRANCH  10  16
ATOM     16  C   UNL     1      10.994   6.089   3.704  0.00  0.00    +0.130 C 
BRANCH  16  18
ATOM      4  O   UNL     1      10.285   4.287   2.251  0.00  0.00    -0.276 OA
ATOM      7  N   UNL     1      12.554   4.627   2.604  0.00  0.00    -0.312 N 
ATOM     18  C   UNL     1      11.205   4.908   2.777  0.00  0.00    +0.216 C 
ATOM     24  H   UNL     1      13.254   5.180   3.092  0.00  0.00    +0.149 HD
BRANCH   7   9
ATOM      9  C   UNL     1      13.018   3.554   1.773  0.00  0.00    +0.073 C 
ATOM     11  C   UNL     1      13.310   3.771   0.317  0.00  0.00    +0.024 C 
ATOM     12  C   UNL     1      14.434   3.511   1.277  0.00  0.00    +0.024 C 
ENDBRANCH   7   9
ENDBRANCH  16  18
ENDBRANCH  10  16
BRANCH  15  17
ATOM     17  C   UNL     1       8.653   7.525   6.849  0.00  0.00    +0.138 C 
BRANCH  17   8
ATOM      5  O   UNL     1       9.165  10.338   6.578  0.00  0.00    -0.267 OA
ATOM      8  N   UNL     1       9.077   8.422   7.884  0.00  0.00    -0.306 N 
ATOM     19  C   UNL     1       9.304   9.778   7.662  0.00  0.00    +0.279 C 
ATOM     27  H   UNL     1       9.217   8.045   8.817  0.00  0.00    +0.149 HD
BRANCH  19  20
ATOM      6  O   UNL     1      11.100  10.784   8.966  0.00  0.00    -0.458 OA
ATOM     20  C   UNL     1       9.765  10.566   8.833  0.00  0.00    +0.189 A 
ATOM     21  C   UNL     1       9.074  11.155   9.866  0.00  0.00    +0.054 A 
ATOM     22  C   UNL     1      10.047  11.775  10.687  0.00  0.00    +0.042 A 
ATOM     23  C   UNL     1      11.263  11.520  10.097  0.00  0.00    +0.196 A 
ENDBRANCH  19  20
ENDBRANCH  17   8
ENDBRANCH  15  17
TORSDOF 8
ENDMDL
MODEL 6
REMARK VINA RESULT:      -5.9     31.165     32.707
REMARK  Name = 25390434
REMARK  8 active torsions:
REMARK  status: ('A' for Active; 'I' for Inactive)
REMARK    1  A    between atoms: O_2  and  C_13
REMARK    2  A    between atoms: O_3  and  C_14
REMARK    3  A    between atoms: N_7  and  C_9
REMARK    4  A    between atoms: N_8  and  C_17
REMARK    5  A    between atoms: C_10  and  C_16
REMARK    6  A    between atoms: C_15  and  C_17
REMARK    7  A    between atoms: C_16  and  C_18
REMARK    8  A    between atoms: C_19  and  C_20
REMARK                            x       y       z     vdW  Elec       q    Type
REMARK                         _______ _______ _______ _____ _____    ______ ____
ROOT
ATOM      1  O   UNL     1     -15.240   0.341  30.471  0.00  0.00    -0.366 OA
ATOM     10  C   UNL     1     -15.504   1.202  29.349  0.00  0.00    +0.158 C 
ATOM     13  C   UNL     1     -15.069   2.590  29.785  0.00  0.00    +0.175 C 
ATOM     14  C   UNL     1     -13.865   2.273  30.648  0.00  0.00    +0.176 C 
ATOM     15  C   UNL     1     -14.310   1.001  31.361  0.00  0.00    +0.167 C 
ENDROOT
BRANCH  13   2
ATOM      2  O   UNL     1     -14.766   3.421  28.685  0.00  0.00    -0.387 OA
ATOM     25  H   UNL     1     -14.060   2.985  28.177  0.00  0.00    +0.210 HD
ENDBRANCH  13   2
BRANCH  14   3
ATOM      3  O   UNL     1     -12.740   1.953  29.831  0.00  0.00    -0.387 OA
ATOM     26  H   UNL     1     -12.717   2.597  29.102  0.00  0.00    +0.210 HD
ENDBRANCH  14   3
BRANCH  10  16
ATOM     16  C   UNL     1     -16.974   1.120  28.977  0.00  0.00    +0.130 C 
BRANCH  16  18
ATOM      4  O   UNL     1     -17.875   0.093  26.978  0.00  0.00    -0.276 OA
ATOM      7  N   UNL     1     -16.519   1.967  26.774  0.00  0.00    -0.312 N 
ATOM     18  C   UNL     1     -17.189   0.979  27.483  0.00  0.00    +0.216 C 
ATOM     24  H   UNL     1     -15.956   2.654  27.268  0.00  0.00    +0.149 HD
BRANCH   7   9
ATOM      9  C   UNL     1     -16.563   2.052  25.342  0.00  0.00    +0.073 C 
ATOM     11  C   UNL     1     -17.371   3.112  24.652  0.00  0.00    +0.024 C 
ATOM     12  C   UNL     1     -15.872   3.165  24.609  0.00  0.00    +0.024 C 
ENDBRANCH   7   9
ENDBRANCH  16  18
ENDBRANCH  10  16
BRANCH  15  17
ATOM     17  C   UNL     1     -15.034   1.274  32.671  0.00  0.00    +0.138 C 
BRANCH  17   8
ATOM      5  O   UNL     1     -16.453   3.742  33.043  0.00  0.00    -0.267 OA
ATOM      8  N   UNL     1     -14.535   2.461  33.302  0.00  0.00    -0.306 N 
ATOM     19  C   UNL     1     -15.297   3.619  33.439  0.00  0.00    +0.279 C 
ATOM     27  H   UNL     1     -13.586   2.450  33.661  0.00  0.00    +0.149 HD
BRANCH  19  20
ATOM      6  O   UNL     1     -14.448   5.902  33.360  0.00  0.00    -0.458 OA
ATOM     20  C   UNL     1     -14.626   4.772  34.093  0.00  0.00    +0.189 A 
ATOM     21  C   UNL     1     -14.124   4.935  35.363  0.00  0.00    +0.054 A 
ATOM     22  C   UNL     1     -13.603   6.250  35.414  0.00  0.00    +0.042 A 
ATOM     23  C   UNL     1     -13.824   6.796  34.171  0.00  0.00    +0.196 A 
ENDBRANCH  19  20
ENDBRANCH  17   8
ENDBRANCH  15  17
TORSDOF 8
ENDMDL
MODEL 7
REMARK VINA RESULT:      -5.8     16.342     19.414
REMARK  Name = 25390434
REMARK  8 active torsions:
REMARK  status: ('A' for Active; 'I' for Inactive)
REMARK    1  A    between atoms: O_2  and  C_13
REMARK    2  A    between atoms: O_3  and  C_14
REMARK    3  A    between atoms: N_7  and  C_9
REMARK    4  A    between atoms: N_8  and  C_17
REMARK    5  A    between atoms: C_10  and  C_16
REMARK    6  A    between atoms: C_15  and  C_17
REMARK    7  A    between atoms: C_16  and  C_18
REMARK    8  A    between atoms: C_19  and  C_20
REMARK                            x       y       z     vdW  Elec       q    Type
REMARK                         _______ _______ _______ _____ _____    ______ ____
ROOT
ATOM      1  O   UNL     1      13.323   3.120  -0.007  0.00  0.00    -0.366 OA
ATOM     10  C   UNL     1      14.497   3.809  -0.470  0.00  0.00    +0.158 C 
ATOM     13  C   UNL     1      14.813   4.845   0.594  0.00  0.00    +0.175 C 
ATOM     14  C   UNL     1      14.415   4.112   1.858  0.00  0.00    +0.176 C 
ATOM     15  C   UNL     1      13.167   3.361   1.411  0.00  0.00    +0.167 C 
ENDROOT
BRANCH  13   2
ATOM      2  O   UNL     1      16.171   5.229   0.574  0.00  0.00    -0.387 OA
ATOM     25  H   UNL     1      16.686   4.463   0.266  0.00  0.00    +0.210 HD
ENDBRANCH  13   2
BRANCH  14   3
ATOM      3  O   UNL     1      15.410   3.150   2.207  0.00  0.00    -0.387 OA
ATOM     26  H   UNL     1      15.024   2.563   2.880  0.00  0.00    +0.210 HD
ENDBRANCH  14   3
BRANCH  10  16
ATOM     16  C   UNL     1      14.230   4.412  -1.838  0.00  0.00    +0.130 C 
BRANCH  16  18
ATOM      4  O   UNL     1      12.273   5.838  -1.877  0.00  0.00    -0.276 OA
ATOM      7  N   UNL     1      12.058   3.607  -2.484  0.00  0.00    -0.312 N 
ATOM     18  C   UNL     1      12.762   4.726  -2.058  0.00  0.00    +0.216 C 
ATOM     24  H   UNL     1      12.536   2.717  -2.592  0.00  0.00    +0.149 HD
BRANCH   7   9
ATOM      9  C   UNL     1      10.651   3.642  -2.762  0.00  0.00    +0.073 C 
ATOM     11  C   UNL     1      10.139   3.969  -4.134  0.00  0.00    +0.024 C 
ATOM     12  C   UNL     1       9.997   2.576  -3.593  0.00  0.00    +0.024 C 
ENDBRANCH   7   9
ENDBRANCH  16  18
ENDBRANCH  10  16
BRANCH  15  17
ATOM     17  C   UNL     1      11.887   4.161   1.609  0.00  0.00    +0.138 C 
BRANCH  17   8
ATOM      5  O   UNL     1      10.080   6.090   2.732  0.00  0.00    -0.267 OA
ATOM      8  N   UNL     1      11.618   4.372   3.001  0.00  0.00    -0.306 N 
ATOM     19  C   UNL     1      10.722   5.335   3.459  0.00  0.00    +0.279 C 
ATOM     27  H   UNL     1      12.104   3.791   3.677  0.00  0.00    +0.149 HD
BRANCH  19  20
ATOM      6  O   UNL     1      11.369   6.335   5.585  0.00  0.00    -0.458 OA
ATOM     20  C   UNL     1      10.574   5.447   4.932  0.00  0.00    +0.189 A 
ATOM     21  C   UNL     1       9.746   4.797   5.818  0.00  0.00    +0.054 A 
ATOM     22  C   UNL     1      10.052   5.320   7.097  0.00  0.00    +0.042 A 
ATOM     23  C   UNL     1      11.045   6.251   6.902  0.00  0.00    +0.196 A 
ENDBRANCH  19  20
ENDBRANCH  17   8
ENDBRANCH  15  17
TORSDOF 8
ENDMDL
MODEL 8
REMARK VINA RESULT:      -5.8     26.188     28.348
REMARK  Name = 25390434
REMARK  8 active torsions:
REMARK  status: ('A' for Active; 'I' for Inactive)
REMARK    1  A    between atoms: O_2  and  C_13
REMARK    2  A    between atoms: O_3  and  C_14
REMARK    3  A    between atoms: N_7  and  C_9
REMARK    4  A    between atoms: N_8  and  C_17
REMARK    5  A    between atoms: C_10  and  C_16
REMARK    6  A    between atoms: C_15  and  C_17
REMARK    7  A    between atoms: C_16  and  C_18
REMARK    8  A    between atoms: C_19  and  C_20
REMARK                            x       y       z     vdW  Elec       q    Type
REMARK                         _______ _______ _______ _____ _____    ______ ____
ROOT
ATOM      1  O   UNL     1      -5.816 -10.658  18.582  0.00  0.00    -0.366 OA
ATOM     10  C   UNL     1      -5.783 -12.046  18.958  0.00  0.00    +0.158 C 
ATOM     13  C   UNL     1      -5.075 -12.763  17.822  0.00  0.00    +0.175 C 
ATOM     14  C   UNL     1      -4.051 -11.729  17.402  0.00  0.00    +0.176 C 
ATOM     15  C   UNL     1      -4.833 -10.430  17.545  0.00  0.00    +0.167 C 
ENDROOT
BRANCH  13   2
ATOM      2  O   UNL     1      -4.501 -13.983  18.241  0.00  0.00    -0.387 OA
ATOM     25  H   UNL     1      -4.300 -14.500  17.441  0.00  0.00    +0.210 HD
ENDBRANCH  13   2
BRANCH  14   3
ATOM      3  O   UNL     1      -2.968 -11.700  18.332  0.00  0.00    -0.387 OA
ATOM     26  H   UNL     1      -3.274 -12.130  19.149  0.00  0.00    +0.210 HD
ENDBRANCH  14   3
BRANCH  10  16
ATOM     16  C   UNL     1      -7.198 -12.545  19.197  0.00  0.00    +0.130 C 
BRANCH  16  18
ATOM      4  O   UNL     1      -8.736 -10.876  20.040  0.00  0.00    -0.276 OA
ATOM      7  N   UNL     1      -8.525 -11.162  17.745  0.00  0.00    -0.312 N 
ATOM     18  C   UNL     1      -8.232 -11.442  19.073  0.00  0.00    +0.216 C 
ATOM     24  H   UNL     1      -8.075 -11.691  17.003  0.00  0.00    +0.149 HD
BRANCH   7   9
ATOM      9  C   UNL     1      -9.474 -10.157  17.361  0.00  0.00    +0.073 C 
ATOM     11  C   UNL     1      -9.082  -8.711  17.277  0.00  0.00    +0.024 C 
ATOM     12  C   UNL     1      -9.390  -9.478  16.025  0.00  0.00    +0.024 C 
ENDBRANCH   7   9
ENDBRANCH  16  18
ENDBRANCH  10  16
BRANCH  15  17
ATOM     17  C   UNL     1      -5.577 -10.039  16.276  0.00  0.00    +0.138 C 
BRANCH  17   8
ATOM      5  O   UNL     1      -6.039 -11.116  13.655  0.00  0.00    -0.267 OA
ATOM      8  N   UNL     1      -4.687  -9.971  15.154  0.00  0.00    -0.306 N 
ATOM     19  C   UNL     1      -4.994 -10.524  13.913  0.00  0.00    +0.279 C 
ATOM     27  H   UNL     1      -3.797  -9.498  15.276  0.00  0.00    +0.149 HD
BRANCH  19  20
ATOM      6  O   UNL     1      -2.659 -10.579  13.220  0.00  0.00    -0.458 OA
ATOM     20  C   UNL     1      -3.956 -10.392  12.860  0.00  0.00    +0.189 A 
ATOM     21  C   UNL     1      -4.048 -10.104  11.518  0.00  0.00    +0.054 A 
ATOM     22  C   UNL     1      -2.723 -10.115  11.022  0.00  0.00    +0.042 A 
ATOM     23  C   UNL     1      -1.915 -10.408  12.095  0.00  0.00    +0.196 A 
ENDBRANCH  19  20
ENDBRANCH  17   8
ENDBRANCH  15  17
TORSDOF 8
ENDMDL
MODEL 9
REMARK VINA RESULT:      -5.7     25.846     28.163
REMARK  Name = 25390434
REMARK  8 active torsions:
REMARK  status: ('A' for Active; 'I' for Inactive)
REMARK    1  A    between atoms: O_2  and  C_13
REMARK    2  A    between atoms: O_3  and  C_14
REMARK    3  A    between atoms: N_7  and  C_9
REMARK    4  A    between atoms: N_8  and  C_17
REMARK    5  A    between atoms: C_10  and  C_16
REMARK    6  A    between atoms: C_15  and  C_17
REMARK    7  A    between atoms: C_16  and  C_18
REMARK    8  A    between atoms: C_19  and  C_20
REMARK                            x       y       z     vdW  Elec       q    Type
REMARK                         _______ _______ _______ _____ _____    ______ ____
ROOT
ATOM      1  O   UNL     1      -3.921 -12.309  14.440  0.00  0.00    -0.366 OA
ATOM     10  C   UNL     1      -2.527 -12.249  14.791  0.00  0.00    +0.158 C 
ATOM     13  C   UNL     1      -2.361 -10.976  15.602  0.00  0.00    +0.175 C 
ATOM     14  C   UNL     1      -3.672 -10.927  16.360  0.00  0.00    +0.176 C 
ATOM     15  C   UNL     1      -4.663 -11.427  15.315  0.00  0.00    +0.167 C 
ENDROOT
BRANCH  13   2
ATOM      2  O   UNL     1      -1.230 -11.028  16.444  0.00  0.00    -0.387 OA
ATOM     25  H   UNL     1      -0.880 -11.935  16.407  0.00  0.00    +0.210 HD
ENDBRANCH  13   2
BRANCH  14   3
ATOM      3  O   UNL     1      -3.657 -11.861  17.438  0.00  0.00    -0.387 OA
ATOM     26  H   UNL     1      -4.551 -12.236  17.512  0.00  0.00    +0.210 HD
ENDBRANCH  14   3
BRANCH  10  16
ATOM     16  C   UNL     1      -1.682 -12.274  13.529  0.00  0.00    +0.130 C 
BRANCH  16  18
ATOM      4  O   UNL     1      -2.901 -13.133  11.622  0.00  0.00    -0.276 OA
ATOM      7  N   UNL     1      -2.783 -10.837  11.946  0.00  0.00    -0.312 N 
ATOM     18  C   UNL     1      -2.516 -12.162  12.267  0.00  0.00    +0.216 C 
ATOM     24  H   UNL     1      -2.411 -10.090  12.526  0.00  0.00    +0.149 HD
BRANCH   7   9
ATOM      9  C   UNL     1      -3.555 -10.463  10.797  0.00  0.00    +0.073 C 
ATOM     11  C   UNL     1      -4.518  -9.313  10.848  0.00  0.00    +0.024 C 
ATOM     12  C   UNL     1      -3.259  -9.202  10.038  0.00  0.00    +0.024 C 
ENDBRANCH   7   9
ENDBRANCH  16  18
ENDBRANCH  10  16
BRANCH  15  17
ATOM     17  C   UNL     1      -5.246 -10.309  14.462  0.00  0.00    +0.138 C 
BRANCH  17   8
ATOM      5  O   UNL     1      -8.032 -11.004  14.513  0.00  0.00    -0.267 OA
ATOM      8  N   UNL     1      -6.288  -9.615  15.160  0.00  0.00    -0.306 N 
ATOM     19  C   UNL     1      -7.619 -10.024  15.129  0.00  0.00    +0.279 C 
ATOM     27  H   UNL     1      -6.039  -8.791  15.698  0.00  0.00    +0.149 HD
BRANCH  19  20
ATOM      6  O   UNL     1      -9.567  -8.561  15.183  0.00  0.00    -0.458 OA
ATOM     20  C   UNL     1      -8.583  -9.183  15.884  0.00  0.00    +0.189 A 
ATOM     21  C   UNL     1      -8.686  -8.893  17.225  0.00  0.00    +0.054 A 
ATOM     22  C   UNL     1      -9.806  -8.037  17.356  0.00  0.00    +0.042 A 
ATOM     23  C   UNL     1     -10.306  -7.865  16.087  0.00  0.00    +0.196 A 
ENDBRANCH  19  20
ENDBRANCH  17   8
ENDBRANCH  15  17
TORSDOF 8
ENDMDL
MODEL 10
REMARK VINA RESULT:      -5.7     27.278     29.765
REMARK  Name = 25390434
REMARK  8 active torsions:
REMARK  status: ('A' for Active; 'I' for Inactive)
REMARK    1  A    between atoms: O_2  and  C_13
REMARK    2  A    between atoms: O_3  and  C_14
REMARK    3  A    between atoms: N_7  and  C_9
REMARK    4  A    between atoms: N_8  and  C_17
REMARK    5  A    between atoms: C_10  and  C_16
REMARK    6  A    between atoms: C_15  and  C_17
REMARK    7  A    between atoms: C_16  and  C_18
REMARK    8  A    between atoms: C_19  and  C_20
REMARK                            x       y       z     vdW  Elec       q    Type
REMARK                         _______ _______ _______ _____ _____    ______ ____
ROOT
ATOM      1  O   UNL     1      -6.320  -9.593  17.794  0.00  0.00    -0.366 OA
ATOM     10  C   UNL     1      -5.485 -10.562  18.450  0.00  0.00    +0.158 C 
ATOM     13  C   UNL     1      -5.077 -11.551  17.372  0.00  0.00    +0.175 C 
ATOM     14  C   UNL     1      -4.942 -10.645  16.165  0.00  0.00    +0.176 C 
ATOM     15  C   UNL     1      -6.100  -9.674  16.366  0.00  0.00    +0.167 C 
ENDROOT
BRANCH  13   2
ATOM      2  O   UNL     1      -3.883 -12.229  17.699  0.00  0.00    -0.387 OA
ATOM     25  H   UNL     1      -3.168 -11.569  17.715  0.00  0.00    +0.210 HD
ENDBRANCH  13   2
BRANCH  14   3
ATOM      3  O   UNL     1      -3.725  -9.903  16.236  0.00  0.00    -0.387 OA
ATOM     26  H   UNL     1      -3.949  -8.964  16.129  0.00  0.00    +0.210 HD
ENDBRANCH  14   3
BRANCH  10  16
ATOM     16  C   UNL     1      -6.249 -11.203  19.596  0.00  0.00    +0.130 C 
BRANCH  16  18
ATOM      4  O   UNL     1      -7.947 -12.762  18.856  0.00  0.00    -0.276 OA
ATOM      7  N   UNL     1      -8.542 -10.556  19.272  0.00  0.00    -0.312 N 
ATOM     18  C   UNL     1      -7.652 -11.620  19.198  0.00  0.00    +0.216 C 
ATOM     24  H   UNL     1      -8.212  -9.636  19.548  0.00  0.00    +0.149 HD
BRANCH   7   9
ATOM      9  C   UNL     1      -9.933 -10.691  18.946  0.00  0.00    +0.073 C 
ATOM     11  C   UNL     1     -11.000 -10.211  19.884  0.00  0.00    +0.024 C 
ATOM     12  C   UNL     1     -10.766  -9.496  18.585  0.00  0.00    +0.024 C 
ENDBRANCH   7   9
ENDBRANCH  16  18
ENDBRANCH  10  16
BRANCH  15  17
ATOM     17  C   UNL     1      -7.394 -10.148  15.722  0.00  0.00    +0.138 C 
BRANCH  17   8
ATOM      5  O   UNL     1      -9.561  -9.667  13.899  0.00  0.00    -0.267 OA
ATOM      8  N   UNL     1      -8.434  -9.170  15.866  0.00  0.00    -0.306 N 
ATOM     19  C   UNL     1      -9.450  -9.005  14.928  0.00  0.00    +0.279 C 
ATOM     27  H   UNL     1      -8.422  -8.577  16.690  0.00  0.00    +0.149 HD
BRANCH  19  20
ATOM      6  O   UNL     1     -10.057  -6.922  16.037  0.00  0.00    -0.458 OA
ATOM     20  C   UNL     1     -10.436  -7.932  15.211  0.00  0.00    +0.189 A 
ATOM     21  C   UNL     1     -11.728  -7.742  14.777  0.00  0.00    +0.054 A 
ATOM     22  C   UNL     1     -12.171  -6.539  15.377  0.00  0.00    +0.042 A 
ATOM     23  C   UNL     1     -11.119  -6.079  16.133  0.00  0.00    +0.196 A 
ENDBRANCH  19  20
ENDBRANCH  17   8
ENDBRANCH  15  17
TORSDOF 8
ENDMDL
