MODEL 1
REMARK VINA RESULT:      -6.5      0.000      0.000
REMARK  Name = 9419221
REMARK  4 active torsions:
REMARK  status: ('A' for Active; 'I' for Inactive)
REMARK    1  A    between atoms: N_3  and  C_13
REMARK    2  A    between atoms: C_13  and  C_19
REMARK    3  A    between atoms: C_14  and  C_18
REMARK    4  A    between atoms: C_24  and  C_28
REMARK                            x       y       z     vdW  Elec       q    Type
REMARK                         _______ _______ _______ _____ _____    ______ ____
ROOT
ATOM      2  O   UNL     1      16.555   7.909  21.447  0.00  0.00    -0.268 OA
ATOM      3  N   UNL     1      12.193   8.370  19.076  0.00  0.00    -0.297 NA
ATOM      4  N   UNL     1      14.243   8.277  21.507  0.00  0.00    -0.311 N 
ATOM      6  C   UNL     1      12.573   6.504  20.699  0.00  0.00    +0.024 C 
ATOM      7  C   UNL     1      11.759   8.661  21.523  0.00  0.00    +0.051 C 
ATOM      8  C   UNL     1      11.634   7.149  21.705  0.00  0.00    +0.017 C 
ATOM      9  C   UNL     1      12.185   6.914  19.264  0.00  0.00    +0.090 C 
ATOM     10  C   UNL     1      11.353   9.039  20.079  0.00  0.00    +0.094 C 
ATOM     11  C   UNL     1      14.009   6.899  21.052  0.00  0.00    +0.130 C 
ATOM     12  C   UNL     1      13.180   9.142  21.833  0.00  0.00    +0.034 A 
ATOM     14  C   UNL     1      13.440  10.357  22.382  0.00  0.00    +0.002 A 
ATOM     15  C   UNL     1      15.589   8.631  21.700  0.00  0.00    +0.252 A 
ATOM     16  C   UNL     1      14.818  10.759  22.592  0.00  0.00    +0.015 A 
ATOM     17  C   UNL     1      15.845   9.974  22.269  0.00  0.00    +0.071 A 
ENDROOT
BRANCH  14  18
ATOM     18  C   UNL     1      12.355  11.289  22.760  0.00  0.00    -0.015 A 
ATOM     20  C   UNL     1      11.942  12.269  21.860  0.00  0.00    +0.027 A 
ATOM     22  C   UNL     1      11.757  11.182  24.011  0.00  0.00    +0.008 A 
ATOM     24  C   UNL     1      10.919  13.148  22.217  0.00  0.00    +0.052 A 
ATOM     26  C   UNL     1      10.734  12.061  24.367  0.00  0.00    +0.002 A 
ATOM     27  C   UNL     1      10.315  13.044  23.470  0.00  0.00    +0.019 A 
BRANCH  24  28
ATOM      5  N   UNL     1      10.140  14.975  20.554  0.00  0.00    -0.191 NA
ATOM     28  C   UNL     1      10.489  14.156  21.300  0.00  0.00    +0.099 C 
ENDBRANCH  24  28
ENDBRANCH  14  18
BRANCH   3  13
ATOM     13  C   UNL     1      11.775   8.724  17.722  0.00  0.00    +0.126 C 
BRANCH  13  19
ATOM      1  S   UNL     1      14.002  10.341  17.922  0.00  0.00    -0.100 S 
ATOM     19  C   UNL     1      12.820   9.531  17.006  0.00  0.00    +0.004 A 
ATOM     21  C   UNL     1      12.956   9.713  15.661  0.00  0.00    +0.012 A 
ATOM     23  C   UNL     1      14.072  10.548  15.362  0.00  0.00    +0.008 A 
ATOM     25  C   UNL     1      14.730  10.960  16.501  0.00  0.00    +0.045 A 
ENDBRANCH  13  19
ENDBRANCH   3  13
TORSDOF 4
ENDMDL
MODEL 2
REMARK VINA RESULT:      -6.3     14.175     17.861
REMARK  Name = 9419221
REMARK  4 active torsions:
REMARK  status: ('A' for Active; 'I' for Inactive)
REMARK    1  A    between atoms: N_3  and  C_13
REMARK    2  A    between atoms: C_13  and  C_19
REMARK    3  A    between atoms: C_14  and  C_18
REMARK    4  A    between atoms: C_24  and  C_28
REMARK                            x       y       z     vdW  Elec       q    Type
REMARK                         _______ _______ _______ _____ _____    ______ ____
ROOT
ATOM      2  O   UNL     1       7.241   9.086   4.172  0.00  0.00    -0.268 OA
ATOM      3  N   UNL     1      11.359   7.790   6.668  0.00  0.00    -0.297 NA
ATOM      4  N   UNL     1       8.826   7.468   4.770  0.00  0.00    -0.311 N 
ATOM      6  C   UNL     1       9.155   6.738   7.208  0.00  0.00    +0.024 C 
ATOM      7  C   UNL     1      10.546   5.764   5.445  0.00  0.00    +0.051 C 
ATOM      8  C   UNL     1       9.600   5.421   6.594  0.00  0.00    +0.017 C 
ATOM      9  C   UNL     1      10.374   7.529   7.724  0.00  0.00    +0.090 C 
ATOM     10  C   UNL     1      11.761   6.546   5.997  0.00  0.00    +0.094 C 
ATOM     11  C   UNL     1       8.353   7.515   6.161  0.00  0.00    +0.130 C 
ATOM     12  C   UNL     1       9.829   6.570   4.356  0.00  0.00    +0.034 A 
ATOM     14  C   UNL     1      10.137   6.459   3.039  0.00  0.00    +0.002 A 
ATOM     15  C   UNL     1       8.135   8.295   3.867  0.00  0.00    +0.252 A 
ATOM     16  C   UNL     1       9.449   7.300   2.077  0.00  0.00    +0.015 A 
ATOM     17  C   UNL     1       8.515   8.178   2.440  0.00  0.00    +0.071 A 
ENDROOT
BRANCH  14  18
ATOM     18  C   UNL     1      11.169   5.515   2.556  0.00  0.00    -0.015 A 
ATOM     20  C   UNL     1      12.397   5.999   2.113  0.00  0.00    +0.027 A 
ATOM     22  C   UNL     1      10.904   4.149   2.547  0.00  0.00    +0.008 A 
ATOM     24  C   UNL     1      13.369   5.108   1.659  0.00  0.00    +0.052 A 
ATOM     26  C   UNL     1      11.877   3.258   2.093  0.00  0.00    +0.002 A 
ATOM     27  C   UNL     1      13.109   3.737   1.648  0.00  0.00    +0.019 A 
BRANCH  24  28
ATOM      5  N   UNL     1      15.658   5.995   0.831  0.00  0.00    -0.191 NA
ATOM     28  C   UNL     1      14.631   5.597   1.202  0.00  0.00    +0.099 C 
ENDBRANCH  24  28
ENDBRANCH  14  18
BRANCH   3  13
ATOM     13  C   UNL     1      12.520   8.498   7.200  0.00  0.00    +0.126 C 
BRANCH  13  19
ATOM      1  S   UNL     1      13.519   9.453   4.812  0.00  0.00    -0.100 S 
ATOM     19  C   UNL     1      13.662   8.517   6.225  0.00  0.00    +0.004 A 
ATOM     21  C   UNL     1      14.851   7.856   6.319  0.00  0.00    +0.012 A 
ATOM     23  C   UNL     1      15.683   8.122   5.193  0.00  0.00    +0.008 A 
ATOM     25  C   UNL     1      15.080   8.977   4.296  0.00  0.00    +0.045 A 
ENDBRANCH  13  19
ENDBRANCH   3  13
TORSDOF 4
ENDMDL
MODEL 3
REMARK VINA RESULT:      -6.1     26.630     28.493
REMARK  Name = 9419221
REMARK  4 active torsions:
REMARK  status: ('A' for Active; 'I' for Inactive)
REMARK    1  A    between atoms: N_3  and  C_13
REMARK    2  A    between atoms: C_13  and  C_19
REMARK    3  A    between atoms: C_14  and  C_18
REMARK    4  A    between atoms: C_24  and  C_28
REMARK                            x       y       z     vdW  Elec       q    Type
REMARK                         _______ _______ _______ _____ _____    ______ ____
ROOT
ATOM      2  O   UNL     1      -0.899 -12.246  13.664  0.00  0.00    -0.268 OA
ATOM      3  N   UNL     1      -5.814 -12.172  12.828  0.00  0.00    -0.297 NA
ATOM      4  N   UNL     1      -3.088 -12.629  14.403  0.00  0.00    -0.311 N 
ATOM      6  C   UNL     1      -4.624 -14.331  13.251  0.00  0.00    +0.024 C 
ATOM      7  C   UNL     1      -5.454 -13.030  15.150  0.00  0.00    +0.051 C 
ATOM      8  C   UNL     1      -5.268 -14.451  14.622  0.00  0.00    +0.017 C 
ATOM      9  C   UNL     1      -5.526 -13.513  12.304  0.00  0.00    +0.090 C 
ATOM     10  C   UNL     1      -6.371 -12.241  14.186  0.00  0.00    +0.094 C 
ATOM     11  C   UNL     1      -3.235 -13.710  13.418  0.00  0.00    +0.130 C 
ATOM     12  C   UNL     1      -4.108 -12.321  15.325  0.00  0.00    +0.034 A 
ATOM     14  C   UNL     1      -3.879 -11.412  16.308  0.00  0.00    +0.002 A 
ATOM     15  C   UNL     1      -1.829 -12.005  14.435  0.00  0.00    +0.252 A 
ATOM     16  C   UNL     1      -2.593 -10.743  16.370  0.00  0.00    +0.015 A 
ATOM     17  C   UNL     1      -1.619 -10.994  15.496  0.00  0.00    +0.071 A 
ENDROOT
BRANCH  14  18
ATOM     18  C   UNL     1      -4.913 -11.072  17.311  0.00  0.00    -0.015 A 
ATOM     20  C   UNL     1      -6.003 -10.289  16.941  0.00  0.00    +0.027 A 
ATOM     22  C   UNL     1      -4.787 -11.535  18.616  0.00  0.00    +0.008 A 
ATOM     24  C   UNL     1      -6.977  -9.969  17.887  0.00  0.00    +0.052 A 
ATOM     26  C   UNL     1      -5.761 -11.216  19.562  0.00  0.00    +0.002 A 
ATOM     27  C   UNL     1      -6.856 -10.432  19.198  0.00  0.00    +0.019 A 
BRANCH  24  28
ATOM      5  N   UNL     1      -9.012  -8.514  17.214  0.00  0.00    -0.191 NA
ATOM     28  C   UNL     1      -8.100  -9.166  17.516  0.00  0.00    +0.099 C 
ENDBRANCH  24  28
ENDBRANCH  14  18
BRANCH   3  13
ATOM     13  C   UNL     1      -6.708 -11.443  11.932  0.00  0.00    +0.126 C 
BRANCH  13  19
ATOM      1  S   UNL     1      -6.916  -9.244  10.277  0.00  0.00    -0.100 S 
ATOM     19  C   UNL     1      -6.003 -10.318  11.230  0.00  0.00    +0.004 A 
ATOM     21  C   UNL     1      -4.671 -10.025  11.250  0.00  0.00    +0.012 A 
ATOM     23  C   UNL     1      -4.380  -8.878  10.457  0.00  0.00    +0.008 A 
ATOM     25  C   UNL     1      -5.512  -8.353   9.871  0.00  0.00    +0.045 A 
ENDBRANCH  13  19
ENDBRANCH   3  13
TORSDOF 4
ENDMDL
MODEL 4
REMARK VINA RESULT:      -6.1     15.191     19.214
REMARK  Name = 9419221
REMARK  4 active torsions:
REMARK  status: ('A' for Active; 'I' for Inactive)
REMARK    1  A    between atoms: N_3  and  C_13
REMARK    2  A    between atoms: C_13  and  C_19
REMARK    3  A    between atoms: C_14  and  C_18
REMARK    4  A    between atoms: C_24  and  C_28
REMARK                            x       y       z     vdW  Elec       q    Type
REMARK                         _______ _______ _______ _____ _____    ______ ____
ROOT
ATOM      2  O   UNL     1      15.426   6.976   1.285  0.00  0.00    -0.268 OA
ATOM      3  N   UNL     1      11.148   4.823  -0.105  0.00  0.00    -0.297 NA
ATOM      4  N   UNL     1      13.543   5.684   1.805  0.00  0.00    -0.311 N 
ATOM      6  C   UNL     1      13.088   3.437   0.651  0.00  0.00    +0.024 C 
ATOM      7  C   UNL     1      11.510   4.296   2.314  0.00  0.00    +0.051 C 
ATOM      8  C   UNL     1      12.373   3.090   1.946  0.00  0.00    +0.017 C 
ATOM      9  C   UNL     1      12.065   3.735  -0.464  0.00  0.00    +0.090 C 
ATOM     10  C   UNL     1      10.490   4.560   1.182  0.00  0.00    +0.094 C 
ATOM     11  C   UNL     1      14.027   4.617   0.916  0.00  0.00    +0.130 C 
ATOM     12  C   UNL     1      12.371   5.536   2.573  0.00  0.00    +0.034 A 
ATOM     14  C   UNL     1      12.036   6.485   3.485  0.00  0.00    +0.002 A 
ATOM     15  C   UNL     1      14.384   6.804   1.920  0.00  0.00    +0.252 A 
ATOM     16  C   UNL     1      12.877   7.658   3.629  0.00  0.00    +0.015 A 
ATOM     17  C   UNL     1      13.976   7.839   2.898  0.00  0.00    +0.071 A 
ENDROOT
BRANCH  14  18
ATOM     18  C   UNL     1      10.826   6.363   4.328  0.00  0.00    -0.015 A 
ATOM     20  C   UNL     1      10.895   5.684   5.541  0.00  0.00    +0.027 A 
ATOM     22  C   UNL     1       9.627   6.926   3.900  0.00  0.00    +0.008 A 
ATOM     24  C   UNL     1       9.753   5.569   6.335  0.00  0.00    +0.052 A 
ATOM     26  C   UNL     1       8.487   6.811   4.695  0.00  0.00    +0.002 A 
ATOM     27  C   UNL     1       8.549   6.133   5.912  0.00  0.00    +0.019 A 
BRANCH  24  28
ATOM      5  N   UNL     1       9.868   4.309   8.596  0.00  0.00    -0.191 NA
ATOM     28  C   UNL     1       9.816   4.874   7.583  0.00  0.00    +0.099 C 
ENDBRANCH  24  28
ENDBRANCH  14  18
BRANCH   3  13
ATOM     13  C   UNL     1      10.164   5.047  -1.161  0.00  0.00    +0.126 C 
BRANCH  13  19
ATOM      1  S   UNL     1      11.151   7.617  -0.980  0.00  0.00    -0.100 S 
ATOM     19  C   UNL     1       9.937   6.509  -1.416  0.00  0.00    +0.004 A 
ATOM     21  C   UNL     1       8.840   7.098  -1.973  0.00  0.00    +0.012 A 
ATOM     23  C   UNL     1       8.994   8.513  -2.048  0.00  0.00    +0.008 A 
ATOM     25  C   UNL     1      10.206   8.929  -1.543  0.00  0.00    +0.045 A 
ENDBRANCH  13  19
ENDBRANCH   3  13
TORSDOF 4
ENDMDL
MODEL 5
REMARK VINA RESULT:      -6.0     11.180     14.349
REMARK  Name = 9419221
REMARK  4 active torsions:
REMARK  status: ('A' for Active; 'I' for Inactive)
REMARK    1  A    between atoms: N_3  and  C_13
REMARK    2  A    between atoms: C_13  and  C_19
REMARK    3  A    between atoms: C_14  and  C_18
REMARK    4  A    between atoms: C_24  and  C_28
REMARK                            x       y       z     vdW  Elec       q    Type
REMARK                         _______ _______ _______ _____ _____    ______ ____
ROOT
ATOM      2  O   UNL     1      13.661   7.106   6.411  0.00  0.00    -0.268 OA
ATOM      3  N   UNL     1       8.759   7.329   5.528  0.00  0.00    -0.297 NA
ATOM      4  N   UNL     1      11.491   7.613   7.133  0.00  0.00    -0.311 N 
ATOM      6  C   UNL     1       9.669   5.814   7.298  0.00  0.00    +0.024 C 
ATOM      7  C   UNL     1       9.145   8.136   7.865  0.00  0.00    +0.051 C 
ATOM      8  C   UNL     1       9.103   6.703   8.392  0.00  0.00    +0.017 C 
ATOM      9  C   UNL     1       8.829   5.945   6.011  0.00  0.00    +0.090 C 
ATOM     10  C   UNL     1       8.285   8.236   6.583  0.00  0.00    +0.094 C 
ATOM     11  C   UNL     1      11.138   6.187   7.079  0.00  0.00    +0.130 C 
ATOM     12  C   UNL     1      10.583   8.587   7.593  0.00  0.00    +0.034 A 
ATOM     14  C   UNL     1      10.994   9.870   7.760  0.00  0.00    +0.002 A 
ATOM     15  C   UNL     1      12.823   7.919   6.803  0.00  0.00    +0.252 A 
ATOM     16  C   UNL     1      12.361  10.226   7.426  0.00  0.00    +0.015 A 
ATOM     17  C   UNL     1      13.235   9.333   6.963  0.00  0.00    +0.071 A 
ENDROOT
BRANCH  14  18
ATOM     18  C   UNL     1      10.082  10.922   8.260  0.00  0.00    -0.015 A 
ATOM     20  C   UNL     1       9.892  11.077   9.631  0.00  0.00    +0.027 A 
ATOM     22  C   UNL     1       9.419  11.747   7.357  0.00  0.00    +0.008 A 
ATOM     24  C   UNL     1       9.031  12.070  10.101  0.00  0.00    +0.052 A 
ATOM     26  C   UNL     1       8.560  12.740   7.829  0.00  0.00    +0.002 A 
ATOM     27  C   UNL     1       8.365  12.901   9.200  0.00  0.00    +0.019 A 
BRANCH  24  28
ATOM      5  N   UNL     1       8.668  12.371  12.649  0.00  0.00    -0.191 NA
ATOM     28  C   UNL     1       8.831  12.236  11.507  0.00  0.00    +0.099 C 
ENDBRANCH  24  28
ENDBRANCH  14  18
BRANCH   3  13
ATOM     13  C   UNL     1       7.918   7.425   4.338  0.00  0.00    +0.126 C 
BRANCH  13  19
ATOM      1  S   UNL     1       8.441   9.145   2.244  0.00  0.00    -0.100 S 
ATOM     19  C   UNL     1       8.724   7.703   3.102  0.00  0.00    +0.004 A 
ATOM     21  C   UNL     1       9.696   6.924   2.547  0.00  0.00    +0.012 A 
ATOM     23  C   UNL     1      10.233   7.525   1.372  0.00  0.00    +0.008 A 
ATOM     25  C   UNL     1       9.641   8.737   1.093  0.00  0.00    +0.045 A 
ENDBRANCH  13  19
ENDBRANCH   3  13
TORSDOF 4
ENDMDL
MODEL 6
REMARK VINA RESULT:      -5.9     27.456     29.384
REMARK  Name = 9419221
REMARK  4 active torsions:
REMARK  status: ('A' for Active; 'I' for Inactive)
REMARK    1  A    between atoms: N_3  and  C_13
REMARK    2  A    between atoms: C_13  and  C_19
REMARK    3  A    between atoms: C_14  and  C_18
REMARK    4  A    between atoms: C_24  and  C_28
REMARK                            x       y       z     vdW  Elec       q    Type
REMARK                         _______ _______ _______ _____ _____    ______ ____
ROOT
ATOM      2  O   UNL     1      -6.346 -15.211  16.714  0.00  0.00    -0.268 OA
ATOM      3  N   UNL     1      -6.461 -10.229  16.864  0.00  0.00    -0.297 NA
ATOM      4  N   UNL     1      -5.291 -13.147  16.381  0.00  0.00    -0.311 N 
ATOM      6  C   UNL     1      -4.880 -11.513  18.316  0.00  0.00    +0.024 C 
ATOM      7  C   UNL     1      -4.197 -10.909  16.044  0.00  0.00    +0.051 C 
ATOM      8  C   UNL     1      -3.696 -11.057  17.479  0.00  0.00    +0.017 C 
ATOM      9  C   UNL     1      -6.020 -10.477  18.242  0.00  0.00    +0.090 C 
ATOM     10  C   UNL     1      -5.330  -9.856  16.003  0.00  0.00    +0.094 C 
ATOM     11  C   UNL     1      -5.315 -12.898  17.829  0.00  0.00    +0.130 C 
ATOM     12  C   UNL     1      -4.679 -12.250  15.482  0.00  0.00    +0.034 A 
ATOM     14  C   UNL     1      -4.554 -12.584  14.172  0.00  0.00    +0.002 A 
ATOM     15  C   UNL     1      -5.815 -14.385  15.970  0.00  0.00    +0.252 A 
ATOM     16  C   UNL     1      -5.088 -13.852  13.710  0.00  0.00    +0.015 A 
ATOM     17  C   UNL     1      -5.696 -14.709  14.530  0.00  0.00    +0.071 A 
ENDROOT
BRANCH  14  18
ATOM     18  C   UNL     1      -3.901 -11.684  13.197  0.00  0.00    -0.015 A 
ATOM     20  C   UNL     1      -4.675 -10.812  12.435  0.00  0.00    +0.027 A 
ATOM     22  C   UNL     1      -2.519 -11.715  13.047  0.00  0.00    +0.008 A 
ATOM     24  C   UNL     1      -4.058  -9.963  11.516  0.00  0.00    +0.052 A 
ATOM     26  C   UNL     1      -1.903 -10.865  12.128  0.00  0.00    +0.002 A 
ATOM     27  C   UNL     1      -2.672  -9.990  11.362  0.00  0.00    +0.019 A 
BRANCH  24  28
ATOM      5  N   UNL     1      -5.486  -8.336  10.092  0.00  0.00    -0.191 NA
ATOM     28  C   UNL     1      -4.846  -9.065  10.731  0.00  0.00    +0.099 C 
ENDBRANCH  24  28
ENDBRANCH  14  18
BRANCH   3  13
ATOM     13  C   UNL     1      -7.506  -9.209  16.827  0.00  0.00    +0.126 C 
BRANCH  13  19
ATOM      1  S   UNL     1      -9.257 -11.302  16.415  0.00  0.00    -0.100 S 
ATOM     19  C   UNL     1      -8.866  -9.789  17.089  0.00  0.00    +0.004 A 
ATOM     21  C   UNL     1      -9.878  -9.246  17.825  0.00  0.00    +0.012 A 
ATOM     23  C   UNL     1     -11.021 -10.097  17.842  0.00  0.00    +0.008 A 
ATOM     25  C   UNL     1     -10.819 -11.250  17.115  0.00  0.00    +0.045 A 
ENDBRANCH  13  19
ENDBRANCH   3  13
TORSDOF 4
ENDMDL
MODEL 7
REMARK VINA RESULT:      -5.9     10.242     14.664
REMARK  Name = 9419221
REMARK  4 active torsions:
REMARK  status: ('A' for Active; 'I' for Inactive)
REMARK    1  A    between atoms: N_3  and  C_13
REMARK    2  A    between atoms: C_13  and  C_19
REMARK    3  A    between atoms: C_14  and  C_18
REMARK    4  A    between atoms: C_24  and  C_28
REMARK                            x       y       z     vdW  Elec       q    Type
REMARK                         _______ _______ _______ _____ _____    ______ ____
ROOT
ATOM      2  O   UNL     1      14.606  10.885   6.072  0.00  0.00    -0.268 OA
ATOM      3  N   UNL     1       9.942  10.900   7.836  0.00  0.00    -0.297 NA
ATOM      4  N   UNL     1      12.412  10.066   6.013  0.00  0.00    -0.311 N 
ATOM      6  C   UNL     1      10.417  11.589   5.479  0.00  0.00    +0.024 C 
ATOM      7  C   UNL     1      10.045   9.223   5.982  0.00  0.00    +0.051 C 
ATOM      8  C   UNL     1       9.782  10.315   4.947  0.00  0.00    +0.017 C 
ATOM      9  C   UNL     1       9.801  11.969   6.840  0.00  0.00    +0.090 C 
ATOM     10  C   UNL     1       9.405   9.629   7.331  0.00  0.00    +0.094 C 
ATOM     11  C   UNL     1      11.932  11.380   5.560  0.00  0.00    +0.130 C 
ATOM     12  C   UNL     1      11.546   8.964   6.148  0.00  0.00    +0.034 A 
ATOM     14  C   UNL     1      12.051   7.736   6.432  0.00  0.00    +0.002 A 
ATOM     15  C   UNL     1      13.802   9.959   6.192  0.00  0.00    +0.252 A 
ATOM     16  C   UNL     1      13.481   7.587   6.628  0.00  0.00    +0.015 A 
ATOM     17  C   UNL     1      14.323   8.616   6.534  0.00  0.00    +0.071 A 
ENDROOT
BRANCH  14  18
ATOM     18  C   UNL     1      11.182   6.546   6.562  0.00  0.00    -0.015 A 
ATOM     20  C   UNL     1      10.709   6.169   7.816  0.00  0.00    +0.027 A 
ATOM     22  C   UNL     1      10.844   5.811   5.430  0.00  0.00    +0.008 A 
ATOM     24  C   UNL     1       9.889   5.047   7.938  0.00  0.00    +0.052 A 
ATOM     26  C   UNL     1      10.023   4.689   5.552  0.00  0.00    +0.002 A 
ATOM     27  C   UNL     1       9.547   4.307   6.806  0.00  0.00    +0.019 A 
BRANCH  24  28
ATOM      5  N   UNL     1       9.003   4.335  10.266  0.00  0.00    -0.191 NA
ATOM     28  C   UNL     1       9.400   4.654   9.222  0.00  0.00    +0.099 C 
ENDBRANCH  24  28
ENDBRANCH  14  18
BRANCH   3  13
ATOM     13  C   UNL     1       9.306  11.274   9.097  0.00  0.00    +0.126 C 
BRANCH  13  19
ATOM      1  S   UNL     1      11.945  11.824   9.688  0.00  0.00    -0.100 S 
ATOM     19  C   UNL     1      10.314  11.654  10.143  0.00  0.00    +0.004 A 
ATOM     21  C   UNL     1      10.093  11.891  11.468  0.00  0.00    +0.012 A 
ATOM     23  C   UNL     1      11.303  12.225  12.143  0.00  0.00    +0.008 A 
ATOM     25  C   UNL     1      12.387  12.227  11.292  0.00  0.00    +0.045 A 
ENDBRANCH  13  19
ENDBRANCH   3  13
TORSDOF 4
ENDMDL
MODEL 8
REMARK VINA RESULT:      -5.9     14.165     16.695
REMARK  Name = 9419221
REMARK  4 active torsions:
REMARK  status: ('A' for Active; 'I' for Inactive)
REMARK    1  A    between atoms: N_3  and  C_13
REMARK    2  A    between atoms: C_13  and  C_19
REMARK    3  A    between atoms: C_14  and  C_18
REMARK    4  A    between atoms: C_24  and  C_28
REMARK                            x       y       z     vdW  Elec       q    Type
REMARK                         _______ _______ _______ _____ _____    ______ ____
ROOT
ATOM      2  O   UNL     1      13.080   9.412   6.565  0.00  0.00    -0.268 OA
ATOM      3  N   UNL     1       9.909   5.712   5.511  0.00  0.00    -0.297 NA
ATOM      4  N   UNL     1      10.887   8.615   6.369  0.00  0.00    -0.311 N 
ATOM      6  C   UNL     1      10.020   6.681   7.815  0.00  0.00    +0.024 C 
ATOM      7  C   UNL     1       8.551   7.713   6.151  0.00  0.00    +0.051 C 
ATOM      8  C   UNL     1       8.668   7.349   7.630  0.00  0.00    +0.017 C 
ATOM      9  C   UNL     1      10.119   5.419   6.934  0.00  0.00    +0.090 C 
ATOM     10  C   UNL     1       8.643   6.426   5.298  0.00  0.00    +0.094 C 
ATOM     11  C   UNL     1      11.115   7.703   7.499  0.00  0.00    +0.130 C 
ATOM     12  C   UNL     1       9.631   8.719   5.739  0.00  0.00    +0.034 A 
ATOM     14  C   UNL     1       9.424   9.672   4.794  0.00  0.00    +0.002 A 
ATOM     15  C   UNL     1      11.968   9.450   6.037  0.00  0.00    +0.252 A 
ATOM     16  C   UNL     1      10.518  10.549   4.422  0.00  0.00    +0.015 A 
ATOM     17  C   UNL     1      11.724  10.458   4.980  0.00  0.00    +0.071 A 
ENDROOT
BRANCH  14  18
ATOM     18  C   UNL     1       8.116   9.831   4.121  0.00  0.00    -0.015 A 
ATOM     20  C   UNL     1       7.124  10.609   4.714  0.00  0.00    +0.027 A 
ATOM     22  C   UNL     1       7.886   9.202   2.902  0.00  0.00    +0.008 A 
ATOM     24  C   UNL     1       5.891  10.759   4.078  0.00  0.00    +0.052 A 
ATOM     26  C   UNL     1       6.653   9.353   2.267  0.00  0.00    +0.002 A 
ATOM     27  C   UNL     1       5.656  10.131   2.855  0.00  0.00    +0.019 A 
BRANCH  24  28
ATOM      5  N   UNL     1       4.037  12.202   5.170  0.00  0.00    -0.191 NA
ATOM     28  C   UNL     1       4.868  11.555   4.680  0.00  0.00    +0.099 C 
ENDBRANCH  24  28
ENDBRANCH  14  18
BRANCH   3  13
ATOM     13  C   UNL     1       9.962   4.489   4.713  0.00  0.00    +0.126 C 
BRANCH  13  19
ATOM      1  S   UNL     1      11.693   6.103   3.294  0.00  0.00    -0.100 S 
ATOM     19  C   UNL     1      10.918   4.612   3.562  0.00  0.00    +0.004 A 
ATOM     21  C   UNL     1      11.265   3.650   2.659  0.00  0.00    +0.012 A 
ATOM     23  C   UNL     1      12.202   4.147   1.708  0.00  0.00    +0.008 A 
ATOM     25  C   UNL     1      12.522   5.468   1.937  0.00  0.00    +0.045 A 
ENDBRANCH  13  19
ENDBRANCH   3  13
TORSDOF 4
ENDMDL
MODEL 9
REMARK VINA RESULT:      -5.9     26.627     29.357
REMARK  Name = 9419221
REMARK  4 active torsions:
REMARK  status: ('A' for Active; 'I' for Inactive)
REMARK    1  A    between atoms: N_3  and  C_13
REMARK    2  A    between atoms: C_13  and  C_19
REMARK    3  A    between atoms: C_14  and  C_18
REMARK    4  A    between atoms: C_24  and  C_28
REMARK                            x       y       z     vdW  Elec       q    Type
REMARK                         _______ _______ _______ _____ _____    ______ ____
ROOT
ATOM      2  O   UNL     1      -7.571 -14.922  17.398  0.00  0.00    -0.268 OA
ATOM      3  N   UNL     1      -7.711  -9.963  16.891  0.00  0.00    -0.297 NA
ATOM      4  N   UNL     1      -6.490 -12.845  17.461  0.00  0.00    -0.311 N 
ATOM      6  C   UNL     1      -7.195 -11.005  19.106  0.00  0.00    +0.024 C 
ATOM      7  C   UNL     1      -5.374 -10.594  17.523  0.00  0.00    +0.051 C 
ATOM      8  C   UNL     1      -5.743 -10.570  19.005  0.00  0.00    +0.017 C 
ATOM      9  C   UNL     1      -8.099 -10.048  18.304  0.00  0.00    +0.090 C 
ATOM     10  C   UNL     1      -6.290  -9.616  16.750  0.00  0.00    +0.094 C 
ATOM     11  C   UNL     1      -7.302 -12.454  18.622  0.00  0.00    +0.130 C 
ATOM     12  C   UNL     1      -5.479 -12.009  16.946  0.00  0.00    +0.034 A 
ATOM     14  C   UNL     1      -4.658 -12.465  15.965  0.00  0.00    +0.002 A 
ATOM     15  C   UNL     1      -6.713 -14.145  16.976  0.00  0.00    +0.252 A 
ATOM     16  C   UNL     1      -4.861 -13.800  15.435  0.00  0.00    +0.015 A 
ATOM     17  C   UNL     1      -5.826 -14.604  15.883  0.00  0.00    +0.071 A 
ENDROOT
BRANCH  14  18
ATOM     18  C   UNL     1      -3.570 -11.631  15.409  0.00  0.00    -0.015 A 
ATOM     20  C   UNL     1      -3.560 -11.324  14.051  0.00  0.00    +0.027 A 
ATOM     22  C   UNL     1      -2.565 -11.160  16.247  0.00  0.00    +0.008 A 
ATOM     24  C   UNL     1      -2.534 -10.537  13.527  0.00  0.00    +0.052 A 
ATOM     26  C   UNL     1      -1.539 -10.373  15.723  0.00  0.00    +0.002 A 
ATOM     27  C   UNL     1      -1.523 -10.062  14.363  0.00  0.00    +0.019 A 
BRANCH  24  28
ATOM      5  N   UNL     1      -2.503  -9.959  11.002  0.00  0.00    -0.191 NA
ATOM     28  C   UNL     1      -2.516 -10.218  12.134  0.00  0.00    +0.099 C 
ENDBRANCH  24  28
ENDBRANCH  14  18
BRANCH   3  13
ATOM     13  C   UNL     1      -8.556  -9.013  16.173  0.00  0.00    +0.126 C 
BRANCH  13  19
ATOM      1  S   UNL     1     -10.814 -10.586  15.971  0.00  0.00    -0.100 S 
ATOM     19  C   UNL     1     -10.009  -9.188  16.510  0.00  0.00    +0.004 A 
ATOM     21  C   UNL     1     -10.809  -8.341  17.220  0.00  0.00    +0.012 A 
ATOM     23  C   UNL     1     -12.134  -8.852  17.331  0.00  0.00    +0.008 A 
ATOM     25  C   UNL     1     -12.275 -10.067  16.697  0.00  0.00    +0.045 A 
ENDBRANCH  13  19
ENDBRANCH   3  13
TORSDOF 4
ENDMDL
MODEL 10
REMARK VINA RESULT:      -5.7     15.186     18.683
REMARK  Name = 9419221
REMARK  4 active torsions:
REMARK  status: ('A' for Active; 'I' for Inactive)
REMARK    1  A    between atoms: N_3  and  C_13
REMARK    2  A    between atoms: C_13  and  C_19
REMARK    3  A    between atoms: C_14  and  C_18
REMARK    4  A    between atoms: C_24  and  C_28
REMARK                            x       y       z     vdW  Elec       q    Type
REMARK                         _______ _______ _______ _____ _____    ______ ____
ROOT
ATOM      2  O   UNL     1      10.213   6.081   7.643  0.00  0.00    -0.268 OA
ATOM      3  N   UNL     1      11.270   9.159   3.865  0.00  0.00    -0.297 NA
ATOM      4  N   UNL     1      11.381   6.538   5.665  0.00  0.00    -0.311 N 
ATOM      6  C   UNL     1      13.042   8.487   5.498  0.00  0.00    +0.024 C 
ATOM      7  C   UNL     1      12.618   7.075   3.544  0.00  0.00    +0.051 C 
ATOM      8  C   UNL     1      13.720   7.621   4.450  0.00  0.00    +0.017 C 
ATOM      9  C   UNL     1      12.271   9.641   4.824  0.00  0.00    +0.090 C 
ATOM     10  C   UNL     1      11.873   8.256   2.876  0.00  0.00    +0.094 C 
ATOM     11  C   UNL     1      12.134   7.597   6.352  0.00  0.00    +0.130 C 
ATOM     12  C   UNL     1      11.643   6.189   4.325  0.00  0.00    +0.034 A 
ATOM     14  C   UNL     1      11.025   5.114   3.773  0.00  0.00    +0.002 A 
ATOM     15  C   UNL     1      10.468   5.829   6.464  0.00  0.00    +0.252 A 
ATOM     16  C   UNL     1      10.072   4.359   4.565  0.00  0.00    +0.015 A 
ATOM     17  C   UNL     1       9.783   4.681   5.826  0.00  0.00    +0.071 A 
ENDROOT
BRANCH  14  18
ATOM     18  C   UNL     1      11.284   4.697   2.377  0.00  0.00    -0.015 A 
ATOM     20  C   UNL     1      10.399   5.069   1.369  0.00  0.00    +0.027 A 
ATOM     22  C   UNL     1      12.411   3.936   2.082  0.00  0.00    +0.008 A 
ATOM     24  C   UNL     1      10.645   4.676   0.053  0.00  0.00    +0.052 A 
ATOM     26  C   UNL     1      12.656   3.545   0.766  0.00  0.00    +0.002 A 
ATOM     27  C   UNL     1      11.773   3.914  -0.249  0.00  0.00    +0.019 A 
BRANCH  24  28
ATOM      5  N   UNL     1       9.004   5.360  -1.833  0.00  0.00    -0.191 NA
ATOM     28  C   UNL     1       9.740   5.053  -0.987  0.00  0.00    +0.099 C 
ENDBRANCH  24  28
ENDBRANCH  14  18
BRANCH   3  13
ATOM     13  C   UNL     1      10.594  10.276   3.211  0.00  0.00    +0.126 C 
BRANCH  13  19
ATOM      1  S   UNL     1       8.138  11.419   2.681  0.00  0.00    -0.100 S 
ATOM     19  C   UNL     1       9.100  10.165   3.312  0.00  0.00    +0.004 A 
ATOM     21  C   UNL     1       8.374   9.152   3.866  0.00  0.00    +0.012 A 
ATOM     23  C   UNL     1       6.975   9.407   3.774  0.00  0.00    +0.008 A 
ATOM     25  C   UNL     1       6.707  10.606   3.151  0.00  0.00    +0.045 A 
ENDBRANCH  13  19
ENDBRANCH   3  13
TORSDOF 4
ENDMDL
