MODEL 1
REMARK VINA RESULT:      -8.1      0.000      0.000
REMARK  Name = 11885295
REMARK  3 active torsions:
REMARK  status: ('A' for Active; 'I' for Inactive)
REMARK    1  A    between atoms: N_3  and  C_12
REMARK    2  A    between atoms: C_12  and  C_17
REMARK    3  A    between atoms: C_15  and  C_18
REMARK                            x       y       z     vdW  Elec       q    Type
REMARK                         _______ _______ _______ _____ _____    ______ ____
ROOT
ATOM      2  O   UNL     1      -6.180 -11.635  11.080  0.00  0.00    -0.267 OA
ATOM      3  N   UNL     1      -3.164 -11.116  15.052  0.00  0.00    -0.297 NA
ATOM      4  N   UNL     1      -4.055 -11.666  12.039  0.00  0.00    -0.311 N 
ATOM      5  C   UNL     1      -3.390 -13.321  13.881  0.00  0.00    +0.024 C 
ATOM      6  C   UNL     1      -1.757 -11.688  13.068  0.00  0.00    +0.050 C 
ATOM      7  C   UNL     1      -1.990 -13.178  13.299  0.00  0.00    +0.017 C 
ATOM      8  C   UNL     1      -3.495 -12.538  15.206  0.00  0.00    +0.090 C 
ATOM      9  C   UNL     1      -1.850 -10.935  14.416  0.00  0.00    +0.094 C 
ATOM     10  C   UNL     1      -4.411 -12.849  12.836  0.00  0.00    +0.130 C 
ATOM     11  C   UNL     1      -2.765 -11.131  12.079  0.00  0.00    +0.026 A 
ATOM     13  C   UNL     1      -2.429 -10.121  11.261  0.00  0.00    +0.022 A 
ATOM     14  C   UNL     1      -5.043 -11.169  11.167  0.00  0.00    +0.259 A 
ATOM     15  C   UNL     1      -4.646 -10.013  10.287  0.00  0.00    +0.047 A 
ATOM     16  C   UNL     1      -3.389  -9.553  10.358  0.00  0.00    +0.015 A 
ENDROOT
BRANCH  15  18
ATOM     18  C   UNL     1      -5.613  -9.387   9.368  0.00  0.00    -0.012 A 
ATOM     21  C   UNL     1      -5.641  -9.760   8.023  0.00  0.00    +0.017 A 
ATOM     22  C   UNL     1      -6.499  -8.422   9.841  0.00  0.00    +0.009 A 
ATOM     25  C   UNL     1      -6.557  -9.172   7.135  0.00  0.00    -0.017 A 
ATOM     27  C   UNL     1      -7.415  -7.828   8.972  0.00  0.00    +0.009 A 
ATOM     28  C   UNL     1      -7.456  -8.192   7.616  0.00  0.00    -0.018 A 
ATOM     29  C   UNL     1      -6.598  -9.535   5.779  0.00  0.00    +0.008 A 
ATOM     30  C   UNL     1      -8.372  -7.604   6.728  0.00  0.00    +0.008 A 
ATOM     31  C   UNL     1      -7.514  -8.942   4.910  0.00  0.00    +0.001 A 
ATOM     32  C   UNL     1      -8.399  -7.977   5.384  0.00  0.00    +0.001 A 
ENDBRANCH  15  18
BRANCH   3  12
ATOM     12  C   UNL     1      -3.221 -10.422  16.337  0.00  0.00    +0.119 C 
BRANCH  12  17
ATOM      1  F   UNL     1      -8.523  -9.926  18.134  0.00  0.00    -0.205 F 
ATOM     17  C   UNL     1      -4.640 -10.290  16.818  0.00  0.00    -0.033 A 
ATOM     19  C   UNL     1      -4.989 -10.788  18.066  0.00  0.00    +0.008 A 
ATOM     20  C   UNL     1      -5.582  -9.670  16.008  0.00  0.00    +0.008 A 
ATOM     23  C   UNL     1      -6.305 -10.665  18.512  0.00  0.00    +0.038 A 
ATOM     24  C   UNL     1      -6.898  -9.547  16.454  0.00  0.00    +0.038 A 
ATOM     26  C   UNL     1      -7.260 -10.045  17.706  0.00  0.00    +0.123 A 
ENDBRANCH  12  17
ENDBRANCH   3  12
TORSDOF 3
ENDMDL
MODEL 2
REMARK VINA RESULT:      -7.8     23.219     25.099
REMARK  Name = 11885295
REMARK  3 active torsions:
REMARK  status: ('A' for Active; 'I' for Inactive)
REMARK    1  A    between atoms: N_3  and  C_12
REMARK    2  A    between atoms: C_12  and  C_17
REMARK    3  A    between atoms: C_15  and  C_18
REMARK                            x       y       z     vdW  Elec       q    Type
REMARK                         _______ _______ _______ _____ _____    ______ ____
ROOT
ATOM      2  O   UNL     1      10.246   3.887   3.308  0.00  0.00    -0.267 OA
ATOM      3  N   UNL     1       9.180   8.074   5.854  0.00  0.00    -0.297 NA
ATOM      4  N   UNL     1      10.878   5.611   4.745  0.00  0.00    -0.311 N 
ATOM      5  C   UNL     1       9.804   5.959   7.047  0.00  0.00    +0.024 C 
ATOM      6  C   UNL     1      11.568   7.477   6.288  0.00  0.00    +0.050 C 
ATOM      7  C   UNL     1      11.157   6.547   7.425  0.00  0.00    +0.017 C 
ATOM      8  C   UNL     1       8.769   7.088   6.861  0.00  0.00    +0.090 C 
ATOM      9  C   UNL     1      10.521   8.606   6.139  0.00  0.00    +0.094 C 
ATOM     10  C   UNL     1       9.973   5.101   5.785  0.00  0.00    +0.130 C 
ATOM     11  C   UNL     1      11.707   6.709   4.986  0.00  0.00    +0.026 A 
ATOM     13  C   UNL     1      12.605   7.090   4.064  0.00  0.00    +0.022 A 
ATOM     14  C   UNL     1      10.937   4.880   3.543  0.00  0.00    +0.259 A 
ATOM     15  C   UNL     1      11.930   5.352   2.514  0.00  0.00    +0.047 A 
ATOM     16  C   UNL     1      12.710   6.402   2.809  0.00  0.00    +0.015 A 
ENDROOT
BRANCH  15  18
ATOM     18  C   UNL     1      12.046   4.688   1.204  0.00  0.00    -0.012 A 
ATOM     21  C   UNL     1      11.104   4.941   0.206  0.00  0.00    +0.017 A 
ATOM     22  C   UNL     1      13.097   3.806   0.961  0.00  0.00    +0.009 A 
ATOM     25  C   UNL     1      11.201   4.316  -1.048  0.00  0.00    -0.017 A 
ATOM     27  C   UNL     1      13.208   3.177  -0.279  0.00  0.00    +0.009 A 
ATOM     28  C   UNL     1      12.269   3.421  -1.294  0.00  0.00    -0.018 A 
ATOM     29  C   UNL     1      10.262   4.560  -2.063  0.00  0.00    +0.008 A 
ATOM     30  C   UNL     1      12.367   2.796  -2.548  0.00  0.00    +0.008 A 
ATOM     31  C   UNL     1      10.374   3.931  -3.303  0.00  0.00    +0.001 A 
ATOM     32  C   UNL     1      11.424   3.050  -3.544  0.00  0.00    +0.001 A 
ENDBRANCH  15  18
BRANCH   3  12
ATOM     12  C   UNL     1       8.202   9.153   5.746  0.00  0.00    +0.119 C 
BRANCH  12  17
ATOM      1  F   UNL     1       6.301   9.642   0.480  0.00  0.00    -0.205 F 
ATOM     17  C   UNL     1       7.693   9.285   4.337  0.00  0.00    -0.033 A 
ATOM     19  C   UNL     1       8.418   8.724   3.293  0.00  0.00    +0.008 A 
ATOM     20  C   UNL     1       6.507   9.964   4.098  0.00  0.00    +0.008 A 
ATOM     23  C   UNL     1       7.946   8.846   1.986  0.00  0.00    +0.038 A 
ATOM     24  C   UNL     1       6.035  10.085   2.791  0.00  0.00    +0.038 A 
ATOM     26  C   UNL     1       6.754   9.526   1.735  0.00  0.00    +0.123 A 
ENDBRANCH  12  17
ENDBRANCH   3  12
TORSDOF 3
ENDMDL
MODEL 3
REMARK VINA RESULT:      -7.7      3.273      6.230
REMARK  Name = 11885295
REMARK  3 active torsions:
REMARK  status: ('A' for Active; 'I' for Inactive)
REMARK    1  A    between atoms: N_3  and  C_12
REMARK    2  A    between atoms: C_12  and  C_17
REMARK    3  A    between atoms: C_15  and  C_18
REMARK                            x       y       z     vdW  Elec       q    Type
REMARK                         _______ _______ _______ _____ _____    ______ ____
ROOT
ATOM      2  O   UNL     1      -7.109 -12.387  14.427  0.00  0.00    -0.267 OA
ATOM      3  N   UNL     1      -9.544 -10.770  18.502  0.00  0.00    -0.297 NA
ATOM      4  N   UNL     1      -7.210 -12.028  16.729  0.00  0.00    -0.311 N 
ATOM      5  C   UNL     1      -8.928 -13.186  18.238  0.00  0.00    +0.024 C 
ATOM      6  C   UNL     1      -7.308 -11.629  19.213  0.00  0.00    +0.050 C 
ATOM      7  C   UNL     1      -7.856 -13.050  19.312  0.00  0.00    +0.017 C 
ATOM      8  C   UNL     1     -10.046 -12.149  18.473  0.00  0.00    +0.090 C 
ATOM      9  C   UNL     1      -8.449 -10.617  19.470  0.00  0.00    +0.094 C 
ATOM     10  C   UNL     1      -8.269 -13.039  16.860  0.00  0.00    +0.130 C 
ATOM     11  C   UNL     1      -6.681 -11.387  17.852  0.00  0.00    +0.026 A 
ATOM     13  C   UNL     1      -5.640 -10.550  17.722  0.00  0.00    +0.022 A 
ATOM     14  C   UNL     1      -6.692 -11.816  15.436  0.00  0.00    +0.259 A 
ATOM     15  C   UNL     1      -5.547 -10.846  15.318  0.00  0.00    +0.047 A 
ATOM     16  C   UNL     1      -5.072 -10.274  16.434  0.00  0.00    +0.015 A 
ENDROOT
BRANCH  15  18
ATOM     18  C   UNL     1      -4.957 -10.517  14.009  0.00  0.00    -0.012 A 
ATOM     21  C   UNL     1      -5.707  -9.819  13.060  0.00  0.00    +0.017 A 
ATOM     22  C   UNL     1      -3.651 -10.902  13.716  0.00  0.00    +0.009 A 
ATOM     25  C   UNL     1      -5.158  -9.498  11.807  0.00  0.00    -0.017 A 
ATOM     27  C   UNL     1      -3.091 -10.591  12.477  0.00  0.00    +0.009 A 
ATOM     28  C   UNL     1      -3.831  -9.890  11.512  0.00  0.00    -0.018 A 
ATOM     29  C   UNL     1      -5.898  -8.797  10.841  0.00  0.00    +0.008 A 
ATOM     30  C   UNL     1      -3.282  -9.568  10.259  0.00  0.00    +0.008 A 
ATOM     31  C   UNL     1      -5.338  -8.486   9.602  0.00  0.00    +0.001 A 
ATOM     32  C   UNL     1      -4.032  -8.872   9.312  0.00  0.00    +0.001 A 
ENDBRANCH  15  18
BRANCH   3  12
ATOM     12  C   UNL     1     -10.623  -9.824  18.780  0.00  0.00    +0.119 C 
BRANCH  12  17
ATOM      1  F   UNL     1     -11.510  -6.417  14.399  0.00  0.00    -0.205 F 
ATOM     17  C   UNL     1     -10.860  -8.913  17.607  0.00  0.00    -0.033 A 
ATOM     19  C   UNL     1     -12.084  -8.947  16.951  0.00  0.00    +0.008 A 
ATOM     20  C   UNL     1      -9.854  -8.049  17.197  0.00  0.00    +0.008 A 
ATOM     23  C   UNL     1     -12.303  -8.101  15.863  0.00  0.00    +0.038 A 
ATOM     24  C   UNL     1     -10.074  -7.204  16.110  0.00  0.00    +0.038 A 
ATOM     26  C   UNL     1     -11.298  -7.229  15.443  0.00  0.00    +0.123 A 
ENDBRANCH  12  17
ENDBRANCH   3  12
TORSDOF 3
ENDMDL
MODEL 4
REMARK VINA RESULT:      -7.6     18.803     21.703
REMARK  Name = 11885295
REMARK  3 active torsions:
REMARK  status: ('A' for Active; 'I' for Inactive)
REMARK    1  A    between atoms: N_3  and  C_12
REMARK    2  A    between atoms: C_12  and  C_17
REMARK    3  A    between atoms: C_15  and  C_18
REMARK                            x       y       z     vdW  Elec       q    Type
REMARK                         _______ _______ _______ _____ _____    ______ ____
ROOT
ATOM      2  O   UNL     1      -6.580   9.607   5.161  0.00  0.00    -0.267 OA
ATOM      3  N   UNL     1      -1.842  10.333   3.691  0.00  0.00    -0.297 NA
ATOM      4  N   UNL     1      -4.290   9.263   5.432  0.00  0.00    -0.311 N 
ATOM      5  C   UNL     1      -2.649  11.174   5.910  0.00  0.00    +0.024 C 
ATOM      6  C   UNL     1      -1.819   8.879   5.722  0.00  0.00    +0.050 C 
ATOM      7  C   UNL     1      -1.842  10.103   6.632  0.00  0.00    +0.017 C 
ATOM      8  C   UNL     1      -1.991  11.510   4.556  0.00  0.00    +0.090 C 
ATOM      9  C   UNL     1      -1.138   9.243   4.382  0.00  0.00    +0.094 C 
ATOM     10  C   UNL     1      -4.095  10.684   5.756  0.00  0.00    +0.130 C 
ATOM     11  C   UNL     1      -3.225   8.361   5.478  0.00  0.00    +0.026 A 
ATOM     13  C   UNL     1      -3.444   7.050   5.288  0.00  0.00    +0.022 A 
ATOM     14  C   UNL     1      -5.611   8.847   5.176  0.00  0.00    +0.259 A 
ATOM     15  C   UNL     1      -5.820   7.376   4.934  0.00  0.00    +0.047 A 
ATOM     16  C   UNL     1      -4.761   6.556   5.006  0.00  0.00    +0.015 A 
ENDROOT
BRANCH  15  18
ATOM     18  C   UNL     1      -7.153   6.836   4.614  0.00  0.00    -0.012 A 
ATOM     21  C   UNL     1      -7.837   7.289   3.485  0.00  0.00    +0.017 A 
ATOM     22  C   UNL     1      -7.732   5.875   5.439  0.00  0.00    +0.009 A 
ATOM     25  C   UNL     1      -9.109   6.784   3.166  0.00  0.00    -0.017 A 
ATOM     27  C   UNL     1      -8.994   5.363   5.137  0.00  0.00    +0.009 A 
ATOM     28  C   UNL     1      -9.696   5.807   4.005  0.00  0.00    -0.018 A 
ATOM     29  C   UNL     1      -9.811   7.228   2.034  0.00  0.00    +0.008 A 
ATOM     30  C   UNL     1     -10.967   5.302   3.686  0.00  0.00    +0.008 A 
ATOM     31  C   UNL     1     -11.073   6.716   1.732  0.00  0.00    +0.001 A 
ATOM     32  C   UNL     1     -11.650   5.755   2.558  0.00  0.00    +0.001 A 
ENDBRANCH  15  18
BRANCH   3  12
ATOM     12  C   UNL     1      -1.166  10.682   2.443  0.00  0.00    +0.119 C 
BRANCH  12  17
ATOM      1  F   UNL     1      -4.253   9.194  -2.011  0.00  0.00    -0.205 F 
ATOM     17  C   UNL     1      -1.992  10.285   1.250  0.00  0.00    -0.033 A 
ATOM     19  C   UNL     1      -1.382   9.648   0.178  0.00  0.00    +0.008 A 
ATOM     20  C   UNL     1      -3.352  10.559   1.238  0.00  0.00    +0.008 A 
ATOM     23  C   UNL     1      -2.149   9.278  -0.928  0.00  0.00    +0.038 A 
ATOM     24  C   UNL     1      -4.119  10.189   0.133  0.00  0.00    +0.038 A 
ATOM     26  C   UNL     1      -3.517   9.549  -0.950  0.00  0.00    +0.123 A 
ENDBRANCH  12  17
ENDBRANCH   3  12
TORSDOF 3
ENDMDL
MODEL 5
REMARK VINA RESULT:      -7.6     23.833     25.720
REMARK  Name = 11885295
REMARK  3 active torsions:
REMARK  status: ('A' for Active; 'I' for Inactive)
REMARK    1  A    between atoms: N_3  and  C_12
REMARK    2  A    between atoms: C_12  and  C_17
REMARK    3  A    between atoms: C_15  and  C_18
REMARK                            x       y       z     vdW  Elec       q    Type
REMARK                         _______ _______ _______ _____ _____    ______ ____
ROOT
ATOM      2  O   UNL     1      10.152   7.225   1.925  0.00  0.00    -0.267 OA
ATOM      3  N   UNL     1      10.759   8.618   6.704  0.00  0.00    -0.297 NA
ATOM      4  N   UNL     1       9.617   7.028   4.186  0.00  0.00    -0.311 N 
ATOM      5  C   UNL     1       8.566   8.939   5.532  0.00  0.00    +0.024 C 
ATOM      6  C   UNL     1       9.045   6.803   6.627  0.00  0.00    +0.050 C 
ATOM      7  C   UNL     1       7.941   7.820   6.354  0.00  0.00    +0.017 C 
ATOM      8  C   UNL     1       9.726   9.587   6.317  0.00  0.00    +0.090 C 
ATOM      9  C   UNL     1      10.182   7.477   7.429  0.00  0.00    +0.094 C 
ATOM     10  C   UNL     1       9.016   8.370   4.180  0.00  0.00    +0.130 C 
ATOM     11  C   UNL     1       9.581   6.227   5.329  0.00  0.00    +0.026 A 
ATOM     13  C   UNL     1      10.035   4.964   5.282  0.00  0.00    +0.022 A 
ATOM     14  C   UNL     1      10.134   6.560   2.962  0.00  0.00    +0.259 A 
ATOM     15  C   UNL     1      10.667   5.152   2.949  0.00  0.00    +0.047 A 
ATOM     16  C   UNL     1      10.591   4.426   4.074  0.00  0.00    +0.015 A 
ENDROOT
BRANCH  15  18
ATOM     18  C   UNL     1      11.271   4.576   1.735  0.00  0.00    -0.012 A 
ATOM     21  C   UNL     1      10.581   4.624   0.522  0.00  0.00    +0.017 A 
ATOM     22  C   UNL     1      12.529   3.982   1.796  0.00  0.00    +0.009 A 
ATOM     25  C   UNL     1      11.143   4.079  -0.645  0.00  0.00    -0.017 A 
ATOM     27  C   UNL     1      13.101   3.436   0.647  0.00  0.00    +0.009 A 
ATOM     28  C   UNL     1      12.422   3.476  -0.581  0.00  0.00    -0.018 A 
ATOM     29  C   UNL     1      10.464   4.119  -1.873  0.00  0.00    +0.008 A 
ATOM     30  C   UNL     1      12.984   2.932  -1.748  0.00  0.00    +0.008 A 
ATOM     31  C   UNL     1      11.036   3.573  -3.022  0.00  0.00    +0.001 A 
ATOM     32  C   UNL     1      12.294   2.980  -2.959  0.00  0.00    +0.001 A 
ENDBRANCH  15  18
BRANCH   3  12
ATOM     12  C   UNL     1      11.811   9.259   7.490  0.00  0.00    +0.119 C 
BRANCH  12  17
ATOM      1  F   UNL     1      16.896   8.103   5.395  0.00  0.00    -0.205 F 
ATOM     17  C   UNL     1      13.172   8.950   6.929  0.00  0.00    -0.033 A 
ATOM     19  C   UNL     1      14.037   9.991   6.619  0.00  0.00    +0.008 A 
ATOM     20  C   UNL     1      13.545   7.628   6.729  0.00  0.00    +0.008 A 
ATOM     23  C   UNL     1      15.299   9.703   6.099  0.00  0.00    +0.038 A 
ATOM     24  C   UNL     1      14.807   7.341   6.209  0.00  0.00    +0.038 A 
ATOM     26  C   UNL     1      15.684   8.378   5.894  0.00  0.00    +0.123 A 
ENDBRANCH  12  17
ENDBRANCH   3  12
TORSDOF 3
ENDMDL
MODEL 6
REMARK VINA RESULT:      -7.6     19.196     22.809
REMARK  Name = 11885295
REMARK  3 active torsions:
REMARK  status: ('A' for Active; 'I' for Inactive)
REMARK    1  A    between atoms: N_3  and  C_12
REMARK    2  A    between atoms: C_12  and  C_17
REMARK    3  A    between atoms: C_15  and  C_18
REMARK                            x       y       z     vdW  Elec       q    Type
REMARK                         _______ _______ _______ _____ _____    ______ ____
ROOT
ATOM      2  O   UNL     1      -6.014  10.487   3.592  0.00  0.00    -0.267 OA
ATOM      3  N   UNL     1      -1.466  10.052   1.525  0.00  0.00    -0.297 NA
ATOM      4  N   UNL     1      -3.700  10.284   3.790  0.00  0.00    -0.311 N 
ATOM      5  C   UNL     1      -2.073  12.056   2.905  0.00  0.00    +0.024 C 
ATOM      6  C   UNL     1      -1.202  10.052   4.010  0.00  0.00    +0.050 C 
ATOM      7  C   UNL     1      -1.169  11.578   4.033  0.00  0.00    +0.017 C 
ATOM      8  C   UNL     1      -1.561  11.518   1.552  0.00  0.00    +0.090 C 
ATOM      9  C   UNL     1      -0.667   9.545   2.650  0.00  0.00    +0.094 C 
ATOM     10  C   UNL     1      -3.513  11.619   3.205  0.00  0.00    +0.130 C 
ATOM     11  C   UNL     1      -2.611   9.539   4.250  0.00  0.00    +0.026 A 
ATOM     13  C   UNL     1      -2.811   8.372   4.882  0.00  0.00    +0.022 A 
ATOM     14  C   UNL     1      -5.027   9.843   3.953  0.00  0.00    +0.259 A 
ATOM     15  C   UNL     1      -5.219   8.514   4.635  0.00  0.00    +0.047 A 
ATOM     16  C   UNL     1      -4.135   7.853   5.069  0.00  0.00    +0.015 A 
ENDROOT
BRANCH  15  18
ATOM     18  C   UNL     1      -6.562   7.937   4.819  0.00  0.00    -0.012 A 
ATOM     21  C   UNL     1      -6.941   6.805   4.097  0.00  0.00    +0.017 A 
ATOM     22  C   UNL     1      -7.454   8.522   5.715  0.00  0.00    +0.009 A 
ATOM     25  C   UNL     1      -8.218   6.243   4.262  0.00  0.00    -0.017 A 
ATOM     27  C   UNL     1      -8.726   7.976   5.891  0.00  0.00    +0.009 A 
ATOM     28  C   UNL     1      -9.123   6.837   5.173  0.00  0.00    -0.018 A 
ATOM     29  C   UNL     1      -8.615   5.104   3.543  0.00  0.00    +0.008 A 
ATOM     30  C   UNL     1     -10.400   6.275   5.338  0.00  0.00    +0.008 A 
ATOM     31  C   UNL     1      -9.887   4.558   3.720  0.00  0.00    +0.001 A 
ATOM     32  C   UNL     1     -10.778   5.144   4.615  0.00  0.00    +0.001 A 
ENDBRANCH  15  18
BRANCH   3  12
ATOM     12  C   UNL     1      -0.927   9.586   0.249  0.00  0.00    +0.119 C 
BRANCH  12  17
ATOM      1  F   UNL     1      -4.496  10.637  -3.963  0.00  0.00    -0.205 F 
ATOM     17  C   UNL     1      -1.882   9.868  -0.878  0.00  0.00    -0.033 A 
ATOM     19  C   UNL     1      -1.415  10.477  -2.034  0.00  0.00    +0.008 A 
ATOM     20  C   UNL     1      -3.218   9.514  -0.747  0.00  0.00    +0.008 A 
ATOM     23  C   UNL     1      -2.301  10.738  -3.079  0.00  0.00    +0.038 A 
ATOM     24  C   UNL     1      -4.104   9.774  -1.792  0.00  0.00    +0.038 A 
ATOM     26  C   UNL     1      -3.646  10.387  -2.959  0.00  0.00    +0.123 A 
ENDBRANCH  12  17
ENDBRANCH   3  12
TORSDOF 3
ENDMDL
MODEL 7
REMARK VINA RESULT:      -7.6     24.363     26.239
REMARK  Name = 11885295
REMARK  3 active torsions:
REMARK  status: ('A' for Active; 'I' for Inactive)
REMARK    1  A    between atoms: N_3  and  C_12
REMARK    2  A    between atoms: C_12  and  C_17
REMARK    3  A    between atoms: C_15  and  C_18
REMARK                            x       y       z     vdW  Elec       q    Type
REMARK                         _______ _______ _______ _____ _____    ______ ____
ROOT
ATOM      2  O   UNL     1      12.154   7.822   2.327  0.00  0.00    -0.267 OA
ATOM      3  N   UNL     1      13.515   4.167  -0.825  0.00  0.00    -0.297 NA
ATOM      4  N   UNL     1      12.752   5.605   1.918  0.00  0.00    -0.311 N 
ATOM      5  C   UNL     1      15.051   4.938   1.001  0.00  0.00    +0.024 C 
ATOM      6  C   UNL     1      13.385   3.208   1.478  0.00  0.00    +0.050 C 
ATOM      7  C   UNL     1      14.818   3.644   1.770  0.00  0.00    +0.017 C 
ATOM      8  C   UNL     1      14.847   4.699  -0.510  0.00  0.00    +0.090 C 
ATOM      9  C   UNL     1      13.219   2.961  -0.039  0.00  0.00    +0.094 C 
ATOM     10  C   UNL     1      14.116   6.020   1.557  0.00  0.00    +0.130 C 
ATOM     11  C   UNL     1      12.395   4.255   1.956  0.00  0.00    +0.026 A 
ATOM     13  C   UNL     1      11.180   3.892   2.395  0.00  0.00    +0.022 A 
ATOM     14  C   UNL     1      11.865   6.624   2.316  0.00  0.00    +0.259 A 
ATOM     15  C   UNL     1      10.497   6.188   2.770  0.00  0.00    +0.047 A 
ATOM     16  C   UNL     1      10.218   4.876   2.801  0.00  0.00    +0.015 A 
ENDROOT
BRANCH  15  18
ATOM     18  C   UNL     1       9.475   7.172   3.167  0.00  0.00    -0.012 A 
ATOM     21  C   UNL     1       8.785   7.895   2.193  0.00  0.00    +0.017 A 
ATOM     22  C   UNL     1       9.197   7.382   4.516  0.00  0.00    +0.009 A 
ATOM     25  C   UNL     1       7.807   8.836   2.556  0.00  0.00    -0.017 A 
ATOM     27  C   UNL     1       8.229   8.313   4.894  0.00  0.00    +0.009 A 
ATOM     28  C   UNL     1       7.526   9.048   3.926  0.00  0.00    -0.018 A 
ATOM     29  C   UNL     1       7.104   9.572   1.588  0.00  0.00    +0.008 A 
ATOM     30  C   UNL     1       6.548   9.989   4.289  0.00  0.00    +0.008 A 
ATOM     31  C   UNL     1       6.136  10.503   1.966  0.00  0.00    +0.001 A 
ATOM     32  C   UNL     1       5.860  10.711   3.314  0.00  0.00    +0.001 A 
ENDBRANCH  15  18
BRANCH   3  12
ATOM     12  C   UNL     1      13.381   3.904  -2.256  0.00  0.00    +0.119 C 
BRANCH  12  17
ATOM      1  F   UNL     1       8.020   4.309  -3.894  0.00  0.00    -0.205 F 
ATOM     17  C   UNL     1      11.946   4.012  -2.694  0.00  0.00    -0.033 A 
ATOM     19  C   UNL     1      11.186   5.100  -2.285  0.00  0.00    +0.008 A 
ATOM     20  C   UNL     1      11.401   3.024  -3.502  0.00  0.00    +0.008 A 
ATOM     23  C   UNL     1       9.855   5.200  -2.691  0.00  0.00    +0.038 A 
ATOM     24  C   UNL     1      10.071   3.124  -3.909  0.00  0.00    +0.038 A 
ATOM     26  C   UNL     1       9.297   4.212  -3.503  0.00  0.00    +0.123 A 
ENDBRANCH  12  17
ENDBRANCH   3  12
TORSDOF 3
ENDMDL
MODEL 8
REMARK VINA RESULT:      -7.3     20.882     23.996
REMARK  Name = 11885295
REMARK  3 active torsions:
REMARK  status: ('A' for Active; 'I' for Inactive)
REMARK    1  A    between atoms: N_3  and  C_12
REMARK    2  A    between atoms: C_12  and  C_17
REMARK    3  A    between atoms: C_15  and  C_18
REMARK                            x       y       z     vdW  Elec       q    Type
REMARK                         _______ _______ _______ _____ _____    ______ ____
ROOT
ATOM      2  O   UNL     1       9.254 -11.469  32.009  0.00  0.00    -0.267 OA
ATOM      3  N   UNL     1       7.462  -8.231  35.394  0.00  0.00    -0.297 NA
ATOM      4  N   UNL     1       8.661  -9.304  32.639  0.00  0.00    -0.311 N 
ATOM      5  C   UNL     1       9.818  -8.052  34.554  0.00  0.00    +0.024 C 
ATOM      6  C   UNL     1       8.010  -6.966  33.310  0.00  0.00    +0.050 C 
ATOM      7  C   UNL     1       9.460  -6.804  33.758  0.00  0.00    +0.017 C 
ATOM      8  C   UNL     1       8.881  -8.189  35.772  0.00  0.00    +0.090 C 
ATOM      9  C   UNL     1       7.096  -7.082  34.552  0.00  0.00    +0.094 C 
ATOM     10  C   UNL     1       9.754  -9.269  33.621  0.00  0.00    +0.130 C 
ATOM     11  C   UNL     1       7.853  -8.185  32.420  0.00  0.00    +0.026 A 
ATOM     13  C   UNL     1       6.934  -8.199  31.442  0.00  0.00    +0.022 A 
ATOM     14  C   UNL     1       8.538 -10.476  31.868  0.00  0.00    +0.259 A 
ATOM     15  C   UNL     1       7.476 -10.474  30.801  0.00  0.00    +0.047 A 
ATOM     16  C   UNL     1       6.742  -9.365  30.627  0.00  0.00    +0.015 A 
ENDROOT
BRANCH  15  18
ATOM     18  C   UNL     1       7.231 -11.662  29.965  0.00  0.00    -0.012 A 
ATOM     21  C   UNL     1       6.124 -12.475  30.213  0.00  0.00    +0.017 A 
ATOM     22  C   UNL     1       8.105 -11.975  28.927  0.00  0.00    +0.009 A 
ATOM     25  C   UNL     1       5.877 -13.611  29.424  0.00  0.00    -0.017 A 
ATOM     27  C   UNL     1       7.875 -13.099  28.134  0.00  0.00    +0.009 A 
ATOM     28  C   UNL     1       6.766 -13.927  28.369  0.00  0.00    -0.018 A 
ATOM     29  C   UNL     1       4.768 -14.439  29.659  0.00  0.00    +0.008 A 
ATOM     30  C   UNL     1       6.519 -15.063  27.580  0.00  0.00    +0.008 A 
ATOM     31  C   UNL     1       4.538 -15.564  28.866  0.00  0.00    +0.001 A 
ATOM     32  C   UNL     1       5.412 -15.875  27.829  0.00  0.00    +0.001 A 
ENDBRANCH  15  18
BRANCH   3  12
ATOM     12  C   UNL     1       6.607  -8.307  36.576  0.00  0.00    +0.119 C 
BRANCH  12  17
ATOM      1  F   UNL     1       1.861 -11.103  35.463  0.00  0.00    -0.205 F 
ATOM     17  C   UNL     1       5.336  -9.055  36.278  0.00  0.00    -0.033 A 
ATOM     19  C   UNL     1       5.308  -9.963  35.228  0.00  0.00    +0.008 A 
ATOM     20  C   UNL     1       4.210  -8.828  37.056  0.00  0.00    +0.008 A 
ATOM     23  C   UNL     1       4.129 -10.657  34.952  0.00  0.00    +0.038 A 
ATOM     24  C   UNL     1       3.032  -9.522  36.780  0.00  0.00    +0.038 A 
ATOM     26  C   UNL     1       2.991 -10.436  35.728  0.00  0.00    +0.123 A 
ENDBRANCH  12  17
ENDBRANCH   3  12
TORSDOF 3
ENDMDL
MODEL 9
REMARK VINA RESULT:      -7.3     24.130     28.616
REMARK  Name = 11885295
REMARK  3 active torsions:
REMARK  status: ('A' for Active; 'I' for Inactive)
REMARK    1  A    between atoms: N_3  and  C_12
REMARK    2  A    between atoms: C_12  and  C_17
REMARK    3  A    between atoms: C_15  and  C_18
REMARK                            x       y       z     vdW  Elec       q    Type
REMARK                         _______ _______ _______ _____ _____    ______ ____
ROOT
ATOM      2  O   UNL     1     -15.612   7.083  31.177  0.00  0.00    -0.267 OA
ATOM      3  N   UNL     1     -12.486  10.995  31.438  0.00  0.00    -0.297 NA
ATOM      4  N   UNL     1     -14.639   8.834  32.370  0.00  0.00    -0.311 N 
ATOM      5  C   UNL     1     -14.958  11.295  31.728  0.00  0.00    +0.024 C 
ATOM      6  C   UNL     1     -13.581  10.715  33.667  0.00  0.00    +0.050 C 
ATOM      7  C   UNL     1     -14.773  11.555  33.217  0.00  0.00    +0.017 C 
ATOM      8  C   UNL     1     -13.684  11.696  30.957  0.00  0.00    +0.090 C 
ATOM      9  C   UNL     1     -12.317  11.154  32.890  0.00  0.00    +0.094 C 
ATOM     10  C   UNL     1     -15.329   9.819  31.525  0.00  0.00    +0.130 C 
ATOM     11  C   UNL     1     -13.850   9.237  33.450  0.00  0.00    +0.026 A 
ATOM     13  C   UNL     1     -13.320   8.321  34.276  0.00  0.00    +0.022 A 
ATOM     14  C   UNL     1     -14.895   7.476  32.099  0.00  0.00    +0.259 A 
ATOM     15  C   UNL     1     -14.259   6.471  33.022  0.00  0.00    +0.047 A 
ATOM     16  C   UNL     1     -13.525   6.919  34.052  0.00  0.00    +0.015 A 
ENDROOT
BRANCH  15  18
ATOM     18  C   UNL     1     -14.425   5.023  32.806  0.00  0.00    -0.012 A 
ATOM     21  C   UNL     1     -13.914   4.426  31.653  0.00  0.00    +0.017 A 
ATOM     22  C   UNL     1     -15.093   4.250  33.752  0.00  0.00    +0.009 A 
ATOM     25  C   UNL     1     -14.064   3.046  31.432  0.00  0.00    -0.017 A 
ATOM     27  C   UNL     1     -15.250   2.878  33.549  0.00  0.00    +0.009 A 
ATOM     28  C   UNL     1     -14.742   2.262  32.395  0.00  0.00    -0.018 A 
ATOM     29  C   UNL     1     -13.555   2.430  30.278  0.00  0.00    +0.008 A 
ATOM     30  C   UNL     1     -14.892   0.882  32.174  0.00  0.00    +0.008 A 
ATOM     31  C   UNL     1     -13.712   1.058  30.075  0.00  0.00    +0.001 A 
ATOM     32  C   UNL     1     -14.381   0.287  31.021  0.00  0.00    +0.001 A 
ENDBRANCH  15  18
BRANCH   3  12
ATOM     12  C   UNL     1     -11.293  11.442  30.722  0.00  0.00    +0.119 C 
BRANCH  12  17
ATOM      1  F   UNL     1     -11.824  10.610  25.189  0.00  0.00    -0.205 F 
ATOM     17  C   UNL     1     -11.436  11.219  29.241  0.00  0.00    -0.033 A 
ATOM     19  C   UNL     1     -11.714  12.297  28.411  0.00  0.00    +0.008 A 
ATOM     20  C   UNL     1     -11.288   9.940  28.724  0.00  0.00    +0.008 A 
ATOM     23  C   UNL     1     -11.846  12.090  27.038  0.00  0.00    +0.038 A 
ATOM     24  C   UNL     1     -11.419   9.733  27.351  0.00  0.00    +0.038 A 
ATOM     26  C   UNL     1     -11.699  10.808  26.507  0.00  0.00    +0.123 A 
ENDBRANCH  12  17
ENDBRANCH   3  12
TORSDOF 3
ENDMDL
MODEL 10
REMARK VINA RESULT:      -7.3     21.273     25.254
REMARK  Name = 11885295
REMARK  3 active torsions:
REMARK  status: ('A' for Active; 'I' for Inactive)
REMARK    1  A    between atoms: N_3  and  C_12
REMARK    2  A    between atoms: C_12  and  C_17
REMARK    3  A    between atoms: C_15  and  C_18
REMARK                            x       y       z     vdW  Elec       q    Type
REMARK                         _______ _______ _______ _____ _____    ______ ____
ROOT
ATOM      2  O   UNL     1       6.814  -8.359  31.218  0.00  0.00    -0.267 OA
ATOM      3  N   UNL     1      10.015  -5.706  34.023  0.00  0.00    -0.297 NA
ATOM      4  N   UNL     1       7.689  -7.765  33.296  0.00  0.00    -0.311 N 
ATOM      5  C   UNL     1       7.537  -5.384  34.234  0.00  0.00    +0.024 C 
ATOM      6  C   UNL     1       8.640  -7.137  35.541  0.00  0.00    +0.050 C 
ATOM      7  C   UNL     1       7.543  -6.077  35.591  0.00  0.00    +0.017 C 
ATOM      8  C   UNL     1       8.912  -4.738  33.964  0.00  0.00    +0.090 C 
ATOM      9  C   UNL     1      10.005  -6.456  35.287  0.00  0.00    +0.094 C 
ATOM     10  C   UNL     1       7.145  -6.406  33.159  0.00  0.00    +0.130 C 
ATOM     11  C   UNL     1       8.350  -8.163  34.461  0.00  0.00    +0.026 A 
ATOM     13  C   UNL     1       8.741  -9.438  34.612  0.00  0.00    +0.022 A 
ATOM     14  C   UNL     1       7.423  -8.664  32.245  0.00  0.00    +0.259 A 
ATOM     15  C   UNL     1       7.904 -10.079  32.429  0.00  0.00    +0.047 A 
ATOM     16  C   UNL     1       8.518 -10.405  33.576  0.00  0.00    +0.015 A 
ENDROOT
BRANCH  15  18
ATOM     18  C   UNL     1       7.717 -11.091  31.375  0.00  0.00    -0.012 A 
ATOM     21  C   UNL     1       6.510 -11.787  31.280  0.00  0.00    +0.017 A 
ATOM     22  C   UNL     1       8.745 -11.356  30.473  0.00  0.00    +0.009 A 
ATOM     25  C   UNL     1       6.317 -12.755  30.281  0.00  0.00    -0.017 A 
ATOM     27  C   UNL     1       8.569 -12.314  29.474  0.00  0.00    +0.009 A 
ATOM     28  C   UNL     1       7.361 -13.022  29.365  0.00  0.00    -0.018 A 
ATOM     29  C   UNL     1       5.109 -13.464  30.171  0.00  0.00    +0.008 A 
ATOM     30  C   UNL     1       7.168 -13.991  28.365  0.00  0.00    +0.008 A 
ATOM     31  C   UNL     1       4.934 -14.422  29.173  0.00  0.00    +0.001 A 
ATOM     32  C   UNL     1       5.962 -14.685  28.272  0.00  0.00    +0.001 A 
ENDBRANCH  15  18
BRANCH   3  12
ATOM     12  C   UNL     1      11.302  -5.047  33.816  0.00  0.00    +0.119 C 
BRANCH  12  17
ATOM      1  F   UNL     1      13.918  -7.095  29.283  0.00  0.00    -0.205 F 
ATOM     17  C   UNL     1      12.003  -5.595  32.603  0.00  0.00    -0.033 A 
ATOM     19  C   UNL     1      11.491  -6.719  31.968  0.00  0.00    +0.008 A 
ATOM     20  C   UNL     1      13.151  -4.971  32.135  0.00  0.00    +0.008 A 
ATOM     23  C   UNL     1      12.141  -7.227  30.843  0.00  0.00    +0.038 A 
ATOM     24  C   UNL     1      13.800  -5.479  31.010  0.00  0.00    +0.038 A 
ATOM     26  C   UNL     1      13.295  -6.608  30.364  0.00  0.00    +0.123 A 
ENDBRANCH  12  17
ENDBRANCH   3  12
TORSDOF 3
ENDMDL
