MODEL 1
REMARK VINA RESULT:      -6.0      0.000      0.000
REMARK  Name = 38027134
REMARK  15 active torsions:
REMARK  status: ('A' for Active; 'I' for Inactive)
REMARK    1  A    between atoms: S_1  and  N_5
REMARK    2  A    between atoms: S_1  and  C_20
REMARK    3  A    between atoms: N_5  and  C_14
REMARK    4  A    between atoms: N_6  and  C_21
REMARK    5  A    between atoms: N_6  and  C_23
REMARK    6  A    between atoms: C_7  and  C_11
REMARK    7  A    between atoms: C_8  and  C_14
REMARK    8  A    between atoms: C_10  and  C_15
REMARK    9  A    between atoms: C_11  and  C_16
REMARK   10  A    between atoms: C_11  and  C_17
REMARK   11  A    between atoms: C_12  and  C_18
REMARK   12  A    between atoms: C_15  and  C_19
REMARK   13  A    between atoms: C_20  and  C_22
REMARK   14  A    between atoms: C_21  and  C_24
REMARK   15  A    between atoms: C_22  and  C_25
REMARK                            x       y       z     vdW  Elec       q    Type
REMARK                         _______ _______ _______ _____ _____    ______ ____
ROOT
ATOM      7  C   UNL     1      15.184   8.159  20.419  0.00  0.00    +0.000 C 
ATOM      8  C   UNL     1      14.406   7.182  19.503  0.00  0.00    +0.030 C 
ATOM      9  C   UNL     1      14.607   8.133  21.842  0.00  0.00    +0.012 C 
ATOM     10  C   UNL     1      13.115   8.516  21.874  0.00  0.00    +0.023 C 
ATOM     12  C   UNL     1      12.324   7.784  20.810  0.00  0.00    -0.073 C 
ATOM     13  C   UNL     1      12.919   7.182  19.765  0.00  0.00    -0.023 C 
ATOM     18  C   UNL     1      10.833   7.721  20.998  0.00  0.00    +0.039 C 
ENDROOT
BRANCH   7  11
ATOM     11  C   UNL     1      16.680   7.832  20.461  0.00  0.00    -0.013 C 
ATOM     16  C   UNL     1      17.425   8.859  21.305  0.00  0.00    +0.007 C 
ATOM     17  C   UNL     1      16.903   6.423  21.000  0.00  0.00    +0.007 C 
ENDBRANCH   7  11
BRANCH   8  14
ATOM     14  C   UNL     1      14.665   7.486  18.023  0.00  0.00    +0.113 C 
BRANCH  14   5
ATOM      5  N   UNL     1      13.377   7.551  17.314  0.00  0.00    -0.194 NA
ATOM     31  H   UNL     1      13.043   6.639  16.976  0.00  0.00    +0.148 HD
BRANCH   5   1
ATOM      1  S   UNL     1      13.055   8.878  16.287  0.00  0.00    +0.029 S 
ATOM      3  O   UNL     1      11.679   9.303  16.454  0.00  0.00    -0.158 OA
ATOM      4  O   UNL     1      13.585   8.583  14.970  0.00  0.00    -0.158 OA
BRANCH   1  20
ATOM     20  C   UNL     1      14.102  10.116  17.017  0.00  0.00    +0.185 C 
BRANCH  20  22
ATOM     22  C   UNL     1      13.412  10.810  18.179  0.00  0.00    +0.021 C 
ATOM     25  C   UNL     1      14.345  11.784  18.878  0.00  0.00    +0.005 C 
ENDBRANCH  20  22
ENDBRANCH   1  20
ENDBRANCH   5   1
ENDBRANCH  14   5
ENDBRANCH   8  14
BRANCH  10  15
ATOM     15  C   UNL     1      12.932  10.033  21.749  0.00  0.00    +0.103 C 
BRANCH  15  19
ATOM      2  O   UNL     1      11.389  10.486  23.526  0.00  0.00    -0.276 OA
ATOM      6  N   UNL     1      13.484  11.469  23.682  0.00  0.00    -0.300 N 
ATOM     19  C   UNL     1      12.516  10.673  23.061  0.00  0.00    +0.216 C 
ATOM     23  C   UNL     1      14.810  11.675  23.113  0.00  0.00    +0.132 C 
BRANCH   6  21
ATOM     21  C   UNL     1      13.238  12.153  24.949  0.00  0.00    +0.142 C 
BRANCH  21  24
ATOM     24  C   UNL     1      12.350  13.351  24.780  0.00  0.00    -0.030 A 
ATOM     26  C   UNL     1      12.739  14.394  23.939  0.00  0.00    +0.005 A 
ATOM     27  C   UNL     1      11.136  13.422  25.463  0.00  0.00    +0.005 A 
ATOM     28  C   UNL     1      11.913  15.507  23.782  0.00  0.00    +0.000 A 
ATOM     29  C   UNL     1      10.310  14.535  25.306  0.00  0.00    +0.000 A 
ATOM     30  C   UNL     1      10.700  15.578  24.465  0.00  0.00    +0.000 A 
ENDBRANCH  21  24
ENDBRANCH   6  21
ENDBRANCH  15  19
ENDBRANCH  10  15
TORSDOF 10
ENDMDL
MODEL 2
REMARK VINA RESULT:      -5.8      4.727      9.080
REMARK  Name = 38027134
REMARK  15 active torsions:
REMARK  status: ('A' for Active; 'I' for Inactive)
REMARK    1  A    between atoms: S_1  and  N_5
REMARK    2  A    between atoms: S_1  and  C_20
REMARK    3  A    between atoms: N_5  and  C_14
REMARK    4  A    between atoms: N_6  and  C_21
REMARK    5  A    between atoms: N_6  and  C_23
REMARK    6  A    between atoms: C_7  and  C_11
REMARK    7  A    between atoms: C_8  and  C_14
REMARK    8  A    between atoms: C_10  and  C_15
REMARK    9  A    between atoms: C_11  and  C_16
REMARK   10  A    between atoms: C_11  and  C_17
REMARK   11  A    between atoms: C_12  and  C_18
REMARK   12  A    between atoms: C_15  and  C_19
REMARK   13  A    between atoms: C_20  and  C_22
REMARK   14  A    between atoms: C_21  and  C_24
REMARK   15  A    between atoms: C_22  and  C_25
REMARK                            x       y       z     vdW  Elec       q    Type
REMARK                         _______ _______ _______ _____ _____    ______ ____
ROOT
ATOM      7  C   UNL     1      16.319   8.907  21.740  0.00  0.00    +0.000 C 
ATOM      8  C   UNL     1      15.303   8.031  20.966  0.00  0.00    +0.030 C 
ATOM      9  C   UNL     1      17.613   9.071  20.928  0.00  0.00    +0.012 C 
ATOM     10  C   UNL     1      18.277   7.718  20.611  0.00  0.00    +0.023 C 
ATOM     12  C   UNL     1      17.276   6.708  20.091  0.00  0.00    -0.073 C 
ATOM     13  C   UNL     1      15.950   6.871  20.246  0.00  0.00    -0.023 C 
ATOM     18  C   UNL     1      17.831   5.525  19.346  0.00  0.00    +0.039 C 
ENDROOT
BRANCH   7  11
ATOM     11  C   UNL     1      15.741  10.286  22.077  0.00  0.00    -0.013 C 
ATOM     16  C   UNL     1      16.852  11.237  22.509  0.00  0.00    +0.007 C 
ATOM     17  C   UNL     1      14.979  10.851  20.882  0.00  0.00    +0.007 C 
ENDBRANCH   7  11
BRANCH   8  14
ATOM     14  C   UNL     1      14.203   7.507  21.896  0.00  0.00    +0.113 C 
BRANCH  14   5
ATOM      5  N   UNL     1      13.442   6.459  21.197  0.00  0.00    -0.194 NA
ATOM     31  H   UNL     1      13.974   5.986  20.455  0.00  0.00    +0.148 HD
BRANCH   5   1
ATOM      1  S   UNL     1      11.784   6.708  20.870  0.00  0.00    +0.029 S 
ATOM      3  O   UNL     1      11.017   5.569  21.334  0.00  0.00    -0.158 OA
ATOM      4  O   UNL     1      11.649   7.188  19.508  0.00  0.00    -0.158 OA
BRANCH   1  20
ATOM     20  C   UNL     1      11.441   8.076  21.952  0.00  0.00    +0.185 C 
BRANCH  20  22
ATOM     22  C   UNL     1      11.202   9.356  21.170  0.00  0.00    +0.021 C 
ATOM     25  C   UNL     1      11.406  10.586  22.038  0.00  0.00    +0.005 C 
ENDBRANCH  20  22
ENDBRANCH   1  20
ENDBRANCH   5   1
ENDBRANCH  14   5
ENDBRANCH   8  14
BRANCH  10  15
ATOM     15  C   UNL     1      19.025   7.171  21.832  0.00  0.00    +0.103 C 
BRANCH  15  19
ATOM      2  O   UNL     1      20.894   6.803  20.376  0.00  0.00    -0.276 OA
ATOM      6  N   UNL     1      21.324   6.788  22.655  0.00  0.00    -0.300 N 
ATOM     19  C   UNL     1      20.491   6.906  21.537  0.00  0.00    +0.216 C 
ATOM     23  C   UNL     1      20.823   6.914  24.019  0.00  0.00    +0.132 C 
BRANCH   6  21
ATOM     21  C   UNL     1      22.757   6.534  22.539  0.00  0.00    +0.142 C 
BRANCH  21  24
ATOM     24  C   UNL     1      23.048   5.110  22.162  0.00  0.00    -0.030 A 
ATOM     26  C   UNL     1      23.764   4.829  20.998  0.00  0.00    +0.005 A 
ATOM     27  C   UNL     1      22.602   4.068  22.975  0.00  0.00    +0.005 A 
ATOM     28  C   UNL     1      24.034   3.506  20.648  0.00  0.00    +0.000 A 
ATOM     29  C   UNL     1      22.873   2.745  22.625  0.00  0.00    +0.000 A 
ATOM     30  C   UNL     1      23.589   2.465  21.461  0.00  0.00    +0.000 A 
ENDBRANCH  21  24
ENDBRANCH   6  21
ENDBRANCH  15  19
ENDBRANCH  10  15
TORSDOF 10
ENDMDL
MODEL 3
REMARK VINA RESULT:      -5.7     28.258     31.187
REMARK  Name = 38027134
REMARK  15 active torsions:
REMARK  status: ('A' for Active; 'I' for Inactive)
REMARK    1  A    between atoms: S_1  and  N_5
REMARK    2  A    between atoms: S_1  and  C_20
REMARK    3  A    between atoms: N_5  and  C_14
REMARK    4  A    between atoms: N_6  and  C_21
REMARK    5  A    between atoms: N_6  and  C_23
REMARK    6  A    between atoms: C_7  and  C_11
REMARK    7  A    between atoms: C_8  and  C_14
REMARK    8  A    between atoms: C_10  and  C_15
REMARK    9  A    between atoms: C_11  and  C_16
REMARK   10  A    between atoms: C_11  and  C_17
REMARK   11  A    between atoms: C_12  and  C_18
REMARK   12  A    between atoms: C_15  and  C_19
REMARK   13  A    between atoms: C_20  and  C_22
REMARK   14  A    between atoms: C_21  and  C_24
REMARK   15  A    between atoms: C_22  and  C_25
REMARK                            x       y       z     vdW  Elec       q    Type
REMARK                         _______ _______ _______ _____ _____    ______ ____
ROOT
ATOM      7  C   UNL     1     -17.196   3.755  28.056  0.00  0.00    +0.000 C 
ATOM      8  C   UNL     1     -17.498   2.333  28.591  0.00  0.00    +0.030 C 
ATOM      9  C   UNL     1     -17.903   3.983  26.712  0.00  0.00    +0.012 C 
ATOM     10  C   UNL     1     -17.473   2.959  25.645  0.00  0.00    +0.023 C 
ATOM     12  C   UNL     1     -17.488   1.544  26.186  0.00  0.00    -0.073 C 
ATOM     13  C   UNL     1     -17.513   1.283  27.505  0.00  0.00    -0.023 C 
ATOM     18  C   UNL     1     -17.519   0.432  25.173  0.00  0.00    +0.039 C 
ENDROOT
BRANCH   7  11
ATOM     11  C   UNL     1     -17.616   4.839  29.054  0.00  0.00    -0.013 C 
ATOM     16  C   UNL     1     -17.333   6.224  28.484  0.00  0.00    +0.007 C 
ATOM     17  C   UNL     1     -19.092   4.691  29.411  0.00  0.00    +0.007 C 
ENDBRANCH   7  11
BRANCH   8  14
ATOM     14  C   UNL     1     -16.498   1.927  29.680  0.00  0.00    +0.113 C 
BRANCH  14   5
ATOM      5  N   UNL     1     -16.101   0.526  29.470  0.00  0.00    -0.194 NA
ATOM     31  H   UNL     1     -16.891  -0.133  29.465  0.00  0.00    +0.148 HD
BRANCH   5   1
ATOM      1  S   UNL     1     -14.665  -0.053  30.192  0.00  0.00    +0.029 S 
ATOM      3  O   UNL     1     -14.002  -0.976  29.291  0.00  0.00    -0.158 OA
ATOM      4  O   UNL     1     -14.956  -0.434  31.560  0.00  0.00    -0.158 OA
BRANCH   1  20
ATOM     20  C   UNL     1     -13.704   1.441  30.249  0.00  0.00    +0.185 C 
BRANCH  20  22
ATOM     22  C   UNL     1     -13.604   1.983  31.665  0.00  0.00    +0.021 C 
ATOM     25  C   UNL     1     -13.656   3.501  31.685  0.00  0.00    +0.005 C 
ENDBRANCH  20  22
ENDBRANCH   1  20
ENDBRANCH   5   1
ENDBRANCH  14   5
ENDBRANCH   8  14
BRANCH  10  15
ATOM     15  C   UNL     1     -16.098   3.311  25.065  0.00  0.00    +0.103 C 
BRANCH  15  19
ATOM      2  O   UNL     1     -16.214   2.600  22.779  0.00  0.00    -0.276 OA
ATOM      6  N   UNL     1     -16.117   4.886  23.161  0.00  0.00    -0.300 N 
ATOM     19  C   UNL     1     -16.150   3.547  23.567  0.00  0.00    +0.216 C 
ATOM     23  C   UNL     1     -16.041   5.988  24.112  0.00  0.00    +0.132 C 
BRANCH   6  21
ATOM     21  C   UNL     1     -16.160   5.278  21.755  0.00  0.00    +0.142 C 
BRANCH  21  24
ATOM     24  C   UNL     1     -14.887   5.944  21.317  0.00  0.00    -0.030 A 
ATOM     26  C   UNL     1     -13.659   5.478  21.787  0.00  0.00    +0.005 A 
ATOM     27  C   UNL     1     -14.932   7.028  20.440  0.00  0.00    +0.005 A 
ATOM     28  C   UNL     1     -12.477   6.096  21.379  0.00  0.00    +0.000 A 
ATOM     29  C   UNL     1     -13.750   7.645  20.032  0.00  0.00    +0.000 A 
ATOM     30  C   UNL     1     -12.522   7.179  20.503  0.00  0.00    +0.000 A 
ENDBRANCH  21  24
ENDBRANCH   6  21
ENDBRANCH  15  19
ENDBRANCH  10  15
TORSDOF 10
ENDMDL
MODEL 4
REMARK VINA RESULT:      -5.7     14.255     18.726
REMARK  Name = 38027134
REMARK  15 active torsions:
REMARK  status: ('A' for Active; 'I' for Inactive)
REMARK    1  A    between atoms: S_1  and  N_5
REMARK    2  A    between atoms: S_1  and  C_20
REMARK    3  A    between atoms: N_5  and  C_14
REMARK    4  A    between atoms: N_6  and  C_21
REMARK    5  A    between atoms: N_6  and  C_23
REMARK    6  A    between atoms: C_7  and  C_11
REMARK    7  A    between atoms: C_8  and  C_14
REMARK    8  A    between atoms: C_10  and  C_15
REMARK    9  A    between atoms: C_11  and  C_16
REMARK   10  A    between atoms: C_11  and  C_17
REMARK   11  A    between atoms: C_12  and  C_18
REMARK   12  A    between atoms: C_15  and  C_19
REMARK   13  A    between atoms: C_20  and  C_22
REMARK   14  A    between atoms: C_21  and  C_24
REMARK   15  A    between atoms: C_22  and  C_25
REMARK                            x       y       z     vdW  Elec       q    Type
REMARK                         _______ _______ _______ _____ _____    ______ ____
ROOT
ATOM      7  C   UNL     1       8.673   8.302   5.680  0.00  0.00    +0.000 C 
ATOM      8  C   UNL     1       8.611   8.320   7.228  0.00  0.00    +0.030 C 
ATOM      9  C   UNL     1       8.272   6.920   5.144  0.00  0.00    +0.012 C 
ATOM     10  C   UNL     1       9.181   5.799   5.683  0.00  0.00    +0.023 C 
ATOM     12  C   UNL     1       9.385   5.911   7.180  0.00  0.00    -0.073 C 
ATOM     13  C   UNL     1       9.112   7.042   7.856  0.00  0.00    -0.023 C 
ATOM     18  C   UNL     1       9.868   4.678   7.892  0.00  0.00    +0.039 C 
ENDROOT
BRANCH   7  11
ATOM     11  C   UNL     1       7.776   9.378   5.061  0.00  0.00    -0.013 C 
ATOM     16  C   UNL     1       8.524  10.702   4.961  0.00  0.00    +0.007 C 
ATOM     17  C   UNL     1       7.277   8.932   3.690  0.00  0.00    +0.007 C 
ENDBRANCH   7  11
BRANCH   8  14
ATOM     14  C   UNL     1       9.391   9.510   7.799  0.00  0.00    +0.113 C 
BRANCH  14   5
ATOM      5  N   UNL     1      10.817   9.158   7.873  0.00  0.00    -0.194 NA
ATOM     31  H   UNL     1      11.065   8.603   8.703  0.00  0.00    +0.148 HD
BRANCH   5   1
ATOM      1  S   UNL     1      11.987  10.300   7.377  0.00  0.00    +0.029 S 
ATOM      3  O   UNL     1      12.336  11.160   8.491  0.00  0.00    -0.158 OA
ATOM      4  O   UNL     1      11.573  10.865   6.107  0.00  0.00    -0.158 OA
BRANCH   1  20
ATOM     20  C   UNL     1      13.370   9.230   7.057  0.00  0.00    +0.185 C 
BRANCH  20  22
ATOM     22  C   UNL     1      12.934   7.954   6.358  0.00  0.00    +0.021 C 
ATOM     25  C   UNL     1      13.390   6.720   7.118  0.00  0.00    +0.005 C 
ENDBRANCH  20  22
ENDBRANCH   1  20
ENDBRANCH   5   1
ENDBRANCH  14   5
ENDBRANCH   8  14
BRANCH  10  15
ATOM     15  C   UNL     1      10.525   5.776   4.946  0.00  0.00    +0.103 C 
BRANCH  15  19
ATOM      2  O   UNL     1      10.568   3.492   4.220  0.00  0.00    -0.276 OA
ATOM      6  N   UNL     1      10.665   5.117   2.569  0.00  0.00    -0.300 N 
ATOM     19  C   UNL     1      10.586   4.682   3.896  0.00  0.00    +0.216 C 
ATOM     23  C   UNL     1      10.684   6.530   2.210  0.00  0.00    +0.132 C 
BRANCH   6  21
ATOM     21  C   UNL     1      10.730   4.189   1.443  0.00  0.00    +0.142 C 
BRANCH  21  24
ATOM     24  C   UNL     1      12.119   4.080   0.883  0.00  0.00    -0.030 A 
ATOM     26  C   UNL     1      13.169   3.662   1.700  0.00  0.00    +0.005 A 
ATOM     27  C   UNL     1      12.358   4.395  -0.455  0.00  0.00    +0.005 A 
ATOM     28  C   UNL     1      14.459   3.561   1.178  0.00  0.00    +0.000 A 
ATOM     29  C   UNL     1      13.647   4.292  -0.976  0.00  0.00    +0.000 A 
ATOM     30  C   UNL     1      14.698   3.876  -0.158  0.00  0.00    +0.000 A 
ENDBRANCH  21  24
ENDBRANCH   6  21
ENDBRANCH  15  19
ENDBRANCH  10  15
TORSDOF 10
ENDMDL
MODEL 5
REMARK VINA RESULT:      -5.7     26.989     30.315
REMARK  Name = 38027134
REMARK  15 active torsions:
REMARK  status: ('A' for Active; 'I' for Inactive)
REMARK    1  A    between atoms: S_1  and  N_5
REMARK    2  A    between atoms: S_1  and  C_20
REMARK    3  A    between atoms: N_5  and  C_14
REMARK    4  A    between atoms: N_6  and  C_21
REMARK    5  A    between atoms: N_6  and  C_23
REMARK    6  A    between atoms: C_7  and  C_11
REMARK    7  A    between atoms: C_8  and  C_14
REMARK    8  A    between atoms: C_10  and  C_15
REMARK    9  A    between atoms: C_11  and  C_16
REMARK   10  A    between atoms: C_11  and  C_17
REMARK   11  A    between atoms: C_12  and  C_18
REMARK   12  A    between atoms: C_15  and  C_19
REMARK   13  A    between atoms: C_20  and  C_22
REMARK   14  A    between atoms: C_21  and  C_24
REMARK   15  A    between atoms: C_22  and  C_25
REMARK                            x       y       z     vdW  Elec       q    Type
REMARK                         _______ _______ _______ _____ _____    ______ ____
ROOT
ATOM      7  C   UNL     1      -6.930 -10.217  16.860  0.00  0.00    +0.000 C 
ATOM      8  C   UNL     1      -5.459  -9.941  16.462  0.00  0.00    +0.030 C 
ATOM      9  C   UNL     1      -7.073 -10.254  18.389  0.00  0.00    +0.012 C 
ATOM     10  C   UNL     1      -6.182 -11.333  19.032  0.00  0.00    +0.023 C 
ATOM     12  C   UNL     1      -4.770 -11.297  18.485  0.00  0.00    -0.073 C 
ATOM     13  C   UNL     1      -4.463 -10.658  17.342  0.00  0.00    -0.023 C 
ATOM     18  C   UNL     1      -3.708 -11.974  19.307  0.00  0.00    +0.039 C 
ENDROOT
BRANCH   7  11
ATOM     11  C   UNL     1      -7.884  -9.170  16.276  0.00  0.00    -0.013 C 
ATOM     16  C   UNL     1      -8.706  -9.773  15.143  0.00  0.00    +0.007 C 
ATOM     17  C   UNL     1      -8.792  -8.609  17.366  0.00  0.00    +0.007 C 
ENDBRANCH   7  11
BRANCH   8  14
ATOM     14  C   UNL     1      -5.204 -10.310  14.996  0.00  0.00    +0.113 C 
BRANCH  14   5
ATOM      5  N   UNL     1      -5.030 -11.767  14.891  0.00  0.00    -0.194 NA
ATOM     31  H   UNL     1      -5.160 -12.266  15.782  0.00  0.00    +0.148 HD
BRANCH   5   1
ATOM      1  S   UNL     1      -3.810 -12.392  13.871  0.00  0.00    +0.029 S 
ATOM      3  O   UNL     1      -4.289 -12.434  12.503  0.00  0.00    -0.158 OA
ATOM      4  O   UNL     1      -3.245 -13.573  14.495  0.00  0.00    -0.158 OA
BRANCH   1  20
ATOM     20  C   UNL     1      -2.596 -11.098  13.985  0.00  0.00    +0.185 C 
BRANCH  20  22
ATOM     22  C   UNL     1      -1.606 -11.365  15.106  0.00  0.00    +0.021 C 
ATOM     25  C   UNL     1      -1.030 -10.072  15.659  0.00  0.00    +0.005 C 
ENDBRANCH  20  22
ENDBRANCH   1  20
ENDBRANCH   5   1
ENDBRANCH  14   5
ENDBRANCH   8  14
BRANCH  10  15
ATOM     15  C   UNL     1      -6.799 -12.727  18.867  0.00  0.00    +0.103 C 
BRANCH  15  19
ATOM      2  O   UNL     1      -8.670 -12.508  20.349  0.00  0.00    -0.276 OA
ATOM      6  N   UNL     1      -9.140 -13.046  18.143  0.00  0.00    -0.300 N 
ATOM     19  C   UNL     1      -8.279 -12.745  19.204  0.00  0.00    +0.216 C 
ATOM     23  C   UNL     1      -8.654 -13.324  16.797  0.00  0.00    +0.132 C 
BRANCH   6  21
ATOM     21  C   UNL     1     -10.590 -13.103  18.305  0.00  0.00    +0.142 C 
BRANCH  21  24
ATOM     24  C   UNL     1     -11.238 -11.773  18.046  0.00  0.00    -0.030 A 
ATOM     26  C   UNL     1     -11.437 -10.878  19.097  0.00  0.00    +0.005 A 
ATOM     27  C   UNL     1     -11.639 -11.432  16.754  0.00  0.00    +0.005 A 
ATOM     28  C   UNL     1     -12.039  -9.642  18.855  0.00  0.00    +0.000 A 
ATOM     29  C   UNL     1     -12.239 -10.197  16.513  0.00  0.00    +0.000 A 
ATOM     30  C   UNL     1     -12.440  -9.302  17.564  0.00  0.00    +0.000 A 
ENDBRANCH  21  24
ENDBRANCH   6  21
ENDBRANCH  15  19
ENDBRANCH  10  15
TORSDOF 10
ENDMDL
MODEL 6
REMARK VINA RESULT:      -5.6     24.305     26.648
REMARK  Name = 38027134
REMARK  15 active torsions:
REMARK  status: ('A' for Active; 'I' for Inactive)
REMARK    1  A    between atoms: S_1  and  N_5
REMARK    2  A    between atoms: S_1  and  C_20
REMARK    3  A    between atoms: N_5  and  C_14
REMARK    4  A    between atoms: N_6  and  C_21
REMARK    5  A    between atoms: N_6  and  C_23
REMARK    6  A    between atoms: C_7  and  C_11
REMARK    7  A    between atoms: C_8  and  C_14
REMARK    8  A    between atoms: C_10  and  C_15
REMARK    9  A    between atoms: C_11  and  C_16
REMARK   10  A    between atoms: C_11  and  C_17
REMARK   11  A    between atoms: C_12  and  C_18
REMARK   12  A    between atoms: C_15  and  C_19
REMARK   13  A    between atoms: C_20  and  C_22
REMARK   14  A    between atoms: C_21  and  C_24
REMARK   15  A    between atoms: C_22  and  C_25
REMARK                            x       y       z     vdW  Elec       q    Type
REMARK                         _______ _______ _______ _____ _____    ______ ____
ROOT
ATOM      7  C   UNL     1     -10.672  10.720  16.711  0.00  0.00    +0.000 C 
ATOM      8  C   UNL     1     -10.353   9.333  16.100  0.00  0.00    +0.030 C 
ATOM      9  C   UNL     1     -10.328  10.738  18.208  0.00  0.00    +0.012 C 
ATOM     10  C   UNL     1     -11.102   9.666  18.998  0.00  0.00    +0.023 C 
ATOM     12  C   UNL     1     -11.057   8.318  18.309  0.00  0.00    -0.073 C 
ATOM     13  C   UNL     1     -10.707   8.187  17.017  0.00  0.00    -0.023 C 
ATOM     18  C   UNL     1     -11.381   7.115  19.152  0.00  0.00    +0.039 C 
ENDROOT
BRANCH   7  11
ATOM     11  C   UNL     1      -9.920  11.846  15.993  0.00  0.00    -0.013 C 
ATOM     16  C   UNL     1     -10.902  12.784  15.302  0.00  0.00    +0.007 C 
ATOM     17  C   UNL     1      -9.040  12.611  16.977  0.00  0.00    +0.007 C 
ENDBRANCH   7  11
BRANCH   8  14
ATOM     14  C   UNL     1     -11.059   9.147  14.752  0.00  0.00    +0.113 C 
BRANCH  14   5
ATOM      5  N   UNL     1     -11.857   7.911  14.795  0.00  0.00    -0.194 NA
ATOM     31  H   UNL     1     -11.319   7.079  15.071  0.00  0.00    +0.148 HD
BRANCH   5   1
ATOM      1  S   UNL     1     -13.058   7.650  13.609  0.00  0.00    +0.029 S 
ATOM      3  O   UNL     1     -12.990   6.281  13.136  0.00  0.00    -0.158 OA
ATOM      4  O   UNL     1     -13.034   8.759  12.674  0.00  0.00    -0.158 OA
BRANCH   1  20
ATOM     20  C   UNL     1     -14.529   7.817  14.593  0.00  0.00    +0.185 C 
BRANCH  20  22
ATOM     22  C   UNL     1     -14.203   8.280  16.003  0.00  0.00    +0.021 C 
ATOM     25  C   UNL     1     -14.577   9.738  16.210  0.00  0.00    +0.005 C 
ENDBRANCH  20  22
ENDBRANCH   1  20
ENDBRANCH   5   1
ENDBRANCH  14   5
ENDBRANCH   8  14
BRANCH  10  15
ATOM     15  C   UNL     1     -12.550  10.105  19.250  0.00  0.00    +0.103 C 
BRANCH  15  19
ATOM      2  O   UNL     1     -12.298  10.267  21.629  0.00  0.00    -0.276 OA
ATOM      6  N   UNL     1     -14.184   9.166  20.848  0.00  0.00    -0.300 N 
ATOM     19  C   UNL     1     -12.982   9.864  20.685  0.00  0.00    +0.216 C 
ATOM     23  C   UNL     1     -14.976   8.700  19.716  0.00  0.00    +0.132 C 
BRANCH   6  21
ATOM     21  C   UNL     1     -14.735   8.854  22.164  0.00  0.00    +0.142 C 
BRANCH  21  24
ATOM     24  C   UNL     1     -14.774   7.376  22.423  0.00  0.00    -0.030 A 
ATOM     26  C   UNL     1     -13.731   6.563  21.981  0.00  0.00    +0.005 A 
ATOM     27  C   UNL     1     -15.854   6.816  23.106  0.00  0.00    +0.005 A 
ATOM     28  C   UNL     1     -13.767   5.189  22.223  0.00  0.00    +0.000 A 
ATOM     29  C   UNL     1     -15.890   5.443  23.348  0.00  0.00    +0.000 A 
ATOM     30  C   UNL     1     -14.846   4.630  22.905  0.00  0.00    +0.000 A 
ENDBRANCH  21  24
ENDBRANCH   6  21
ENDBRANCH  15  19
ENDBRANCH  10  15
TORSDOF 10
ENDMDL
MODEL 7
REMARK VINA RESULT:      -5.6     26.750     29.689
REMARK  Name = 38027134
REMARK  15 active torsions:
REMARK  status: ('A' for Active; 'I' for Inactive)
REMARK    1  A    between atoms: S_1  and  N_5
REMARK    2  A    between atoms: S_1  and  C_20
REMARK    3  A    between atoms: N_5  and  C_14
REMARK    4  A    between atoms: N_6  and  C_21
REMARK    5  A    between atoms: N_6  and  C_23
REMARK    6  A    between atoms: C_7  and  C_11
REMARK    7  A    between atoms: C_8  and  C_14
REMARK    8  A    between atoms: C_10  and  C_15
REMARK    9  A    between atoms: C_11  and  C_16
REMARK   10  A    between atoms: C_11  and  C_17
REMARK   11  A    between atoms: C_12  and  C_18
REMARK   12  A    between atoms: C_15  and  C_19
REMARK   13  A    between atoms: C_20  and  C_22
REMARK   14  A    between atoms: C_21  and  C_24
REMARK   15  A    between atoms: C_22  and  C_25
REMARK                            x       y       z     vdW  Elec       q    Type
REMARK                         _______ _______ _______ _____ _____    ______ ____
ROOT
ATOM      7  C   UNL     1      -4.181 -11.319  12.745  0.00  0.00    +0.000 C 
ATOM      8  C   UNL     1      -2.898 -11.196  13.604  0.00  0.00    +0.030 C 
ATOM      9  C   UNL     1      -3.819 -11.464  11.260  0.00  0.00    +0.012 C 
ATOM     10  C   UNL     1      -2.997 -10.269  10.741  0.00  0.00    +0.023 C 
ATOM     12  C   UNL     1      -1.865  -9.914  11.682  0.00  0.00    -0.073 C 
ATOM     13  C   UNL     1      -1.830 -10.348  12.954  0.00  0.00    -0.023 C 
ATOM     18  C   UNL     1      -0.747  -9.084  11.114  0.00  0.00    +0.039 C 
ENDROOT
BRANCH   7  11
ATOM     11  C   UNL     1      -5.048 -12.504  13.184  0.00  0.00    -0.013 C 
ATOM     16  C   UNL     1      -6.276 -12.624  12.289  0.00  0.00    +0.007 C 
ATOM     17  C   UNL     1      -4.236 -13.795  13.166  0.00  0.00    +0.007 C 
ENDBRANCH   7  11
BRANCH   8  14
ATOM     14  C   UNL     1      -3.216 -10.638  14.997  0.00  0.00    +0.113 C 
BRANCH  14   5
ATOM      5  N   UNL     1      -3.156 -11.732  15.978  0.00  0.00    -0.194 NA
ATOM     31  H   UNL     1      -2.841 -12.628  15.581  0.00  0.00    +0.148 HD
BRANCH   5   1
ATOM      1  S   UNL     1      -4.364 -11.845  17.180  0.00  0.00    +0.029 S 
ATOM      3  O   UNL     1      -3.755 -11.774  18.494  0.00  0.00    -0.158 OA
ATOM      4  O   UNL     1      -5.260 -12.931  16.836  0.00  0.00    -0.158 OA
BRANCH   1  20
ATOM     20  C   UNL     1      -5.242 -10.324  16.902  0.00  0.00    +0.185 C 
BRANCH  20  22
ATOM     22  C   UNL     1      -6.667 -10.582  16.444  0.00  0.00    +0.021 C 
ATOM     25  C   UNL     1      -6.918 -10.010  15.059  0.00  0.00    +0.005 C 
ENDBRANCH  20  22
ENDBRANCH   1  20
ENDBRANCH   5   1
ENDBRANCH  14   5
ENDBRANCH   8  14
BRANCH  10  15
ATOM     15  C   UNL     1      -3.895  -9.053  10.480  0.00  0.00    +0.103 C 
BRANCH  15  19
ATOM      2  O   UNL     1      -4.775  -9.678   8.339  0.00  0.00    -0.276 OA
ATOM      6  N   UNL     1      -6.314  -9.274  10.026  0.00  0.00    -0.300 N 
ATOM     19  C   UNL     1      -5.018  -9.366   9.507  0.00  0.00    +0.216 C 
ATOM     23  C   UNL     1      -6.577  -8.904  11.411  0.00  0.00    +0.132 C 
BRANCH   6  21
ATOM     21  C   UNL     1      -7.501  -9.544   9.218  0.00  0.00    +0.142 C 
BRANCH  21  24
ATOM     24  C   UNL     1      -8.309  -8.303   8.973  0.00  0.00    -0.030 A 
ATOM     26  C   UNL     1      -7.737  -7.217   8.311  0.00  0.00    +0.005 A 
ATOM     27  C   UNL     1      -9.634  -8.237   9.405  0.00  0.00    +0.005 A 
ATOM     28  C   UNL     1      -8.488  -6.064   8.083  0.00  0.00    +0.000 A 
ATOM     29  C   UNL     1     -10.386  -7.085   9.175  0.00  0.00    +0.000 A 
ATOM     30  C   UNL     1      -9.812  -5.998   8.515  0.00  0.00    +0.000 A 
ENDBRANCH  21  24
ENDBRANCH   6  21
ENDBRANCH  15  19
ENDBRANCH  10  15
TORSDOF 10
ENDMDL
MODEL 8
REMARK VINA RESULT:      -5.5     15.290     20.232
REMARK  Name = 38027134
REMARK  15 active torsions:
REMARK  status: ('A' for Active; 'I' for Inactive)
REMARK    1  A    between atoms: S_1  and  N_5
REMARK    2  A    between atoms: S_1  and  C_20
REMARK    3  A    between atoms: N_5  and  C_14
REMARK    4  A    between atoms: N_6  and  C_21
REMARK    5  A    between atoms: N_6  and  C_23
REMARK    6  A    between atoms: C_7  and  C_11
REMARK    7  A    between atoms: C_8  and  C_14
REMARK    8  A    between atoms: C_10  and  C_15
REMARK    9  A    between atoms: C_11  and  C_16
REMARK   10  A    between atoms: C_11  and  C_17
REMARK   11  A    between atoms: C_12  and  C_18
REMARK   12  A    between atoms: C_15  and  C_19
REMARK   13  A    between atoms: C_20  and  C_22
REMARK   14  A    between atoms: C_21  and  C_24
REMARK   15  A    between atoms: C_22  and  C_25
REMARK                            x       y       z     vdW  Elec       q    Type
REMARK                         _______ _______ _______ _____ _____    ______ ____
ROOT
ATOM      7  C   UNL     1      14.634   7.595   4.942  0.00  0.00    +0.000 C 
ATOM      8  C   UNL     1      13.164   7.664   5.426  0.00  0.00    +0.030 C 
ATOM      9  C   UNL     1      14.733   8.014   3.468  0.00  0.00    +0.012 C 
ATOM     10  C   UNL     1      13.874   7.125   2.550  0.00  0.00    +0.023 C 
ATOM     12  C   UNL     1      12.479   6.925   3.104  0.00  0.00    -0.073 C 
ATOM     13  C   UNL     1      12.177   7.184   4.389  0.00  0.00    -0.023 C 
ATOM     18  C   UNL     1      11.425   6.463   2.136  0.00  0.00    +0.039 C 
ENDROOT
BRANCH   7  11
ATOM     11  C   UNL     1      15.556   8.474   5.794  0.00  0.00    -0.013 C 
ATOM     16  C   UNL     1      16.955   8.516   5.192  0.00  0.00    +0.007 C 
ATOM     17  C   UNL     1      14.979   9.880   5.924  0.00  0.00    +0.007 C 
ENDBRANCH   7  11
BRANCH   8  14
ATOM     14  C   UNL     1      12.970   6.869   6.723  0.00  0.00    +0.113 C 
BRANCH  14   5
ATOM      5  N   UNL     1      11.834   5.949   6.556  0.00  0.00    -0.194 NA
ATOM     31  H   UNL     1      11.623   5.723   5.575  0.00  0.00    +0.148 HD
BRANCH   5   1
ATOM      1  S   UNL     1      10.477   6.103   7.583  0.00  0.00    +0.029 S 
ATOM      3  O   UNL     1      10.302   7.493   7.958  0.00  0.00    -0.158 OA
ATOM      4  O   UNL     1      10.542   5.066   8.594  0.00  0.00    -0.158 OA
BRANCH   1  20
ATOM     20  C   UNL     1       9.169   5.670   6.461  0.00  0.00    +0.185 C 
BRANCH  20  22
ATOM     22  C   UNL     1       8.367   6.893   6.046  0.00  0.00    +0.021 C 
ATOM     25  C   UNL     1       8.493   7.161   4.556  0.00  0.00    +0.005 C 
ENDBRANCH  20  22
ENDBRANCH   1  20
ENDBRANCH   5   1
ENDBRANCH  14   5
ENDBRANCH   8  14
BRANCH  10  15
ATOM     15  C   UNL     1      14.559   5.778   2.289  0.00  0.00    +0.103 C 
BRANCH  15  19
ATOM      2  O   UNL     1      15.243   6.258   0.042  0.00  0.00    -0.276 OA
ATOM      6  N   UNL     1      14.116   4.261   0.389  0.00  0.00    -0.300 N 
ATOM     19  C   UNL     1      14.680   5.471   0.807  0.00  0.00    +0.216 C 
ATOM     23  C   UNL     1      13.456   3.346   1.313  0.00  0.00    +0.132 C 
BRANCH   6  21
ATOM     21  C   UNL     1      14.150   3.822  -1.003  0.00  0.00    +0.142 C 
BRANCH  21  24
ATOM     24  C   UNL     1      12.779   3.778  -1.614  0.00  0.00    -0.030 A 
ATOM     26  C   UNL     1      11.961   4.907  -1.572  0.00  0.00    +0.005 A 
ATOM     27  C   UNL     1      12.323   2.609  -2.223  0.00  0.00    +0.005 A 
ATOM     28  C   UNL     1      10.687   4.866  -2.140  0.00  0.00    +0.000 A 
ATOM     29  C   UNL     1      11.050   2.569  -2.792  0.00  0.00    +0.000 A 
ATOM     30  C   UNL     1      10.232   3.698  -2.749  0.00  0.00    +0.000 A 
ENDBRANCH  21  24
ENDBRANCH   6  21
ENDBRANCH  15  19
ENDBRANCH  10  15
TORSDOF 10
ENDMDL
MODEL 9
REMARK VINA RESULT:      -5.4     24.460     26.456
REMARK  Name = 38027134
REMARK  15 active torsions:
REMARK  status: ('A' for Active; 'I' for Inactive)
REMARK    1  A    between atoms: S_1  and  N_5
REMARK    2  A    between atoms: S_1  and  C_20
REMARK    3  A    between atoms: N_5  and  C_14
REMARK    4  A    between atoms: N_6  and  C_21
REMARK    5  A    between atoms: N_6  and  C_23
REMARK    6  A    between atoms: C_7  and  C_11
REMARK    7  A    between atoms: C_8  and  C_14
REMARK    8  A    between atoms: C_10  and  C_15
REMARK    9  A    between atoms: C_11  and  C_16
REMARK   10  A    between atoms: C_11  and  C_17
REMARK   11  A    between atoms: C_12  and  C_18
REMARK   12  A    between atoms: C_15  and  C_19
REMARK   13  A    between atoms: C_20  and  C_22
REMARK   14  A    between atoms: C_21  and  C_24
REMARK   15  A    between atoms: C_22  and  C_25
REMARK                            x       y       z     vdW  Elec       q    Type
REMARK                         _______ _______ _______ _____ _____    ______ ____
ROOT
ATOM      7  C   UNL     1     -11.707  10.170  18.316  0.00  0.00    +0.000 C 
ATOM      8  C   UNL     1     -11.447   8.780  17.685  0.00  0.00    +0.030 C 
ATOM      9  C   UNL     1     -11.124  10.231  19.736  0.00  0.00    +0.012 C 
ATOM     10  C   UNL     1     -11.725   9.154  20.660  0.00  0.00    +0.023 C 
ATOM     12  C   UNL     1     -11.749   7.793  19.996  0.00  0.00    -0.073 C 
ATOM     13  C   UNL     1     -11.609   7.644  18.666  0.00  0.00    -0.023 C 
ATOM     18  C   UNL     1     -11.892   6.600  20.901  0.00  0.00    +0.039 C 
ENDROOT
BRANCH   7  11
ATOM     11  C   UNL     1     -11.119  11.301  17.466  0.00  0.00    -0.013 C 
ATOM     16  C   UNL     1     -11.095  12.603  18.258  0.00  0.00    +0.007 C 
ATOM     17  C   UNL     1      -9.719  10.933  16.985  0.00  0.00    +0.007 C 
ENDBRANCH   7  11
BRANCH   8  14
ATOM     14  C   UNL     1     -12.357   8.543  16.474  0.00  0.00    +0.113 C 
BRANCH  14   5
ATOM      5  N   UNL     1     -13.573   7.844  16.917  0.00  0.00    -0.194 NA
ATOM     31  H   UNL     1     -13.461   6.824  16.995  0.00  0.00    +0.148 HD
BRANCH   5   1
ATOM      1  S   UNL     1     -15.095   8.375  16.351  0.00  0.00    +0.029 S 
ATOM      3  O   UNL     1     -15.401   7.730  15.088  0.00  0.00    -0.158 OA
ATOM      4  O   UNL     1     -15.160   9.818  16.481  0.00  0.00    -0.158 OA
BRANCH   1  20
ATOM     20  C   UNL     1     -16.164   7.681  17.591  0.00  0.00    +0.185 C 
BRANCH  20  22
ATOM     22  C   UNL     1     -15.747   8.114  18.987  0.00  0.00    +0.021 C 
ATOM     25  C   UNL     1     -15.466   6.918  19.880  0.00  0.00    +0.005 C 
ENDBRANCH  20  22
ENDBRANCH   1  20
ENDBRANCH   5   1
ENDBRANCH  14   5
ENDBRANCH   8  14
BRANCH  10  15
ATOM     15  C   UNL     1     -13.125   9.556  21.138  0.00  0.00    +0.103 C 
BRANCH  15  19
ATOM      2  O   UNL     1     -12.471  11.663  22.075  0.00  0.00    -0.276 OA
ATOM      6  N   UNL     1     -13.762  10.279  23.414  0.00  0.00    -0.300 N 
ATOM     19  C   UNL     1     -13.080  10.603  22.236  0.00  0.00    +0.216 C 
ATOM     23  C   UNL     1     -14.476   9.018  23.581  0.00  0.00    +0.132 C 
BRANCH   6  21
ATOM     21  C   UNL     1     -13.813  11.179  24.562  0.00  0.00    +0.142 C 
BRANCH  21  24
ATOM     24  C   UNL     1     -12.829  10.790  25.627  0.00  0.00    -0.030 A 
ATOM     26  C   UNL     1     -13.283  10.373  26.878  0.00  0.00    +0.005 A 
ATOM     27  C   UNL     1     -11.460  10.844  25.365  0.00  0.00    +0.005 A 
ATOM     28  C   UNL     1     -12.368  10.012  27.867  0.00  0.00    +0.000 A 
ATOM     29  C   UNL     1     -10.545  10.481  26.354  0.00  0.00    +0.000 A 
ATOM     30  C   UNL     1     -11.000  10.066  27.605  0.00  0.00    +0.000 A 
ENDBRANCH  21  24
ENDBRANCH   6  21
ENDBRANCH  15  19
ENDBRANCH  10  15
TORSDOF 10
ENDMDL
MODEL 10
REMARK VINA RESULT:      -5.4     27.607     30.394
REMARK  Name = 38027134
REMARK  15 active torsions:
REMARK  status: ('A' for Active; 'I' for Inactive)
REMARK    1  A    between atoms: S_1  and  N_5
REMARK    2  A    between atoms: S_1  and  C_20
REMARK    3  A    between atoms: N_5  and  C_14
REMARK    4  A    between atoms: N_6  and  C_21
REMARK    5  A    between atoms: N_6  and  C_23
REMARK    6  A    between atoms: C_7  and  C_11
REMARK    7  A    between atoms: C_8  and  C_14
REMARK    8  A    between atoms: C_10  and  C_15
REMARK    9  A    between atoms: C_11  and  C_16
REMARK   10  A    between atoms: C_11  and  C_17
REMARK   11  A    between atoms: C_12  and  C_18
REMARK   12  A    between atoms: C_15  and  C_19
REMARK   13  A    between atoms: C_20  and  C_22
REMARK   14  A    between atoms: C_21  and  C_24
REMARK   15  A    between atoms: C_22  and  C_25
REMARK                            x       y       z     vdW  Elec       q    Type
REMARK                         _______ _______ _______ _____ _____    ______ ____
ROOT
ATOM      7  C   UNL     1      -5.871 -13.310  16.484  0.00  0.00    +0.000 C 
ATOM      8  C   UNL     1      -7.066 -13.389  17.466  0.00  0.00    +0.030 C 
ATOM      9  C   UNL     1      -4.571 -13.008  17.245  0.00  0.00    +0.012 C 
ATOM     10  C   UNL     1      -4.648 -11.684  18.028  0.00  0.00    +0.023 C 
ATOM     12  C   UNL     1      -5.936 -11.571  18.817  0.00  0.00    -0.073 C 
ATOM     13  C   UNL     1      -7.002 -12.351  18.560  0.00  0.00    -0.023 C 
ATOM     18  C   UNL     1      -5.958 -10.571  19.940  0.00  0.00    +0.039 C 
ENDROOT
BRANCH   7  11
ATOM     11  C   UNL     1      -5.710 -14.603  15.677  0.00  0.00    -0.013 C 
ATOM     16  C   UNL     1      -5.610 -14.292  14.188  0.00  0.00    +0.007 C 
ATOM     17  C   UNL     1      -4.485 -15.379  16.152  0.00  0.00    +0.007 C 
ENDBRANCH   7  11
BRANCH   8  14
ATOM     14  C   UNL     1      -8.402 -13.267  16.723  0.00  0.00    +0.113 C 
BRANCH  14   5
ATOM      5  N   UNL     1      -8.308 -12.172  15.745  0.00  0.00    -0.194 NA
ATOM     31  H   UNL     1      -7.545 -11.509  15.935  0.00  0.00    +0.148 HD
BRANCH   5   1
ATOM      1  S   UNL     1      -9.742 -11.481  15.123  0.00  0.00    +0.029 S 
ATOM      3  O   UNL     1     -10.866 -11.847  15.964  0.00  0.00    -0.158 OA
ATOM      4  O   UNL     1      -9.783 -11.709  13.692  0.00  0.00    -0.158 OA
BRANCH   1  20
ATOM     20  C   UNL     1      -9.409  -9.754  15.378  0.00  0.00    +0.185 C 
BRANCH  20  22
ATOM     22  C   UNL     1      -8.068  -9.543  16.062  0.00  0.00    +0.021 C 
ATOM     25  C   UNL     1      -8.241  -8.975  17.460  0.00  0.00    +0.005 C 
ENDBRANCH  20  22
ENDBRANCH   1  20
ENDBRANCH   5   1
ENDBRANCH  14   5
ENDBRANCH   8  14
BRANCH  10  15
ATOM     15  C   UNL     1      -4.469 -10.480  17.095  0.00  0.00    +0.103 C 
BRANCH  15  19
ATOM      2  O   UNL     1      -2.148 -10.775  16.571  0.00  0.00    -0.276 OA
ATOM      6  N   UNL     1      -3.622 -10.681  14.782  0.00  0.00    -0.300 N 
ATOM     19  C   UNL     1      -3.299 -10.659  16.144  0.00  0.00    +0.216 C 
ATOM     23  C   UNL     1      -4.991 -10.544  14.301  0.00  0.00    +0.132 C 
BRANCH   6  21
ATOM     21  C   UNL     1      -2.611 -10.846  13.742  0.00  0.00    +0.142 C 
BRANCH  21  24
ATOM     24  C   UNL     1      -2.528 -12.265  13.256  0.00  0.00    -0.030 A 
ATOM     26  C   UNL     1      -3.037 -12.604  12.003  0.00  0.00    +0.005 A 
ATOM     27  C   UNL     1      -1.940 -13.243  14.058  0.00  0.00    +0.005 A 
ATOM     28  C   UNL     1      -2.960 -13.922  11.552  0.00  0.00    +0.000 A 
ATOM     29  C   UNL     1      -1.862 -14.561  13.607  0.00  0.00    +0.000 A 
ATOM     30  C   UNL     1      -2.373 -14.900  12.354  0.00  0.00    +0.000 A 
ENDBRANCH  21  24
ENDBRANCH   6  21
ENDBRANCH  15  19
ENDBRANCH  10  15
TORSDOF 10
ENDMDL
