MODEL 1
REMARK VINA RESULT:      -8.2      0.000      0.000
REMARK  Name = 51137192
REMARK  6 active torsions:
REMARK  status: ('A' for Active; 'I' for Inactive)
REMARK    1  A    between atoms: O_5  and  C_22
REMARK    2  A    between atoms: O_5  and  C_28
REMARK    3  A    between atoms: N_6  and  C_13
REMARK    4  A    between atoms: C_9  and  C_14
REMARK    5  A    between atoms: C_13  and  C_15
REMARK    6  A    between atoms: C_18  and  C_21
REMARK                            x       y       z     vdW  Elec       q    Type
REMARK                         _______ _______ _______ _____ _____    ______ ____
ROOT
ATOM      6  N   UNL     1      17.380   7.333  20.526  0.00  0.00    -0.297 NA
ATOM      9  C   UNL     1      19.572   6.550  20.808  0.00  0.00    +0.092 C 
ATOM     10  C   UNL     1      18.821   5.633  19.828  0.00  0.00    +0.029 C 
ATOM     11  C   UNL     1      18.471   7.362  21.503  0.00  0.00    +0.097 C 
ATOM     12  C   UNL     1      17.346   5.954  20.039  0.00  0.00    +0.085 C 
ENDROOT
BRANCH   9  14
ATOM      4  O   UNL     1      21.172   4.763  21.304  0.00  0.00    -0.420 OA
ATOM      7  N   UNL     1      20.706   6.081  23.050  0.00  0.00    -0.112 NA
ATOM      8  N   UNL     1      21.613   5.125  23.467  0.00  0.00    -0.107 NA
ATOM     14  C   UNL     1      20.477   5.832  21.782  0.00  0.00    +0.222 A 
ATOM     18  C   UNL     1      21.856   4.379  22.416  0.00  0.00    +0.248 A 
BRANCH  18  21
ATOM     21  C   UNL     1      22.716   3.241  22.260  0.00  0.00    +0.038 A 
ATOM     23  C   UNL     1      23.235   2.926  21.005  0.00  0.00    +0.013 A 
ATOM     24  C   UNL     1      23.034   2.451  23.365  0.00  0.00    +0.013 A 
ATOM     25  C   UNL     1      24.073   1.819  20.854  0.00  0.00    +0.001 A 
ATOM     26  C   UNL     1      23.870   1.345  23.215  0.00  0.00    +0.001 A 
ATOM     27  C   UNL     1      24.389   1.030  21.959  0.00  0.00    +0.000 A 
ENDBRANCH  18  21
ENDBRANCH   9  14
BRANCH   6  13
ATOM     13  C   UNL     1      16.109   7.748  21.101  0.00  0.00    +0.119 C 
BRANCH  13  15
ATOM     15  C   UNL     1      14.982   7.643  20.107  0.00  0.00    -0.033 A 
ATOM     16  C   UNL     1      15.074   8.295  18.878  0.00  0.00    +0.008 A 
ATOM     17  C   UNL     1      13.848   6.892  20.415  0.00  0.00    +0.008 A 
ATOM     19  C   UNL     1      14.032   8.195  17.956  0.00  0.00    +0.046 A 
ATOM     20  C   UNL     1      12.806   6.792  19.494  0.00  0.00    +0.046 A 
ATOM     22  C   UNL     1      12.898   7.444  18.264  0.00  0.00    +0.130 A 
BRANCH  22   5
ATOM      5  O   UNL     1      11.882   7.346  17.364  0.00  0.00    -0.406 OA
BRANCH   5  28
ATOM      1  F   UNL     1      10.092   8.165  16.258  0.00  0.00    -0.133 F 
ATOM      2  F   UNL     1      10.362   8.744  18.349  0.00  0.00    -0.133 F 
ATOM      3  F   UNL     1      11.699   9.551  16.785  0.00  0.00    -0.133 F 
ATOM     28  C   UNL     1      11.016   8.463  17.201  0.00  0.00    +0.575 C 
ENDBRANCH   5  28
ENDBRANCH  22   5
ENDBRANCH  13  15
ENDBRANCH   6  13
TORSDOF 6
ENDMDL
MODEL 2
REMARK VINA RESULT:      -7.2     26.947     29.551
REMARK  Name = 51137192
REMARK  6 active torsions:
REMARK  status: ('A' for Active; 'I' for Inactive)
REMARK    1  A    between atoms: O_5  and  C_22
REMARK    2  A    between atoms: O_5  and  C_28
REMARK    3  A    between atoms: N_6  and  C_13
REMARK    4  A    between atoms: C_9  and  C_14
REMARK    5  A    between atoms: C_13  and  C_15
REMARK    6  A    between atoms: C_18  and  C_21
REMARK                            x       y       z     vdW  Elec       q    Type
REMARK                         _______ _______ _______ _____ _____    ______ ____
ROOT
ATOM      6  N   UNL     1      -2.051 -10.985  13.881  0.00  0.00    -0.297 NA
ATOM      9  C   UNL     1      -3.208 -10.259  15.787  0.00  0.00    +0.092 C 
ATOM     10  C   UNL     1      -1.785 -10.689  16.182  0.00  0.00    +0.029 C 
ATOM     11  C   UNL     1      -3.419 -10.852  14.387  0.00  0.00    +0.097 C 
ATOM     12  C   UNL     1      -1.283 -11.518  15.005  0.00  0.00    +0.085 C 
ENDROOT
BRANCH   9  14
ATOM      4  O   UNL     1      -5.495 -10.048  16.638  0.00  0.00    -0.420 OA
ATOM      7  N   UNL     1      -4.244 -11.536  17.744  0.00  0.00    -0.112 NA
ATOM      8  N   UNL     1      -5.499 -11.518  18.325  0.00  0.00    -0.107 NA
ATOM     14  C   UNL     1      -4.287 -10.663  16.766  0.00  0.00    +0.222 A 
ATOM     18  C   UNL     1      -6.195 -10.636  17.647  0.00  0.00    +0.248 A 
BRANCH  18  21
ATOM     21  C   UNL     1      -7.554 -10.204  17.802  0.00  0.00    +0.038 A 
ATOM     23  C   UNL     1      -8.013  -9.083  17.110  0.00  0.00    +0.013 A 
ATOM     24  C   UNL     1      -8.417 -10.906  18.643  0.00  0.00    +0.013 A 
ATOM     25  C   UNL     1      -9.336  -8.664  17.260  0.00  0.00    +0.001 A 
ATOM     26  C   UNL     1      -9.739 -10.488  18.794  0.00  0.00    +0.001 A 
ATOM     27  C   UNL     1     -10.197  -9.366  18.103  0.00  0.00    +0.000 A 
ENDBRANCH  18  21
ENDBRANCH   9  14
BRANCH   6  13
ATOM     13  C   UNL     1      -1.975 -11.838  12.705  0.00  0.00    +0.119 C 
BRANCH  13  15
ATOM     15  C   UNL     1      -2.718 -11.249  11.535  0.00  0.00    -0.033 A 
ATOM     16  C   UNL     1      -3.580 -12.047  10.783  0.00  0.00    +0.008 A 
ATOM     17  C   UNL     1      -2.546  -9.904  11.205  0.00  0.00    +0.008 A 
ATOM     19  C   UNL     1      -4.270 -11.500   9.701  0.00  0.00    +0.046 A 
ATOM     20  C   UNL     1      -3.236  -9.358  10.124  0.00  0.00    +0.046 A 
ATOM     22  C   UNL     1      -4.099 -10.155   9.371  0.00  0.00    +0.130 A 
BRANCH  22   5
ATOM      5  O   UNL     1      -4.773  -9.622   8.316  0.00  0.00    -0.406 OA
BRANCH   5  28
ATOM      1  F   UNL     1      -6.774  -9.916   9.319  0.00  0.00    -0.133 F 
ATOM      2  F   UNL     1      -5.962  -7.889   9.221  0.00  0.00    -0.133 F 
ATOM      3  F   UNL     1      -6.730  -8.874   7.397  0.00  0.00    -0.133 F 
ATOM     28  C   UNL     1      -6.059  -9.059   8.554  0.00  0.00    +0.575 C 
ENDBRANCH   5  28
ENDBRANCH  22   5
ENDBRANCH  13  15
ENDBRANCH   6  13
TORSDOF 6
ENDMDL
MODEL 3
REMARK VINA RESULT:      -7.1     30.895     33.285
REMARK  Name = 51137192
REMARK  6 active torsions:
REMARK  status: ('A' for Active; 'I' for Inactive)
REMARK    1  A    between atoms: O_5  and  C_22
REMARK    2  A    between atoms: O_5  and  C_28
REMARK    3  A    between atoms: N_6  and  C_13
REMARK    4  A    between atoms: C_9  and  C_14
REMARK    5  A    between atoms: C_13  and  C_15
REMARK    6  A    between atoms: C_18  and  C_21
REMARK                            x       y       z     vdW  Elec       q    Type
REMARK                         _______ _______ _______ _____ _____    ______ ____
ROOT
ATOM      6  N   UNL     1     -13.785   7.049  33.300  0.00  0.00    -0.297 NA
ATOM      9  C   UNL     1     -12.067   8.589  32.884  0.00  0.00    +0.092 C 
ATOM     10  C   UNL     1     -12.825   8.998  34.158  0.00  0.00    +0.029 C 
ATOM     11  C   UNL     1     -12.988   7.576  32.190  0.00  0.00    +0.097 C 
ATOM     12  C   UNL     1     -14.135   8.221  34.103  0.00  0.00    +0.085 C 
ENDROOT
BRANCH   9  14
ATOM      4  O   UNL     1     -11.880   9.573  30.648  0.00  0.00    -0.420 OA
ATOM      7  N   UNL     1     -11.150  10.901  32.294  0.00  0.00    -0.112 NA
ATOM      8  N   UNL     1     -10.987  11.575  31.097  0.00  0.00    -0.107 NA
ATOM     14  C   UNL     1     -11.673   9.738  31.984  0.00  0.00    +0.222 A 
ATOM     18  C   UNL     1     -11.426  10.762  30.166  0.00  0.00    +0.248 A 
BRANCH  18  21
ATOM     21  C   UNL     1     -11.501  10.931  28.743  0.00  0.00    +0.038 A 
ATOM     23  C   UNL     1     -10.942   9.974  27.897  0.00  0.00    +0.013 A 
ATOM     24  C   UNL     1     -12.134  12.051  28.206  0.00  0.00    +0.013 A 
ATOM     25  C   UNL     1     -11.016  10.137  26.512  0.00  0.00    +0.001 A 
ATOM     26  C   UNL     1     -12.208  12.217  26.823  0.00  0.00    +0.001 A 
ATOM     27  C   UNL     1     -11.649  11.259  25.977  0.00  0.00    +0.000 A 
ENDBRANCH  18  21
ENDBRANCH   9  14
BRANCH   6  13
ATOM     13  C   UNL     1     -14.959   6.320  32.844  0.00  0.00    +0.119 C 
BRANCH  13  15
ATOM     15  C   UNL     1     -14.586   5.054  32.119  0.00  0.00    -0.033 A 
ATOM     16  C   UNL     1     -15.233   4.714  30.931  0.00  0.00    +0.008 A 
ATOM     17  C   UNL     1     -13.592   4.222  32.634  0.00  0.00    +0.008 A 
ATOM     19  C   UNL     1     -14.885   3.542  30.258  0.00  0.00    +0.046 A 
ATOM     20  C   UNL     1     -13.245   3.051  31.962  0.00  0.00    +0.046 A 
ATOM     22  C   UNL     1     -13.891   2.710  30.774  0.00  0.00    +0.130 A 
BRANCH  22   5
ATOM      5  O   UNL     1     -13.552   1.568  30.117  0.00  0.00    -0.406 OA
BRANCH   5  28
ATOM      1  F   UNL     1     -14.994   0.503  31.487  0.00  0.00    -0.133 F 
ATOM      2  F   UNL     1     -15.336   0.371  29.332  0.00  0.00    -0.133 F 
ATOM      3  F   UNL     1     -13.651  -0.713  30.264  0.00  0.00    -0.133 F 
ATOM     28  C   UNL     1     -14.380   0.423  30.284  0.00  0.00    +0.575 C 
ENDBRANCH   5  28
ENDBRANCH  22   5
ENDBRANCH  13  15
ENDBRANCH   6  13
TORSDOF 6
ENDMDL
MODEL 4
REMARK VINA RESULT:      -7.1      1.655      2.546
REMARK  Name = 51137192
REMARK  6 active torsions:
REMARK  status: ('A' for Active; 'I' for Inactive)
REMARK    1  A    between atoms: O_5  and  C_22
REMARK    2  A    between atoms: O_5  and  C_28
REMARK    3  A    between atoms: N_6  and  C_13
REMARK    4  A    between atoms: C_9  and  C_14
REMARK    5  A    between atoms: C_13  and  C_15
REMARK    6  A    between atoms: C_18  and  C_21
REMARK                            x       y       z     vdW  Elec       q    Type
REMARK                         _______ _______ _______ _____ _____    ______ ____
ROOT
ATOM      6  N   UNL     1      18.110   7.276  21.437  0.00  0.00    -0.297 NA
ATOM      9  C   UNL     1      19.907   6.773  22.856  0.00  0.00    +0.092 C 
ATOM     10  C   UNL     1      19.805   8.297  22.677  0.00  0.00    +0.029 C 
ATOM     11  C   UNL     1      19.049   6.189  21.726  0.00  0.00    +0.097 C 
ATOM     12  C   UNL     1      18.923   8.491  21.449  0.00  0.00    +0.085 C 
ENDROOT
BRANCH   9  14
ATOM      4  O   UNL     1      21.474   4.918  22.530  0.00  0.00    -0.420 OA
ATOM      7  N   UNL     1      22.445   6.835  23.151  0.00  0.00    -0.112 NA
ATOM      8  N   UNL     1      23.436   5.882  23.004  0.00  0.00    -0.107 NA
ATOM     14  C   UNL     1      21.317   6.229  22.865  0.00  0.00    +0.222 A 
ATOM     18  C   UNL     1      22.823   4.780  22.641  0.00  0.00    +0.248 A 
BRANCH  18  21
ATOM     21  C   UNL     1      23.346   3.477  22.348  0.00  0.00    +0.038 A 
ATOM     23  C   UNL     1      23.515   2.547  23.373  0.00  0.00    +0.013 A 
ATOM     24  C   UNL     1      23.685   3.141  21.038  0.00  0.00    +0.013 A 
ATOM     25  C   UNL     1      24.023   1.279  23.088  0.00  0.00    +0.001 A 
ATOM     26  C   UNL     1      24.195   1.874  20.752  0.00  0.00    +0.001 A 
ATOM     27  C   UNL     1      24.363   0.943  21.777  0.00  0.00    +0.000 A 
ENDBRANCH  18  21
ENDBRANCH   9  14
BRANCH   6  13
ATOM     13  C   UNL     1      17.414   7.087  20.173  0.00  0.00    +0.119 C 
BRANCH  13  15
ATOM     15  C   UNL     1      15.919   7.158  20.338  0.00  0.00    -0.033 A 
ATOM     16  C   UNL     1      15.367   7.394  21.597  0.00  0.00    +0.008 A 
ATOM     17  C   UNL     1      15.086   6.991  19.232  0.00  0.00    +0.008 A 
ATOM     19  C   UNL     1      13.982   7.462  21.750  0.00  0.00    +0.046 A 
ATOM     20  C   UNL     1      13.702   7.060  19.384  0.00  0.00    +0.046 A 
ATOM     22  C   UNL     1      13.149   7.295  20.644  0.00  0.00    +0.130 A 
BRANCH  22   5
ATOM      5  O   UNL     1      11.798   7.363  20.792  0.00  0.00    -0.406 OA
BRANCH   5  28
ATOM      1  F   UNL     1      12.097   9.579  20.485  0.00  0.00    -0.133 F 
ATOM      2  F   UNL     1      10.496   8.594  19.370  0.00  0.00    -0.133 F 
ATOM      3  F   UNL     1      10.304   8.921  21.547  0.00  0.00    -0.133 F 
ATOM     28  C   UNL     1      11.156   8.609  20.548  0.00  0.00    +0.575 C 
ENDBRANCH   5  28
ENDBRANCH  22   5
ENDBRANCH  13  15
ENDBRANCH   6  13
TORSDOF 6
ENDMDL
MODEL 5
REMARK VINA RESULT:      -7.1     27.667     29.201
REMARK  Name = 51137192
REMARK  6 active torsions:
REMARK  status: ('A' for Active; 'I' for Inactive)
REMARK    1  A    between atoms: O_5  and  C_22
REMARK    2  A    between atoms: O_5  and  C_28
REMARK    3  A    between atoms: N_6  and  C_13
REMARK    4  A    between atoms: C_9  and  C_14
REMARK    5  A    between atoms: C_13  and  C_15
REMARK    6  A    between atoms: C_18  and  C_21
REMARK                            x       y       z     vdW  Elec       q    Type
REMARK                         _______ _______ _______ _____ _____    ______ ____
ROOT
ATOM      6  N   UNL     1      -2.940 -10.422  10.911  0.00  0.00    -0.297 NA
ATOM      9  C   UNL     1      -2.508 -11.495  12.950  0.00  0.00    +0.092 C 
ATOM     10  C   UNL     1      -3.879 -11.942  12.415  0.00  0.00    +0.029 C 
ATOM     11  C   UNL     1      -2.163 -10.239  12.140  0.00  0.00    +0.097 C 
ATOM     12  C   UNL     1      -4.245 -10.906  11.358  0.00  0.00    +0.085 C 
ENDROOT
BRANCH   9  14
ATOM      4  O   UNL     1      -3.639 -11.301  15.115  0.00  0.00    -0.420 OA
ATOM      7  N   UNL     1      -1.421 -11.030  15.216  0.00  0.00    -0.112 NA
ATOM      8  N   UNL     1      -1.927 -10.896  16.496  0.00  0.00    -0.107 NA
ATOM     14  C   UNL     1      -2.455 -11.265  14.443  0.00  0.00    +0.222 A 
ATOM     18  C   UNL     1      -3.224 -11.062  16.388  0.00  0.00    +0.248 A 
BRANCH  18  21
ATOM     21  C   UNL     1      -4.253 -11.031  17.388  0.00  0.00    +0.038 A 
ATOM     23  C   UNL     1      -5.438 -10.338  17.147  0.00  0.00    +0.013 A 
ATOM     24  C   UNL     1      -4.067 -11.696  18.600  0.00  0.00    +0.013 A 
ATOM     25  C   UNL     1      -6.439 -10.309  18.119  0.00  0.00    +0.001 A 
ATOM     26  C   UNL     1      -5.066 -11.667  19.573  0.00  0.00    +0.001 A 
ATOM     27  C   UNL     1      -6.252 -10.973  19.332  0.00  0.00    +0.000 A 
ENDBRANCH  18  21
ENDBRANCH   9  14
BRANCH   6  13
ATOM     13  C   UNL     1      -3.040  -9.198  10.130  0.00  0.00    +0.119 C 
BRANCH  13  15
ATOM     15  C   UNL     1      -4.338  -9.122   9.370  0.00  0.00    -0.033 A 
ATOM     16  C   UNL     1      -4.530  -9.915   8.239  0.00  0.00    +0.008 A 
ATOM     17  C   UNL     1      -5.349  -8.262   9.798  0.00  0.00    +0.008 A 
ATOM     19  C   UNL     1      -5.733  -9.847   7.535  0.00  0.00    +0.046 A 
ATOM     20  C   UNL     1      -6.551  -8.194   9.095  0.00  0.00    +0.046 A 
ATOM     22  C   UNL     1      -6.744  -8.987   7.964  0.00  0.00    +0.130 A 
BRANCH  22   5
ATOM      5  O   UNL     1      -7.918  -8.922   7.279  0.00  0.00    -0.406 OA
BRANCH   5  28
ATOM      1  F   UNL     1      -9.245  -8.095   5.651  0.00  0.00    -0.133 F 
ATOM      2  F   UNL     1      -8.048  -6.685   6.815  0.00  0.00    -0.133 F 
ATOM      3  F   UNL     1      -7.081  -8.025   5.348  0.00  0.00    -0.133 F 
ATOM     28  C   UNL     1      -8.057  -7.923   6.275  0.00  0.00    +0.575 C 
ENDBRANCH   5  28
ENDBRANCH  22   5
ENDBRANCH  13  15
ENDBRANCH   6  13
TORSDOF 6
ENDMDL
MODEL 6
REMARK VINA RESULT:      -7.0     27.504     31.508
REMARK  Name = 51137192
REMARK  6 active torsions:
REMARK  status: ('A' for Active; 'I' for Inactive)
REMARK    1  A    between atoms: O_5  and  C_22
REMARK    2  A    between atoms: O_5  and  C_28
REMARK    3  A    between atoms: N_6  and  C_13
REMARK    4  A    between atoms: C_9  and  C_14
REMARK    5  A    between atoms: C_13  and  C_15
REMARK    6  A    between atoms: C_18  and  C_21
REMARK                            x       y       z     vdW  Elec       q    Type
REMARK                         _______ _______ _______ _____ _____    ______ ____
ROOT
ATOM      6  N   UNL     1      -5.289  -9.496   8.831  0.00  0.00    -0.297 NA
ATOM      9  C   UNL     1      -7.553  -9.003   8.468  0.00  0.00    +0.092 C 
ATOM     10  C   UNL     1      -7.014  -9.838   7.294  0.00  0.00    +0.029 C 
ATOM     11  C   UNL     1      -6.299  -8.499   9.195  0.00  0.00    +0.097 C 
ATOM     12  C   UNL     1      -5.497  -9.740   7.404  0.00  0.00    +0.085 C 
ENDROOT
BRANCH   9  14
ATOM      4  O   UNL     1      -9.112  -7.218   9.085  0.00  0.00    -0.420 OA
ATOM      7  N   UNL     1      -8.815  -7.448   6.880  0.00  0.00    -0.112 NA
ATOM      8  N   UNL     1      -9.711  -6.415   7.084  0.00  0.00    -0.107 NA
ATOM     14  C   UNL     1      -8.493  -7.887   8.073  0.00  0.00    +0.222 A 
ATOM     18  C   UNL     1      -9.854  -6.317   8.384  0.00  0.00    +0.248 A 
BRANCH  18  21
ATOM     21  C   UNL     1     -10.656  -5.422   9.168  0.00  0.00    +0.038 A 
ATOM     23  C   UNL     1     -10.540  -4.044   8.989  0.00  0.00    +0.013 A 
ATOM     24  C   UNL     1     -11.553  -5.930  10.106  0.00  0.00    +0.013 A 
ATOM     25  C   UNL     1     -11.321  -3.173   9.750  0.00  0.00    +0.001 A 
ATOM     26  C   UNL     1     -12.334  -5.061  10.869  0.00  0.00    +0.001 A 
ATOM     27  C   UNL     1     -12.217  -3.682  10.690  0.00  0.00    +0.000 A 
ENDBRANCH  18  21
ENDBRANCH   9  14
BRANCH   6  13
ATOM     13  C   UNL     1      -3.936  -9.049   9.125  0.00  0.00    +0.119 C 
BRANCH  13  15
ATOM     15  C   UNL     1      -3.335  -9.803  10.282  0.00  0.00    -0.033 A 
ATOM     16  C   UNL     1      -2.194  -9.312  10.916  0.00  0.00    +0.008 A 
ATOM     17  C   UNL     1      -3.922 -10.989  10.722  0.00  0.00    +0.008 A 
ATOM     19  C   UNL     1      -1.639 -10.009  11.990  0.00  0.00    +0.046 A 
ATOM     20  C   UNL     1      -3.367 -11.685  11.795  0.00  0.00    +0.046 A 
ATOM     22  C   UNL     1      -2.225 -11.195  12.430  0.00  0.00    +0.130 A 
BRANCH  22   5
ATOM      5  O   UNL     1      -1.685 -11.874  13.478  0.00  0.00    -0.406 OA
BRANCH   5  28
ATOM      1  F   UNL     1      -1.018 -11.403  15.582  0.00  0.00    -0.133 F 
ATOM      2  F   UNL     1      -2.768 -10.353  14.800  0.00  0.00    -0.133 F 
ATOM      3  F   UNL     1      -2.891 -12.498  15.318  0.00  0.00    -0.133 F 
ATOM     28  C   UNL     1      -2.109 -11.531  14.792  0.00  0.00    +0.575 C 
ENDBRANCH   5  28
ENDBRANCH  22   5
ENDBRANCH  13  15
ENDBRANCH   6  13
TORSDOF 6
ENDMDL
MODEL 7
REMARK VINA RESULT:      -7.0     16.038     19.791
REMARK  Name = 51137192
REMARK  6 active torsions:
REMARK  status: ('A' for Active; 'I' for Inactive)
REMARK    1  A    between atoms: O_5  and  C_22
REMARK    2  A    between atoms: O_5  and  C_28
REMARK    3  A    between atoms: N_6  and  C_13
REMARK    4  A    between atoms: C_9  and  C_14
REMARK    5  A    between atoms: C_13  and  C_15
REMARK    6  A    between atoms: C_18  and  C_21
REMARK                            x       y       z     vdW  Elec       q    Type
REMARK                         _______ _______ _______ _____ _____    ______ ____
ROOT
ATOM      6  N   UNL     1      10.714   5.765   2.937  0.00  0.00    -0.297 NA
ATOM      9  C   UNL     1      10.590   4.929   0.750  0.00  0.00    +0.092 C 
ATOM     10  C   UNL     1      10.553   3.760   1.749  0.00  0.00    +0.029 C 
ATOM     11  C   UNL     1      11.091   6.126   1.568  0.00  0.00    +0.097 C 
ATOM     12  C   UNL     1      11.058   4.349   3.062  0.00  0.00    +0.085 C 
ENDROOT
BRANCH   9  14
ATOM      4  O   UNL     1      12.766   4.809  -0.369  0.00  0.00    -0.420 OA
ATOM      7  N   UNL     1      11.030   4.342  -1.699  0.00  0.00    -0.112 NA
ATOM      8  N   UNL     1      12.185   4.238  -2.452  0.00  0.00    -0.107 NA
ATOM     14  C   UNL     1      11.416   4.677  -0.491  0.00  0.00    +0.222 A 
ATOM     18  C   UNL     1      13.172   4.519  -1.635  0.00  0.00    +0.248 A 
BRANCH  18  21
ATOM     21  C   UNL     1      14.587   4.567  -1.866  0.00  0.00    +0.038 A 
ATOM     23  C   UNL     1      15.472   4.215  -0.847  0.00  0.00    +0.013 A 
ATOM     24  C   UNL     1      15.077   4.963  -3.110  0.00  0.00    +0.013 A 
ATOM     25  C   UNL     1      16.849   4.260  -1.073  0.00  0.00    +0.001 A 
ATOM     26  C   UNL     1      16.453   5.010  -3.336  0.00  0.00    +0.001 A 
ATOM     27  C   UNL     1      17.338   4.658  -2.317  0.00  0.00    +0.000 A 
ENDBRANCH  18  21
ENDBRANCH   9  14
BRANCH   6  13
ATOM     13  C   UNL     1      11.384   6.587   3.933  0.00  0.00    +0.119 C 
BRANCH  13  15
ATOM     15  C   UNL     1      10.753   6.447   5.293  0.00  0.00    -0.033 A 
ATOM     16  C   UNL     1      11.552   6.452   6.436  0.00  0.00    +0.008 A 
ATOM     17  C   UNL     1       9.369   6.315   5.410  0.00  0.00    +0.008 A 
ATOM     19  C   UNL     1      10.967   6.325   7.696  0.00  0.00    +0.046 A 
ATOM     20  C   UNL     1       8.785   6.189   6.670  0.00  0.00    +0.046 A 
ATOM     22  C   UNL     1       9.584   6.194   7.813  0.00  0.00    +0.130 A 
BRANCH  22   5
ATOM      5  O   UNL     1       9.013   6.071   9.043  0.00  0.00    -0.406 OA
BRANCH   5  28
ATOM      1  F   UNL     1       9.268   3.838   8.840  0.00  0.00    -0.133 F 
ATOM      2  F   UNL     1      10.312   4.847  10.474  0.00  0.00    -0.133 F 
ATOM      3  F   UNL     1       8.117   4.591  10.540  0.00  0.00    -0.133 F 
ATOM     28  C   UNL     1       9.177   4.842   9.742  0.00  0.00    +0.575 C 
ENDBRANCH   5  28
ENDBRANCH  22   5
ENDBRANCH  13  15
ENDBRANCH   6  13
TORSDOF 6
ENDMDL
MODEL 8
REMARK VINA RESULT:      -6.9     26.882     29.888
REMARK  Name = 51137192
REMARK  6 active torsions:
REMARK  status: ('A' for Active; 'I' for Inactive)
REMARK    1  A    between atoms: O_5  and  C_22
REMARK    2  A    between atoms: O_5  and  C_28
REMARK    3  A    between atoms: N_6  and  C_13
REMARK    4  A    between atoms: C_9  and  C_14
REMARK    5  A    between atoms: C_13  and  C_15
REMARK    6  A    between atoms: C_18  and  C_21
REMARK                            x       y       z     vdW  Elec       q    Type
REMARK                         _______ _______ _______ _____ _____    ______ ____
ROOT
ATOM      6  N   UNL     1     -11.413   9.149  18.258  0.00  0.00    -0.297 NA
ATOM      9  C   UNL     1     -11.239  10.538  16.377  0.00  0.00    +0.092 C 
ATOM     10  C   UNL     1     -10.607   9.171  16.066  0.00  0.00    +0.029 C 
ATOM     11  C   UNL     1     -11.366  10.570  17.906  0.00  0.00    +0.097 C 
ATOM     12  C   UNL     1     -10.387   8.520  17.427  0.00  0.00    +0.085 C 
ENDROOT
BRANCH   9  14
ATOM      4  O   UNL     1      -9.278  12.005  16.387  0.00  0.00    -0.420 OA
ATOM      7  N   UNL     1     -10.820  12.553  14.862  0.00  0.00    -0.112 NA
ATOM      8  N   UNL     1      -9.777  13.455  14.759  0.00  0.00    -0.107 NA
ATOM     14  C   UNL     1     -10.486  11.726  15.824  0.00  0.00    +0.222 A 
ATOM     18  C   UNL     1      -8.901  13.097  15.668  0.00  0.00    +0.248 A 
BRANCH  18  21
ATOM     21  C   UNL     1      -7.630  13.667  16.012  0.00  0.00    +0.038 A 
ATOM     23  C   UNL     1      -6.622  13.753  15.053  0.00  0.00    +0.013 A 
ATOM     24  C   UNL     1      -7.405  14.135  17.306  0.00  0.00    +0.013 A 
ATOM     25  C   UNL     1      -5.386  14.309  15.388  0.00  0.00    +0.001 A 
ATOM     26  C   UNL     1      -6.170  14.690  17.642  0.00  0.00    +0.001 A 
ATOM     27  C   UNL     1      -5.161  14.777  16.682  0.00  0.00    +0.000 A 
ENDBRANCH  18  21
ENDBRANCH   9  14
BRANCH   6  13
ATOM     13  C   UNL     1     -11.191   8.920  19.678  0.00  0.00    +0.119 C 
BRANCH  13  15
ATOM     15  C   UNL     1     -12.131   7.883  20.234  0.00  0.00    -0.033 A 
ATOM     16  C   UNL     1     -13.501   7.982  19.990  0.00  0.00    +0.008 A 
ATOM     17  C   UNL     1     -11.632   6.823  20.989  0.00  0.00    +0.008 A 
ATOM     19  C   UNL     1     -14.371   7.020  20.503  0.00  0.00    +0.046 A 
ATOM     20  C   UNL     1     -12.502   5.861  21.501  0.00  0.00    +0.046 A 
ATOM     22  C   UNL     1     -13.872   5.959  21.258  0.00  0.00    +0.130 A 
BRANCH  22   5
ATOM      5  O   UNL     1     -14.721   5.020  21.757  0.00  0.00    -0.406 OA
BRANCH   5  28
ATOM      1  F   UNL     1     -14.239   4.451  23.887  0.00  0.00    -0.133 F 
ATOM      2  F   UNL     1     -15.122   6.417  23.523  0.00  0.00    -0.133 F 
ATOM      3  F   UNL     1     -16.343   4.587  23.310  0.00  0.00    -0.133 F 
ATOM     28  C   UNL     1     -15.122   5.129  23.118  0.00  0.00    +0.575 C 
ENDBRANCH   5  28
ENDBRANCH  22   5
ENDBRANCH  13  15
ENDBRANCH   6  13
TORSDOF 6
ENDMDL
MODEL 9
REMARK VINA RESULT:      -6.7     32.363     33.703
REMARK  Name = 51137192
REMARK  6 active torsions:
REMARK  status: ('A' for Active; 'I' for Inactive)
REMARK    1  A    between atoms: O_5  and  C_22
REMARK    2  A    between atoms: O_5  and  C_28
REMARK    3  A    between atoms: N_6  and  C_13
REMARK    4  A    between atoms: C_9  and  C_14
REMARK    5  A    between atoms: C_13  and  C_15
REMARK    6  A    between atoms: C_18  and  C_21
REMARK                            x       y       z     vdW  Elec       q    Type
REMARK                         _______ _______ _______ _____ _____    ______ ____
ROOT
ATOM      6  N   UNL     1     -10.424  -5.472   8.545  0.00  0.00    -0.297 NA
ATOM      9  C   UNL     1     -12.002  -4.517   9.992  0.00  0.00    +0.092 C 
ATOM     10  C   UNL     1     -11.090  -3.415   9.427  0.00  0.00    +0.029 C 
ATOM     11  C   UNL     1     -11.262  -5.827   9.694  0.00  0.00    +0.097 C 
ATOM     12  C   UNL     1      -9.880  -4.154   8.868  0.00  0.00    +0.085 C 
ENDROOT
BRANCH   9  14
ATOM      4  O   UNL     1     -12.094  -5.421  12.267  0.00  0.00    -0.420 OA
ATOM      7  N   UNL     1     -12.887  -3.338  12.081  0.00  0.00    -0.112 NA
ATOM      8  N   UNL     1     -12.998  -3.720  13.405  0.00  0.00    -0.107 NA
ATOM     14  C   UNL     1     -12.355  -4.360  11.454  0.00  0.00    +0.222 A 
ATOM     18  C   UNL     1     -12.524  -4.942  13.466  0.00  0.00    +0.248 A 
BRANCH  18  21
ATOM     21  C   UNL     1     -12.390  -5.833  14.582  0.00  0.00    +0.038 A 
ATOM     23  C   UNL     1     -11.187  -5.895  15.285  0.00  0.00    +0.013 A 
ATOM     24  C   UNL     1     -13.463  -6.638  14.964  0.00  0.00    +0.013 A 
ATOM     25  C   UNL     1     -11.057  -6.762  16.371  0.00  0.00    +0.001 A 
ATOM     26  C   UNL     1     -13.334  -7.505  16.049  0.00  0.00    +0.001 A 
ATOM     27  C   UNL     1     -12.131  -7.566  16.752  0.00  0.00    +0.000 A 
ENDBRANCH  18  21
ENDBRANCH   9  14
BRANCH   6  13
ATOM     13  C   UNL     1      -9.382  -6.456   8.294  0.00  0.00    +0.119 C 
BRANCH  13  15
ATOM     15  C   UNL     1      -9.397  -6.938   6.867  0.00  0.00    -0.033 A 
ATOM     16  C   UNL     1     -10.573  -6.871   6.122  0.00  0.00    +0.008 A 
ATOM     17  C   UNL     1      -8.233  -7.448   6.291  0.00  0.00    +0.008 A 
ATOM     19  C   UNL     1     -10.586  -7.315   4.799  0.00  0.00    +0.046 A 
ATOM     20  C   UNL     1      -8.246  -7.891   4.969  0.00  0.00    +0.046 A 
ATOM     22  C   UNL     1      -9.423  -7.825   4.223  0.00  0.00    +0.130 A 
BRANCH  22   5
ATOM      5  O   UNL     1      -9.435  -8.257   2.932  0.00  0.00    -0.406 OA
BRANCH   5  28
ATOM      1  F   UNL     1      -9.488  -7.591   0.776  0.00  0.00    -0.133 F 
ATOM      2  F   UNL     1      -8.873  -6.135   2.287  0.00  0.00    -0.133 F 
ATOM      3  F   UNL     1      -7.537  -7.808   1.738  0.00  0.00    -0.133 F 
ATOM     28  C   UNL     1      -8.819  -7.440   1.943  0.00  0.00    +0.575 C 
ENDBRANCH   5  28
ENDBRANCH  22   5
ENDBRANCH  13  15
ENDBRANCH   6  13
TORSDOF 6
ENDMDL
MODEL 10
REMARK VINA RESULT:      -6.7     27.631     29.483
REMARK  Name = 51137192
REMARK  6 active torsions:
REMARK  status: ('A' for Active; 'I' for Inactive)
REMARK    1  A    between atoms: O_5  and  C_22
REMARK    2  A    between atoms: O_5  and  C_28
REMARK    3  A    between atoms: N_6  and  C_13
REMARK    4  A    between atoms: C_9  and  C_14
REMARK    5  A    between atoms: C_13  and  C_15
REMARK    6  A    between atoms: C_18  and  C_21
REMARK                            x       y       z     vdW  Elec       q    Type
REMARK                         _______ _______ _______ _____ _____    ______ ____
ROOT
ATOM      6  N   UNL     1      -4.380 -10.976  11.050  0.00  0.00    -0.297 NA
ATOM      9  C   UNL     1      -3.020 -10.377  12.864  0.00  0.00    +0.092 C 
ATOM     10  C   UNL     1      -2.269 -11.376  11.967  0.00  0.00    +0.029 C 
ATOM     11  C   UNL     1      -4.487 -10.487  12.426  0.00  0.00    +0.097 C 
ATOM     12  C   UNL     1      -3.348 -12.011  11.096  0.00  0.00    +0.085 C 
ENDROOT
BRANCH   9  14
ATOM      4  O   UNL     1      -3.958 -10.637  15.112  0.00  0.00    -0.420 OA
ATOM      7  N   UNL     1      -1.725 -10.745  15.036  0.00  0.00    -0.112 NA
ATOM      8  N   UNL     1      -2.116 -10.905  16.353  0.00  0.00    -0.107 NA
ATOM     14  C   UNL     1      -2.831 -10.591  14.348  0.00  0.00    +0.222 A 
ATOM     18  C   UNL     1      -3.426 -10.835  16.349  0.00  0.00    +0.248 A 
BRANCH  18  21
ATOM     21  C   UNL     1      -4.367 -10.934  17.427  0.00  0.00    +0.038 A 
ATOM     23  C   UNL     1      -5.605 -10.302  17.331  0.00  0.00    +0.013 A 
ATOM     24  C   UNL     1      -4.042 -11.664  18.570  0.00  0.00    +0.013 A 
ATOM     25  C   UNL     1      -6.521 -10.399  18.381  0.00  0.00    +0.001 A 
ATOM     26  C   UNL     1      -4.956 -11.761  19.620  0.00  0.00    +0.001 A 
ATOM     27  C   UNL     1      -6.195 -11.128  19.524  0.00  0.00    +0.000 A 
ENDBRANCH  18  21
ENDBRANCH   9  14
BRANCH   6  13
ATOM     13  C   UNL     1      -5.646 -11.480  10.539  0.00  0.00    +0.119 C 
BRANCH  13  15
ATOM     15  C   UNL     1      -6.369 -10.448   9.714  0.00  0.00    -0.033 A 
ATOM     16  C   UNL     1      -5.723  -9.266   9.355  0.00  0.00    +0.008 A 
ATOM     17  C   UNL     1      -7.683 -10.677   9.306  0.00  0.00    +0.008 A 
ATOM     19  C   UNL     1      -6.392  -8.311   8.588  0.00  0.00    +0.046 A 
ATOM     20  C   UNL     1      -8.352  -9.724   8.540  0.00  0.00    +0.046 A 
ATOM     22  C   UNL     1      -7.706  -8.540   8.180  0.00  0.00    +0.130 A 
BRANCH  22   5
ATOM      5  O   UNL     1      -8.358  -7.610   7.431  0.00  0.00    -0.406 OA
BRANCH   5  28
ATOM      1  F   UNL     1      -9.898  -5.963   7.320  0.00  0.00    -0.133 F 
ATOM      2  F   UNL     1      -9.465  -6.835   9.277  0.00  0.00    -0.133 F 
ATOM      3  F   UNL     1      -7.988  -5.522   8.289  0.00  0.00    -0.133 F 
ATOM     28  C   UNL     1      -8.917  -6.482   8.095  0.00  0.00    +0.575 C 
ENDBRANCH   5  28
ENDBRANCH  22   5
ENDBRANCH  13  15
ENDBRANCH   6  13
TORSDOF 6
ENDMDL
