MODEL 1
REMARK VINA RESULT:      -7.6      0.000      0.000
REMARK  Name = 45783830
REMARK  9 active torsions:
REMARK  status: ('A' for Active; 'I' for Inactive)
REMARK    1  A    between atoms: S_1  and  C_22
REMARK    2  A    between atoms: S_1  and  C_26
REMARK    3  A    between atoms: N_5  and  C_14
REMARK    4  A    between atoms: N_9  and  C_28
REMARK    5  A    between atoms: N_9  and  C_29
REMARK    6  A    between atoms: N_9  and  C_30
REMARK    7  A    between atoms: C_10  and  C_15
REMARK    8  A    between atoms: C_14  and  C_16
REMARK    9  A    between atoms: C_19  and  C_23
REMARK                            x       y       z     vdW  Elec       q    Type
REMARK                         _______ _______ _______ _____ _____    ______ ____
ROOT
ATOM      5  N   UNL     1      12.578   8.638  18.628  0.00  0.00    -0.287 NA
ATOM     10  C   UNL     1      13.397   7.458  18.289  0.00  0.00    +0.146 C 
ATOM     11  C   UNL     1      13.944   7.753  16.881  0.00  0.00    +0.030 C 
ATOM     12  C   UNL     1      13.330   9.089  16.487  0.00  0.00    +0.017 C 
ATOM     13  C   UNL     1      12.095   9.185  17.360  0.00  0.00    +0.085 C 
ENDROOT
BRANCH  10  15
ATOM      2  O   UNL     1      14.103   6.716  20.508  0.00  0.00    -0.336 OA
ATOM      6  N   UNL     1      15.787   7.379  19.188  0.00  0.00    -0.190 NA
ATOM      7  N   UNL     1      15.273   6.562  21.263  0.00  0.00    -0.056 NA
ATOM     15  C   UNL     1      14.494   7.201  19.300  0.00  0.00    +0.245 A 
ATOM     19  C   UNL     1      16.222   6.974  20.416  0.00  0.00    +0.204 A 
BRANCH  19  23
ATOM      8  N   UNL     1      19.416   8.001  22.021  0.00  0.00    -0.240 NA
ATOM     23  C   UNL     1      17.613   6.990  20.767  0.00  0.00    +0.041 A 
ATOM     24  C   UNL     1      18.498   6.061  20.228  0.00  0.00    +0.016 A 
ATOM     25  C   UNL     1      18.117   7.930  21.650  0.00  0.00    +0.124 A 
ATOM     27  C   UNL     1      19.841   6.102  20.585  0.00  0.00    +0.044 A 
ATOM     28  C   UNL     1      20.245   7.082  21.477  0.00  0.00    +0.121 A 
BRANCH  28   9
ATOM      9  N   UNL     1      21.617   7.109  21.832  0.00  0.00    -0.321 N 
ATOM     29  C   UNL     1      22.525   6.114  21.306  0.00  0.00    +0.130 C 
ATOM     30  C   UNL     1      22.117   8.128  22.728  0.00  0.00    +0.130 C 
ENDBRANCH  28   9
ENDBRANCH  19  23
ENDBRANCH  10  15
BRANCH   5  14
ATOM     14  C   UNL     1      11.487   8.336  19.545  0.00  0.00    +0.120 C 
BRANCH  14  16
ATOM     16  C   UNL     1      11.474   9.268  20.728  0.00  0.00    -0.033 A 
ATOM     17  C   UNL     1      12.081  10.521  20.635  0.00  0.00    +0.007 A 
ATOM     18  C   UNL     1      10.857   8.879  21.917  0.00  0.00    +0.007 A 
ATOM     20  C   UNL     1      12.070  11.384  21.731  0.00  0.00    +0.027 A 
ATOM     21  C   UNL     1      10.845   9.743  23.012  0.00  0.00    +0.027 A 
ATOM     22  C   UNL     1      11.452  10.995  22.919  0.00  0.00    +0.088 A 
BRANCH  22   1
ATOM      1  S   UNL     1      11.435  12.077  24.289  0.00  0.00    -0.006 S 
ATOM      3  O   UNL     1      10.058  12.463  24.569  0.00  0.00    -0.170 OA
ATOM      4  O   UNL     1      12.247  11.481  25.341  0.00  0.00    -0.170 OA
ATOM     26  C   UNL     1      12.274  13.535  23.712  0.00  0.00    +0.200 C 
ENDBRANCH  22   1
ENDBRANCH  14  16
ENDBRANCH   5  14
TORSDOF 6
ENDMDL
MODEL 2
REMARK VINA RESULT:      -7.3      1.509      2.063
REMARK  Name = 45783830
REMARK  9 active torsions:
REMARK  status: ('A' for Active; 'I' for Inactive)
REMARK    1  A    between atoms: S_1  and  C_22
REMARK    2  A    between atoms: S_1  and  C_26
REMARK    3  A    between atoms: N_5  and  C_14
REMARK    4  A    between atoms: N_9  and  C_28
REMARK    5  A    between atoms: N_9  and  C_29
REMARK    6  A    between atoms: N_9  and  C_30
REMARK    7  A    between atoms: C_10  and  C_15
REMARK    8  A    between atoms: C_14  and  C_16
REMARK    9  A    between atoms: C_19  and  C_23
REMARK                            x       y       z     vdW  Elec       q    Type
REMARK                         _______ _______ _______ _____ _____    ______ ____
ROOT
ATOM      5  N   UNL     1      13.246   8.166  19.364  0.00  0.00    -0.287 NA
ATOM     10  C   UNL     1      14.223   7.195  18.833  0.00  0.00    +0.146 C 
ATOM     11  C   UNL     1      14.306   7.508  17.328  0.00  0.00    +0.030 C 
ATOM     12  C   UNL     1      13.299   8.625  17.097  0.00  0.00    +0.017 C 
ATOM     13  C   UNL     1      12.339   8.486  18.262  0.00  0.00    +0.085 C 
ENDROOT
BRANCH  10  15
ATOM      2  O   UNL     1      15.903   8.494  20.042  0.00  0.00    -0.336 OA
ATOM      6  N   UNL     1      16.473   6.354  19.702  0.00  0.00    -0.190 NA
ATOM      7  N   UNL     1      17.168   8.331  20.621  0.00  0.00    -0.056 NA
ATOM     15  C   UNL     1      15.567   7.283  19.525  0.00  0.00    +0.245 A 
ATOM     19  C   UNL     1      17.436   7.044  20.378  0.00  0.00    +0.204 A 
BRANCH  19  23
ATOM      8  N   UNL     1      20.379   4.771  20.399  0.00  0.00    -0.240 NA
ATOM     23  C   UNL     1      18.656   6.418  20.801  0.00  0.00    +0.041 A 
ATOM     24  C   UNL     1      19.295   6.813  21.972  0.00  0.00    +0.016 A 
ATOM     25  C   UNL     1      19.233   5.402  20.056  0.00  0.00    +0.124 A 
ATOM     27  C   UNL     1      20.475   6.186  22.357  0.00  0.00    +0.044 A 
ATOM     28  C   UNL     1      20.971   5.181  21.542  0.00  0.00    +0.121 A 
BRANCH  28   9
ATOM      9  N   UNL     1      22.176   4.554  21.948  0.00  0.00    -0.321 N 
ATOM     29  C   UNL     1      22.814   4.937  23.188  0.00  0.00    +0.130 C 
ATOM     30  C   UNL     1      22.778   3.532  21.121  0.00  0.00    +0.130 C 
ENDBRANCH  28   9
ENDBRANCH  19  23
ENDBRANCH  10  15
BRANCH   5  14
ATOM     14  C   UNL     1      12.531   7.679  20.537  0.00  0.00    +0.120 C 
BRANCH  14  16
ATOM     16  C   UNL     1      12.197   8.795  21.492  0.00  0.00    -0.033 A 
ATOM     17  C   UNL     1      10.895   8.936  21.971  0.00  0.00    +0.007 A 
ATOM     18  C   UNL     1      13.189   9.688  21.896  0.00  0.00    +0.007 A 
ATOM     20  C   UNL     1      10.585   9.969  22.856  0.00  0.00    +0.027 A 
ATOM     21  C   UNL     1      12.880  10.721  22.781  0.00  0.00    +0.027 A 
ATOM     22  C   UNL     1      11.577  10.862  23.260  0.00  0.00    +0.088 A 
BRANCH  22   1
ATOM      1  S   UNL     1      11.190  12.153  24.370  0.00  0.00    -0.006 S 
ATOM      3  O   UNL     1      10.316  13.106  23.699  0.00  0.00    -0.170 OA
ATOM      4  O   UNL     1      10.775  11.552  25.630  0.00  0.00    -0.170 OA
ATOM     26  C   UNL     1      12.741  12.980  24.645  0.00  0.00    +0.200 C 
ENDBRANCH  22   1
ENDBRANCH  14  16
ENDBRANCH   5  14
TORSDOF 6
ENDMDL
MODEL 3
REMARK VINA RESULT:      -6.8     27.796     30.950
REMARK  Name = 45783830
REMARK  9 active torsions:
REMARK  status: ('A' for Active; 'I' for Inactive)
REMARK    1  A    between atoms: S_1  and  C_22
REMARK    2  A    between atoms: S_1  and  C_26
REMARK    3  A    between atoms: N_5  and  C_14
REMARK    4  A    between atoms: N_9  and  C_28
REMARK    5  A    between atoms: N_9  and  C_29
REMARK    6  A    between atoms: N_9  and  C_30
REMARK    7  A    between atoms: C_10  and  C_15
REMARK    8  A    between atoms: C_14  and  C_16
REMARK    9  A    between atoms: C_19  and  C_23
REMARK                            x       y       z     vdW  Elec       q    Type
REMARK                         _______ _______ _______ _____ _____    ______ ____
ROOT
ATOM      5  N   UNL     1     -15.666   5.256  22.177  0.00  0.00    -0.287 NA
ATOM     10  C   UNL     1     -16.881   4.976  22.967  0.00  0.00    +0.146 C 
ATOM     11  C   UNL     1     -17.947   4.599  21.924  0.00  0.00    +0.030 C 
ATOM     12  C   UNL     1     -17.259   4.754  20.575  0.00  0.00    +0.017 C 
ATOM     13  C   UNL     1     -16.122   5.714  20.865  0.00  0.00    +0.085 C 
ENDROOT
BRANCH  10  15
ATOM      2  O   UNL     1     -16.726   2.609  23.556  0.00  0.00    -0.336 OA
ATOM      6  N   UNL     1     -16.427   4.003  25.284  0.00  0.00    -0.190 NA
ATOM      7  N   UNL     1     -16.500   1.798  24.676  0.00  0.00    -0.056 NA
ATOM     15  C   UNL     1     -16.665   3.892  24.001  0.00  0.00    +0.245 A 
ATOM     19  C   UNL     1     -16.333   2.692  25.655  0.00  0.00    +0.204 A 
BRANCH  19  23
ATOM      8  N   UNL     1     -16.021   0.578  28.698  0.00  0.00    -0.240 NA
ATOM     23  C   UNL     1     -16.070   2.310  27.012  0.00  0.00    +0.041 A 
ATOM     24  C   UNL     1     -15.625   3.241  27.945  0.00  0.00    +0.016 A 
ATOM     25  C   UNL     1     -16.250   1.003  27.435  0.00  0.00    +0.124 A 
ATOM     27  C   UNL     1     -15.379   2.842  29.254  0.00  0.00    +0.044 A 
ATOM     28  C   UNL     1     -15.590   1.511  29.576  0.00  0.00    +0.121 A 
BRANCH  28   9
ATOM      9  N   UNL     1     -15.333   1.119  30.913  0.00  0.00    -0.321 N 
ATOM     29  C   UNL     1     -15.236   2.116  31.957  0.00  0.00    +0.130 C 
ATOM     30  C   UNL     1     -15.160  -0.278  31.242  0.00  0.00    +0.130 C 
ENDBRANCH  28   9
ENDBRANCH  19  23
ENDBRANCH  10  15
BRANCH   5  14
ATOM     14  C   UNL     1     -14.775   6.218  22.813  0.00  0.00    +0.120 C 
BRANCH  14  16
ATOM     16  C   UNL     1     -13.849   6.868  21.818  0.00  0.00    -0.033 A 
ATOM     17  C   UNL     1     -12.728   6.179  21.356  0.00  0.00    +0.007 A 
ATOM     18  C   UNL     1     -14.113   8.159  21.361  0.00  0.00    +0.007 A 
ATOM     20  C   UNL     1     -11.872   6.781  20.434  0.00  0.00    +0.027 A 
ATOM     21  C   UNL     1     -13.257   8.760  20.439  0.00  0.00    +0.027 A 
ATOM     22  C   UNL     1     -12.135   8.072  19.976  0.00  0.00    +0.088 A 
BRANCH  22   1
ATOM      1  S   UNL     1     -11.065   8.824  18.820  0.00  0.00    -0.006 S 
ATOM      3  O   UNL     1      -9.967   9.459  19.537  0.00  0.00    -0.170 OA
ATOM      4  O   UNL     1     -10.780   7.851  17.775  0.00  0.00    -0.170 OA
ATOM     26  C   UNL     1     -12.036  10.129  18.101  0.00  0.00    +0.200 C 
ENDBRANCH  22   1
ENDBRANCH  14  16
ENDBRANCH   5  14
TORSDOF 6
ENDMDL
MODEL 4
REMARK VINA RESULT:      -6.8     27.824     31.641
REMARK  Name = 45783830
REMARK  9 active torsions:
REMARK  status: ('A' for Active; 'I' for Inactive)
REMARK    1  A    between atoms: S_1  and  C_22
REMARK    2  A    between atoms: S_1  and  C_26
REMARK    3  A    between atoms: N_5  and  C_14
REMARK    4  A    between atoms: N_9  and  C_28
REMARK    5  A    between atoms: N_9  and  C_29
REMARK    6  A    between atoms: N_9  and  C_30
REMARK    7  A    between atoms: C_10  and  C_15
REMARK    8  A    between atoms: C_14  and  C_16
REMARK    9  A    between atoms: C_19  and  C_23
REMARK                            x       y       z     vdW  Elec       q    Type
REMARK                         _______ _______ _______ _____ _____    ______ ____
ROOT
ATOM      5  N   UNL     1     -17.642   2.971  26.939  0.00  0.00    -0.287 NA
ATOM     10  C   UNL     1     -16.476   2.328  26.305  0.00  0.00    +0.146 C 
ATOM     11  C   UNL     1     -16.837   0.833  26.245  0.00  0.00    +0.030 C 
ATOM     12  C   UNL     1     -18.195   0.724  26.924  0.00  0.00    +0.017 C 
ATOM     13  C   UNL     1     -18.256   1.959  27.800  0.00  0.00    +0.085 C 
ENDROOT
BRANCH  10  15
ATOM      2  O   UNL     1     -16.740   2.298  23.876  0.00  0.00    -0.336 OA
ATOM      6  N   UNL     1     -15.399   3.926  24.628  0.00  0.00    -0.190 NA
ATOM      7  N   UNL     1     -16.306   3.000  22.743  0.00  0.00    -0.056 NA
ATOM     15  C   UNL     1     -16.161   2.908  24.942  0.00  0.00    +0.245 A 
ATOM     19  C   UNL     1     -15.520   3.943  23.269  0.00  0.00    +0.204 A 
BRANCH  19  23
ATOM      8  N   UNL     1     -14.974   6.750  20.891  0.00  0.00    -0.240 NA
ATOM     23  C   UNL     1     -14.843   4.919  22.464  0.00  0.00    +0.041 A 
ATOM     24  C   UNL     1     -13.454   5.001  22.457  0.00  0.00    +0.016 A 
ATOM     25  C   UNL     1     -15.550   5.808  21.672  0.00  0.00    +0.124 A 
ATOM     27  C   UNL     1     -12.825   5.957  21.666  0.00  0.00    +0.044 A 
ATOM     28  C   UNL     1     -13.623   6.799  20.909  0.00  0.00    +0.121 A 
BRANCH  28   9
ATOM      9  N   UNL     1     -12.967   7.768  20.110  0.00  0.00    -0.321 N 
ATOM     29  C   UNL     1     -11.735   7.436  19.429  0.00  0.00    +0.130 C 
ATOM     30  C   UNL     1     -13.521   9.097  19.976  0.00  0.00    +0.130 C 
ENDBRANCH  28   9
ENDBRANCH  19  23
ENDBRANCH  10  15
BRANCH   5  14
ATOM     14  C   UNL     1     -17.302   4.182  27.675  0.00  0.00    +0.120 C 
BRANCH  14  16
ATOM     16  C   UNL     1     -16.566   3.874  28.952  0.00  0.00    -0.033 A 
ATOM     17  C   UNL     1     -17.207   4.026  30.181  0.00  0.00    +0.007 A 
ATOM     18  C   UNL     1     -15.242   3.436  28.906  0.00  0.00    +0.007 A 
ATOM     20  C   UNL     1     -16.525   3.741  31.364  0.00  0.00    +0.027 A 
ATOM     21  C   UNL     1     -14.561   3.150  30.088  0.00  0.00    +0.027 A 
ATOM     22  C   UNL     1     -15.202   3.303  31.317  0.00  0.00    +0.088 A 
BRANCH  22   1
ATOM      1  S   UNL     1     -14.349   2.942  32.798  0.00  0.00    -0.006 S 
ATOM      3  O   UNL     1     -15.179   2.074  33.622  0.00  0.00    -0.170 OA
ATOM      4  O   UNL     1     -12.997   2.529  32.447  0.00  0.00    -0.170 OA
ATOM     26  C   UNL     1     -14.240   4.506  33.639  0.00  0.00    +0.200 C 
ENDBRANCH  22   1
ENDBRANCH  14  16
ENDBRANCH   5  14
TORSDOF 6
ENDMDL
MODEL 5
REMARK VINA RESULT:      -6.6     26.257     28.351
REMARK  Name = 45783830
REMARK  9 active torsions:
REMARK  status: ('A' for Active; 'I' for Inactive)
REMARK    1  A    between atoms: S_1  and  C_22
REMARK    2  A    between atoms: S_1  and  C_26
REMARK    3  A    between atoms: N_5  and  C_14
REMARK    4  A    between atoms: N_9  and  C_28
REMARK    5  A    between atoms: N_9  and  C_29
REMARK    6  A    between atoms: N_9  and  C_30
REMARK    7  A    between atoms: C_10  and  C_15
REMARK    8  A    between atoms: C_14  and  C_16
REMARK    9  A    between atoms: C_19  and  C_23
REMARK                            x       y       z     vdW  Elec       q    Type
REMARK                         _______ _______ _______ _____ _____    ______ ____
ROOT
ATOM      5  N   UNL     1     -11.083   9.333  17.601  0.00  0.00    -0.287 NA
ATOM     10  C   UNL     1     -10.400  10.331  18.447  0.00  0.00    +0.146 C 
ATOM     11  C   UNL     1     -10.061  11.489  17.491  0.00  0.00    +0.030 C 
ATOM     12  C   UNL     1     -10.537  11.027  16.122  0.00  0.00    +0.017 C 
ATOM     13  C   UNL     1     -10.565   9.516  16.245  0.00  0.00    +0.085 C 
ENDROOT
BRANCH  10  15
ATOM      2  O   UNL     1     -12.138  11.767  19.390  0.00  0.00    -0.336 OA
ATOM      6  N   UNL     1     -11.241  10.333  20.859  0.00  0.00    -0.190 NA
ATOM      7  N   UNL     1     -12.789  11.999  20.608  0.00  0.00    -0.056 NA
ATOM     15  C   UNL     1     -11.243  10.771  19.625  0.00  0.00    +0.245 A 
ATOM     19  C   UNL     1     -12.205  11.116  21.424  0.00  0.00    +0.204 A 
BRANCH  19  23
ATOM      8  N   UNL     1     -14.197  10.340  24.466  0.00  0.00    -0.240 NA
ATOM     23  C   UNL     1     -12.564  10.990  22.807  0.00  0.00    +0.041 A 
ATOM     24  C   UNL     1     -11.682  11.372  23.813  0.00  0.00    +0.016 A 
ATOM     25  C   UNL     1     -13.798  10.484  23.183  0.00  0.00    +0.124 A 
ATOM     27  C   UNL     1     -12.058  11.239  25.146  0.00  0.00    +0.044 A 
ATOM     28  C   UNL     1     -13.314  10.722  25.416  0.00  0.00    +0.121 A 
BRANCH  28   9
ATOM      9  N   UNL     1     -13.682  10.591  26.778  0.00  0.00    -0.321 N 
ATOM     29  C   UNL     1     -12.669  10.616  27.811  0.00  0.00    +0.130 C 
ATOM     30  C   UNL     1     -15.070  10.425  27.145  0.00  0.00    +0.130 C 
ENDBRANCH  28   9
ENDBRANCH  19  23
ENDBRANCH  10  15
BRANCH   5  14
ATOM     14  C   UNL     1     -10.913   7.965  18.072  0.00  0.00    +0.120 C 
BRANCH  14  16
ATOM     16  C   UNL     1     -11.983   7.574  19.057  0.00  0.00    -0.033 A 
ATOM     17  C   UNL     1     -13.316   7.896  18.803  0.00  0.00    +0.007 A 
ATOM     18  C   UNL     1     -11.641   6.889  20.223  0.00  0.00    +0.007 A 
ATOM     20  C   UNL     1     -14.307   7.533  19.715  0.00  0.00    +0.027 A 
ATOM     21  C   UNL     1     -12.632   6.526  21.135  0.00  0.00    +0.027 A 
ATOM     22  C   UNL     1     -13.965   6.849  20.881  0.00  0.00    +0.088 A 
BRANCH  22   1
ATOM      1  S   UNL     1     -15.207   6.392  22.021  0.00  0.00    -0.006 S 
ATOM      3  O   UNL     1     -15.178   7.317  23.146  0.00  0.00    -0.170 OA
ATOM      4  O   UNL     1     -16.444   6.193  21.279  0.00  0.00    -0.170 OA
ATOM     26  C   UNL     1     -14.680   4.809  22.638  0.00  0.00    +0.200 C 
ENDBRANCH  22   1
ENDBRANCH  14  16
ENDBRANCH   5  14
TORSDOF 6
ENDMDL
MODEL 6
REMARK VINA RESULT:      -6.5     14.896     17.856
REMARK  Name = 45783830
REMARK  9 active torsions:
REMARK  status: ('A' for Active; 'I' for Inactive)
REMARK    1  A    between atoms: S_1  and  C_22
REMARK    2  A    between atoms: S_1  and  C_26
REMARK    3  A    between atoms: N_5  and  C_14
REMARK    4  A    between atoms: N_9  and  C_28
REMARK    5  A    between atoms: N_9  and  C_29
REMARK    6  A    between atoms: N_9  and  C_30
REMARK    7  A    between atoms: C_10  and  C_15
REMARK    8  A    between atoms: C_14  and  C_16
REMARK    9  A    between atoms: C_19  and  C_23
REMARK                            x       y       z     vdW  Elec       q    Type
REMARK                         _______ _______ _______ _____ _____    ______ ____
ROOT
ATOM      5  N   UNL     1       9.947   6.572   5.624  0.00  0.00    -0.287 NA
ATOM     10  C   UNL     1      10.637   7.635   6.382  0.00  0.00    +0.146 C 
ATOM     11  C   UNL     1      10.059   7.537   7.805  0.00  0.00    +0.030 C 
ATOM     12  C   UNL     1       9.012   6.435   7.736  0.00  0.00    +0.017 C 
ATOM     13  C   UNL     1       8.646   6.383   6.265  0.00  0.00    +0.085 C 
ENDROOT
BRANCH  10  15
ATOM      2  O   UNL     1      12.687   6.627   7.250  0.00  0.00    -0.336 OA
ATOM      6  N   UNL     1      13.019   8.077   5.575  0.00  0.00    -0.190 NA
ATOM      7  N   UNL     1      14.071   6.662   7.033  0.00  0.00    -0.056 NA
ATOM     15  C   UNL     1      12.143   7.488   6.350  0.00  0.00    +0.245 A 
ATOM     19  C   UNL     1      14.187   7.539   6.032  0.00  0.00    +0.204 A 
BRANCH  19  23
ATOM      8  N   UNL     1      16.896   7.994   3.525  0.00  0.00    -0.240 NA
ATOM     23  C   UNL     1      15.455   7.896   5.463  0.00  0.00    +0.041 A 
ATOM     24  C   UNL     1      16.453   8.471   6.244  0.00  0.00    +0.016 A 
ATOM     25  C   UNL     1      15.724   7.681   4.121  0.00  0.00    +0.124 A 
ATOM     27  C   UNL     1      17.672   8.806   5.666  0.00  0.00    +0.044 A 
ATOM     28  C   UNL     1      17.841   8.550   4.315  0.00  0.00    +0.121 A 
BRANCH  28   9
ATOM      9  N   UNL     1      19.089   8.898   3.740  0.00  0.00    -0.321 N 
ATOM     29  C   UNL     1      19.670  10.198   3.996  0.00  0.00    +0.130 C 
ATOM     30  C   UNL     1      19.786   7.960   2.889  0.00  0.00    +0.130 C 
ENDBRANCH  28   9
ENDBRANCH  19  23
ENDBRANCH  10  15
BRANCH   5  14
ATOM     14  C   UNL     1       9.819   6.870   4.203  0.00  0.00    +0.120 C 
BRANCH  14  16
ATOM     16  C   UNL     1      10.802   6.086   3.375  0.00  0.00    -0.033 A 
ATOM     17  C   UNL     1      11.839   6.744   2.714  0.00  0.00    +0.007 A 
ATOM     18  C   UNL     1      10.675   4.701   3.268  0.00  0.00    +0.007 A 
ATOM     20  C   UNL     1      12.750   6.017   1.947  0.00  0.00    +0.027 A 
ATOM     21  C   UNL     1      11.586   3.974   2.501  0.00  0.00    +0.027 A 
ATOM     22  C   UNL     1      12.623   4.632   1.840  0.00  0.00    +0.088 A 
BRANCH  22   1
ATOM      1  S   UNL     1      13.764   3.722   0.882  0.00  0.00    -0.006 S 
ATOM      3  O   UNL     1      14.693   3.042   1.775  0.00  0.00    -0.170 OA
ATOM      4  O   UNL     1      13.013   2.955  -0.101  0.00  0.00    -0.170 OA
ATOM     26  C   UNL     1      14.697   4.961   0.011  0.00  0.00    +0.200 C 
ENDBRANCH  22   1
ENDBRANCH  14  16
ENDBRANCH   5  14
TORSDOF 6
ENDMDL
MODEL 7
REMARK VINA RESULT:      -6.5     28.093     30.499
REMARK  Name = 45783830
REMARK  9 active torsions:
REMARK  status: ('A' for Active; 'I' for Inactive)
REMARK    1  A    between atoms: S_1  and  C_22
REMARK    2  A    between atoms: S_1  and  C_26
REMARK    3  A    between atoms: N_5  and  C_14
REMARK    4  A    between atoms: N_9  and  C_28
REMARK    5  A    between atoms: N_9  and  C_29
REMARK    6  A    between atoms: N_9  and  C_30
REMARK    7  A    between atoms: C_10  and  C_15
REMARK    8  A    between atoms: C_14  and  C_16
REMARK    9  A    between atoms: C_19  and  C_23
REMARK                            x       y       z     vdW  Elec       q    Type
REMARK                         _______ _______ _______ _____ _____    ______ ____
ROOT
ATOM      5  N   UNL     1     -10.078 -12.142  19.404  0.00  0.00    -0.287 NA
ATOM     10  C   UNL     1      -8.869 -12.646  20.084  0.00  0.00    +0.146 C 
ATOM     11  C   UNL     1      -8.992 -14.179  20.017  0.00  0.00    +0.030 C 
ATOM     12  C   UNL     1     -10.328 -14.442  19.338  0.00  0.00    +0.017 C 
ATOM     13  C   UNL     1     -11.109 -13.165  19.582  0.00  0.00    +0.085 C 
ENDROOT
BRANCH  10  15
ATOM      2  O   UNL     1      -6.909 -11.188  20.152  0.00  0.00    -0.336 OA
ATOM      6  N   UNL     1      -7.033 -12.467  18.317  0.00  0.00    -0.190 NA
ATOM      7  N   UNL     1      -5.782 -10.874  19.382  0.00  0.00    -0.056 NA
ATOM     15  C   UNL     1      -7.591 -12.133  19.454  0.00  0.00    +0.245 A 
ATOM     19  C   UNL     1      -5.926 -11.668  18.317  0.00  0.00    +0.204 A 
BRANCH  19  23
ATOM      8  N   UNL     1      -4.118 -12.796  15.269  0.00  0.00    -0.240 NA
ATOM     23  C   UNL     1      -4.982 -11.689  17.237  0.00  0.00    +0.041 A 
ATOM     24  C   UNL     1      -4.041 -10.675  17.089  0.00  0.00    +0.016 A 
ATOM     25  C   UNL     1      -4.980 -12.717  16.308  0.00  0.00    +0.124 A 
ATOM     27  C   UNL     1      -3.137 -10.722  16.033  0.00  0.00    +0.044 A 
ATOM     28  C   UNL     1      -3.218 -11.794  15.159  0.00  0.00    +0.121 A 
BRANCH  28   9
ATOM      9  N   UNL     1      -2.292 -11.827  14.087  0.00  0.00    -0.321 N 
ATOM     29  C   UNL     1      -1.536 -13.030  13.815  0.00  0.00    +0.130 C 
ATOM     30  C   UNL     1      -2.091 -10.656  13.263  0.00  0.00    +0.130 C 
ENDBRANCH  28   9
ENDBRANCH  19  23
ENDBRANCH  10  15
BRANCH   5  14
ATOM     14  C   UNL     1     -10.511 -10.839  19.892  0.00  0.00    +0.120 C 
BRANCH  14  16
ATOM     16  C   UNL     1     -10.802  -9.887  18.761  0.00  0.00    -0.033 A 
ATOM     17  C   UNL     1     -12.121  -9.623  18.394  0.00  0.00    +0.007 A 
ATOM     18  C   UNL     1      -9.752  -9.270  18.082  0.00  0.00    +0.007 A 
ATOM     20  C   UNL     1     -12.391  -8.741  17.348  0.00  0.00    +0.027 A 
ATOM     21  C   UNL     1     -10.022  -8.387  17.035  0.00  0.00    +0.027 A 
ATOM     22  C   UNL     1     -11.341  -8.123  16.668  0.00  0.00    +0.088 A 
BRANCH  22   1
ATOM      1  S   UNL     1     -11.678  -7.017  15.360  0.00  0.00    -0.006 S 
ATOM      3  O   UNL     1     -10.848  -5.830  15.519  0.00  0.00    -0.170 OA
ATOM      4  O   UNL     1     -11.633  -7.769  14.114  0.00  0.00    -0.170 OA
ATOM     26  C   UNL     1     -13.362  -6.511  15.631  0.00  0.00    +0.200 C 
ENDBRANCH  22   1
ENDBRANCH  14  16
ENDBRANCH   5  14
TORSDOF 6
ENDMDL
MODEL 8
REMARK VINA RESULT:      -6.2     26.339     29.194
REMARK  Name = 45783830
REMARK  9 active torsions:
REMARK  status: ('A' for Active; 'I' for Inactive)
REMARK    1  A    between atoms: S_1  and  C_22
REMARK    2  A    between atoms: S_1  and  C_26
REMARK    3  A    between atoms: N_5  and  C_14
REMARK    4  A    between atoms: N_9  and  C_28
REMARK    5  A    between atoms: N_9  and  C_29
REMARK    6  A    between atoms: N_9  and  C_30
REMARK    7  A    between atoms: C_10  and  C_15
REMARK    8  A    between atoms: C_14  and  C_16
REMARK    9  A    between atoms: C_19  and  C_23
REMARK                            x       y       z     vdW  Elec       q    Type
REMARK                         _______ _______ _______ _____ _____    ______ ____
ROOT
ATOM      5  N   UNL     1     -11.582   9.975  15.079  0.00  0.00    -0.287 NA
ATOM     10  C   UNL     1     -10.477  10.176  16.036  0.00  0.00    +0.146 C 
ATOM     11  C   UNL     1     -10.303  11.703  16.119  0.00  0.00    +0.030 C 
ATOM     12  C   UNL     1     -11.310  12.273  15.130  0.00  0.00    +0.017 C 
ATOM     13  C   UNL     1     -11.558  11.124  14.172  0.00  0.00    +0.085 C 
ENDROOT
BRANCH  10  15
ATOM      2  O   UNL     1      -9.844   9.787  18.364  0.00  0.00    -0.336 OA
ATOM      6  N   UNL     1     -11.752   8.784  17.757  0.00  0.00    -0.190 NA
ATOM      7  N   UNL     1     -10.306   9.109  19.500  0.00  0.00    -0.056 NA
ATOM     15  C   UNL     1     -10.753   9.544  17.384  0.00  0.00    +0.245 A 
ATOM     19  C   UNL     1     -11.434   8.542  19.062  0.00  0.00    +0.204 A 
BRANCH  19  23
ATOM      8  N   UNL     1     -14.487   7.075  20.596  0.00  0.00    -0.240 NA
ATOM     23  C   UNL     1     -12.266   7.731  19.903  0.00  0.00    +0.041 A 
ATOM     24  C   UNL     1     -11.710   6.839  20.814  0.00  0.00    +0.016 A 
ATOM     25  C   UNL     1     -13.647   7.810  19.833  0.00  0.00    +0.124 A 
ATOM     27  C   UNL     1     -12.542   6.066  21.618  0.00  0.00    +0.044 A 
ATOM     28  C   UNL     1     -13.911   6.221  21.470  0.00  0.00    +0.121 A 
BRANCH  28   9
ATOM      9  N   UNL     1     -14.745   5.425  22.295  0.00  0.00    -0.321 N 
ATOM     29  C   UNL     1     -16.133   5.220  21.943  0.00  0.00    +0.130 C 
ATOM     30  C   UNL     1     -14.216   4.820  23.496  0.00  0.00    +0.130 C 
ENDBRANCH  28   9
ENDBRANCH  19  23
ENDBRANCH  10  15
BRANCH   5  14
ATOM     14  C   UNL     1     -11.498   8.710  14.360  0.00  0.00    +0.120 C 
BRANCH  14  16
ATOM     16  C   UNL     1     -12.842   8.039  14.248  0.00  0.00    -0.033 A 
ATOM     17  C   UNL     1     -13.117   7.206  13.164  0.00  0.00    +0.007 A 
ATOM     18  C   UNL     1     -13.812   8.253  15.228  0.00  0.00    +0.007 A 
ATOM     20  C   UNL     1     -14.362   6.584  13.061  0.00  0.00    +0.027 A 
ATOM     21  C   UNL     1     -15.056   7.632  15.124  0.00  0.00    +0.027 A 
ATOM     22  C   UNL     1     -15.331   6.798  14.040  0.00  0.00    +0.088 A 
BRANCH  22   1
ATOM      1  S   UNL     1     -16.888   6.018  13.912  0.00  0.00    -0.006 S 
ATOM      3  O   UNL     1     -17.189   5.792  12.504  0.00  0.00    -0.170 OA
ATOM      4  O   UNL     1     -16.907   4.899  14.844  0.00  0.00    -0.170 OA
ATOM     26  C   UNL     1     -18.044   7.236  14.499  0.00  0.00    +0.200 C 
ENDBRANCH  22   1
ENDBRANCH  14  16
ENDBRANCH   5  14
TORSDOF 6
ENDMDL
MODEL 9
REMARK VINA RESULT:      -6.1      3.718      4.786
REMARK  Name = 45783830
REMARK  9 active torsions:
REMARK  status: ('A' for Active; 'I' for Inactive)
REMARK    1  A    between atoms: S_1  and  C_22
REMARK    2  A    between atoms: S_1  and  C_26
REMARK    3  A    between atoms: N_5  and  C_14
REMARK    4  A    between atoms: N_9  and  C_28
REMARK    5  A    between atoms: N_9  and  C_29
REMARK    6  A    between atoms: N_9  and  C_30
REMARK    7  A    between atoms: C_10  and  C_15
REMARK    8  A    between atoms: C_14  and  C_16
REMARK    9  A    between atoms: C_19  and  C_23
REMARK                            x       y       z     vdW  Elec       q    Type
REMARK                         _______ _______ _______ _____ _____    ______ ____
ROOT
ATOM      5  N   UNL     1      13.809   9.022  19.891  0.00  0.00    -0.287 NA
ATOM     10  C   UNL     1      13.846   7.581  20.207  0.00  0.00    +0.146 C 
ATOM     11  C   UNL     1      12.762   6.956  19.311  0.00  0.00    +0.030 C 
ATOM     12  C   UNL     1      12.129   8.128  18.574  0.00  0.00    +0.017 C 
ATOM     13  C   UNL     1      12.442   9.317  19.461  0.00  0.00    +0.085 C 
ENDROOT
BRANCH  10  15
ATOM      2  O   UNL     1      15.394   6.303  18.814  0.00  0.00    -0.336 OA
ATOM      6  N   UNL     1      16.268   6.987  20.760  0.00  0.00    -0.190 NA
ATOM      7  N   UNL     1      16.714   5.835  18.834  0.00  0.00    -0.056 NA
ATOM     15  C   UNL     1      15.213   6.971  19.983  0.00  0.00    +0.245 A 
ATOM     19  C   UNL     1      17.162   6.277  20.013  0.00  0.00    +0.204 A 
BRANCH  19  23
ATOM      8  N   UNL     1      20.537   4.741  20.298  0.00  0.00    -0.240 NA
ATOM     23  C   UNL     1      18.499   6.029  20.472  0.00  0.00    +0.041 A 
ATOM     24  C   UNL     1      19.057   6.790  21.493  0.00  0.00    +0.016 A 
ATOM     25  C   UNL     1      19.273   5.026  19.912  0.00  0.00    +0.124 A 
ATOM     27  C   UNL     1      20.355   6.527  21.918  0.00  0.00    +0.044 A 
ATOM     28  C   UNL     1      21.046   5.501  21.293  0.00  0.00    +0.121 A 
BRANCH  28   9
ATOM      9  N   UNL     1      22.367   5.246  21.737  0.00  0.00    -0.321 N 
ATOM     29  C   UNL     1      23.363   4.753  20.810  0.00  0.00    +0.130 C 
ATOM     30  C   UNL     1      22.727   5.469  23.119  0.00  0.00    +0.130 C 
ENDBRANCH  28   9
ENDBRANCH  19  23
ENDBRANCH  10  15
BRANCH   5  14
ATOM     14  C   UNL     1      14.227   9.866  21.003  0.00  0.00    +0.120 C 
BRANCH  14  16
ATOM     16  C   UNL     1      15.513  10.592  20.703  0.00  0.00    -0.033 A 
ATOM     17  C   UNL     1      16.668  10.291  21.424  0.00  0.00    +0.007 A 
ATOM     18  C   UNL     1      15.547  11.566  19.705  0.00  0.00    +0.007 A 
ATOM     20  C   UNL     1      17.858  10.962  21.146  0.00  0.00    +0.027 A 
ATOM     21  C   UNL     1      16.738  12.237  19.427  0.00  0.00    +0.027 A 
ATOM     22  C   UNL     1      17.893  11.936  20.148  0.00  0.00    +0.088 A 
BRANCH  22   1
ATOM      1  S   UNL     1      19.384  12.775  19.798  0.00  0.00    -0.006 S 
ATOM      3  O   UNL     1      19.988  13.207  21.052  0.00  0.00    -0.170 OA
ATOM      4  O   UNL     1      20.151  11.956  18.870  0.00  0.00    -0.170 OA
ATOM     26  C   UNL     1      18.874  14.244  18.936  0.00  0.00    +0.200 C 
ENDBRANCH  22   1
ENDBRANCH  14  16
ENDBRANCH   5  14
TORSDOF 6
ENDMDL
MODEL 10
REMARK VINA RESULT:      -6.0     15.245     18.066
REMARK  Name = 45783830
REMARK  9 active torsions:
REMARK  status: ('A' for Active; 'I' for Inactive)
REMARK    1  A    between atoms: S_1  and  C_22
REMARK    2  A    between atoms: S_1  and  C_26
REMARK    3  A    between atoms: N_5  and  C_14
REMARK    4  A    between atoms: N_9  and  C_28
REMARK    5  A    between atoms: N_9  and  C_29
REMARK    6  A    between atoms: N_9  and  C_30
REMARK    7  A    between atoms: C_10  and  C_15
REMARK    8  A    between atoms: C_14  and  C_16
REMARK    9  A    between atoms: C_19  and  C_23
REMARK                            x       y       z     vdW  Elec       q    Type
REMARK                         _______ _______ _______ _____ _____    ______ ____
ROOT
ATOM      5  N   UNL     1      10.391   7.642   6.349  0.00  0.00    -0.287 NA
ATOM     10  C   UNL     1       9.634   6.439   5.954  0.00  0.00    +0.146 C 
ATOM     11  C   UNL     1       8.251   6.966   5.532  0.00  0.00    +0.030 C 
ATOM     12  C   UNL     1       8.304   8.467   5.782  0.00  0.00    +0.017 C 
ATOM     13  C   UNL     1       9.404   8.617   6.814  0.00  0.00    +0.085 C 
ENDROOT
BRANCH  10  15
ATOM      2  O   UNL     1       9.970   4.346   4.737  0.00  0.00    -0.336 OA
ATOM      6  N   UNL     1      11.217   6.050   3.987  0.00  0.00    -0.190 NA
ATOM      7  N   UNL     1      10.725   3.838   3.671  0.00  0.00    -0.056 NA
ATOM     15  C   UNL     1      10.320   5.654   4.855  0.00  0.00    +0.245 A 
ATOM     19  C   UNL     1      11.435   4.901   3.283  0.00  0.00    +0.204 A 
BRANCH  19  23
ATOM      8  N   UNL     1      13.844   6.023   0.682  0.00  0.00    -0.240 NA
ATOM     23  C   UNL     1      12.367   4.850   2.194  0.00  0.00    +0.041 A 
ATOM     24  C   UNL     1      12.705   3.639   1.598  0.00  0.00    +0.016 A 
ATOM     25  C   UNL     1      12.960   6.002   1.705  0.00  0.00    +0.124 A 
ATOM     27  C   UNL     1      13.612   3.620   0.543  0.00  0.00    +0.044 A 
ATOM     28  C   UNL     1      14.148   4.829   0.128  0.00  0.00    +0.121 A 
BRANCH  28   9
ATOM      9  N   UNL     1      15.071   4.792  -0.947  0.00  0.00    -0.321 N 
ATOM     29  C   UNL     1      14.616   4.489  -2.287  0.00  0.00    +0.130 C 
ATOM     30  C   UNL     1      16.473   5.051  -0.711  0.00  0.00    +0.130 C 
ENDBRANCH  28   9
ENDBRANCH  19  23
ENDBRANCH  10  15
BRANCH   5  14
ATOM     14  C   UNL     1      11.413   7.376   7.353  0.00  0.00    +0.120 C 
BRANCH  14  16
ATOM     16  C   UNL     1      12.757   7.917   6.942  0.00  0.00    -0.033 A 
ATOM     17  C   UNL     1      12.970   9.294   6.893  0.00  0.00    +0.007 A 
ATOM     18  C   UNL     1      13.789   7.040   6.608  0.00  0.00    +0.007 A 
ATOM     20  C   UNL     1      14.214   9.795   6.513  0.00  0.00    +0.027 A 
ATOM     21  C   UNL     1      15.034   7.541   6.228  0.00  0.00    +0.027 A 
ATOM     22  C   UNL     1      15.247   8.918   6.179  0.00  0.00    +0.088 A 
BRANCH  22   1
ATOM      1  S   UNL     1      16.806   9.545   5.706  0.00  0.00    -0.006 S 
ATOM      3  O   UNL     1      16.869  10.960   6.046  0.00  0.00    -0.170 OA
ATOM      4  O   UNL     1      17.826   8.635   6.208  0.00  0.00    -0.170 OA
ATOM     26  C   UNL     1      16.805   9.438   3.930  0.00  0.00    +0.200 C 
ENDBRANCH  22   1
ENDBRANCH  14  16
ENDBRANCH   5  14
TORSDOF 6
ENDMDL
