MODEL 1
REMARK VINA RESULT:      -8.4      0.000      0.000
REMARK  Name = 38344319
REMARK  7 active torsions:
REMARK  status: ('A' for Active; 'I' for Inactive)
REMARK    1  A    between atoms: O_2  and  C_28
REMARK    2  A    between atoms: N_4  and  C_14
REMARK    3  A    between atoms: C_9  and  C_15
REMARK    4  A    between atoms: C_14  and  C_16
REMARK    5  A    between atoms: C_20  and  C_23
REMARK    6  A    between atoms: C_24  and  C_28
REMARK    7  A    between atoms: C_27  and  C_31
REMARK                            x       y       z     vdW  Elec       q    Type
REMARK                         _______ _______ _______ _____ _____    ______ ____
ROOT
ATOM      4  N   UNL     1      12.822   8.504  19.449  0.00  0.00    -0.281 NA
ATOM      5  N   UNL     1      10.701   9.134  16.421  0.00  0.00    -0.347 N 
ATOM      6  N   UNL     1      12.642   9.133  15.312  0.00  0.00    -0.240 NA
ATOM      9  C   UNL     1      13.916   7.831  18.668  0.00  0.00    +0.152 C 
ATOM     10  C   UNL     1      14.135   8.484  17.257  0.00  0.00    +0.086 C 
ATOM     11  C   UNL     1      11.506   8.441  18.749  0.00  0.00    +0.140 C 
ATOM     12  C   UNL     1      11.662   8.789  17.322  0.00  0.00    +0.053 A 
ATOM     13  C   UNL     1      12.838   8.788  16.619  0.00  0.00    +0.065 A 
ATOM     17  C   UNL     1      11.341   9.332  15.223  0.00  0.00    +0.197 A 
ATOM     32  H   UNL     1       9.708   9.224  16.594  0.00  0.00    +0.167 HD
ENDROOT
BRANCH   9  15
ATOM      1  O   UNL     1      15.638   8.952  20.010  0.00  0.00    -0.336 OA
ATOM      7  N   UNL     1      16.129   6.830  19.489  0.00  0.00    -0.190 NA
ATOM      8  N   UNL     1      16.888   8.688  20.585  0.00  0.00    -0.056 NA
ATOM     15  C   UNL     1      15.262   7.806  19.385  0.00  0.00    +0.245 A 
ATOM     20  C   UNL     1      17.108   7.418  20.233  0.00  0.00    +0.202 A 
BRANCH  20  23
ATOM     23  C   UNL     1      18.297   6.709  20.612  0.00  0.00    +0.023 A 
ATOM     25  C   UNL     1      19.022   7.111  21.733  0.00  0.00    +0.015 A 
ATOM     26  C   UNL     1      18.724   5.615  19.859  0.00  0.00    +0.012 A 
ATOM     27  C   UNL     1      20.176   6.420  22.102  0.00  0.00    -0.050 A 
ATOM     29  C   UNL     1      19.879   4.924  20.228  0.00  0.00    +0.001 A 
ATOM     30  C   UNL     1      20.605   5.327  21.349  0.00  0.00    +0.003 A 
ATOM     31  C   UNL     1      20.953   6.850  23.299  0.00  0.00    +0.044 C 
ENDBRANCH  20  23
ENDBRANCH   9  15
BRANCH   4  14
ATOM     14  C   UNL     1      12.654   7.926  20.790  0.00  0.00    +0.120 C 
BRANCH  14  16
ATOM     16  C   UNL     1      12.218   8.957  21.796  0.00  0.00    -0.033 A 
ATOM     18  C   UNL     1      13.061  10.022  22.112  0.00  0.00    +0.006 A 
ATOM     19  C   UNL     1      10.971   8.848  22.411  0.00  0.00    +0.006 A 
ATOM     21  C   UNL     1      12.659  10.979  23.044  0.00  0.00    +0.015 A 
ATOM     22  C   UNL     1      10.568   9.804  23.344  0.00  0.00    +0.015 A 
ATOM     24  C   UNL     1      11.412  10.869  23.659  0.00  0.00    +0.059 A 
BRANCH  24  28
ATOM      3  O   UNL     1      11.563  12.115  25.696  0.00  0.00    -0.245 OA
ATOM     28  C   UNL     1      10.990  11.867  24.631  0.00  0.00    +0.337 C 
BRANCH  28   2
ATOM      2  O   UNL     1       9.863  12.525  24.244  0.00  0.00    -0.477 OA
ATOM     33  H   UNL     1       9.385  12.910  25.010  0.00  0.00    +0.295 HD
ENDBRANCH  28   2
ENDBRANCH  24  28
ENDBRANCH  14  16
ENDBRANCH   4  14
TORSDOF 6
ENDMDL
MODEL 2
REMARK VINA RESULT:      -8.3      3.529      7.467
REMARK  Name = 38344319
REMARK  7 active torsions:
REMARK  status: ('A' for Active; 'I' for Inactive)
REMARK    1  A    between atoms: O_2  and  C_28
REMARK    2  A    between atoms: N_4  and  C_14
REMARK    3  A    between atoms: C_9  and  C_15
REMARK    4  A    between atoms: C_14  and  C_16
REMARK    5  A    between atoms: C_20  and  C_23
REMARK    6  A    between atoms: C_24  and  C_28
REMARK    7  A    between atoms: C_27  and  C_31
REMARK                            x       y       z     vdW  Elec       q    Type
REMARK                         _______ _______ _______ _____ _____    ______ ____
ROOT
ATOM      4  N   UNL     1      14.403   7.445  19.243  0.00  0.00    -0.281 NA
ATOM      5  N   UNL     1      11.864   6.554  21.855  0.00  0.00    -0.347 N 
ATOM      6  N   UNL     1      10.539   7.987  20.765  0.00  0.00    -0.240 NA
ATOM      9  C   UNL     1      13.368   7.787  18.208  0.00  0.00    +0.152 C 
ATOM     10  C   UNL     1      12.103   8.479  18.830  0.00  0.00    +0.086 C 
ATOM     11  C   UNL     1      13.880   6.508  20.279  0.00  0.00    +0.140 C 
ATOM     12  C   UNL     1      12.546   6.942  20.742  0.00  0.00    +0.053 A 
ATOM     13  C   UNL     1      11.712   7.811  20.088  0.00  0.00    +0.065 A 
ATOM     17  C   UNL     1      10.660   7.212  21.826  0.00  0.00    +0.197 A 
ATOM     32  H   UNL     1      12.178   5.905  22.566  0.00  0.00    +0.167 HD
ENDROOT
BRANCH   9  15
ATOM      1  O   UNL     1      13.833   8.171  15.829  0.00  0.00    -0.336 OA
ATOM      7  N   UNL     1      14.384   9.892  17.153  0.00  0.00    -0.190 NA
ATOM      8  N   UNL     1      14.355   9.160  14.986  0.00  0.00    -0.056 NA
ATOM     15  C   UNL     1      13.885   8.683  17.087  0.00  0.00    +0.245 A 
ATOM     20  C   UNL     1      14.657  10.142  15.840  0.00  0.00    +0.202 A 
BRANCH  20  23
ATOM     23  C   UNL     1      15.231  11.386  15.414  0.00  0.00    +0.023 A 
ATOM     25  C   UNL     1      16.435  11.394  14.710  0.00  0.00    +0.015 A 
ATOM     26  C   UNL     1      14.582  12.587  15.701  0.00  0.00    +0.012 A 
ATOM     27  C   UNL     1      16.992  12.603  14.295  0.00  0.00    -0.050 A 
ATOM     29  C   UNL     1      15.139  13.796  15.285  0.00  0.00    +0.001 A 
ATOM     30  C   UNL     1      16.344  13.805  14.582  0.00  0.00    +0.003 A 
ATOM     31  C   UNL     1      18.280  12.613  13.544  0.00  0.00    +0.044 C 
ENDBRANCH  20  23
ENDBRANCH   9  15
BRANCH   4  14
ATOM     14  C   UNL     1      15.608   6.846  18.652  0.00  0.00    +0.120 C 
BRANCH  14  16
ATOM     16  C   UNL     1      16.772   6.868  19.606  0.00  0.00    -0.033 A 
ATOM     18  C   UNL     1      16.849   7.856  20.588  0.00  0.00    +0.006 A 
ATOM     19  C   UNL     1      17.772   5.901  19.509  0.00  0.00    +0.006 A 
ATOM     21  C   UNL     1      17.927   7.877  21.473  0.00  0.00    +0.015 A 
ATOM     22  C   UNL     1      18.851   5.922  20.394  0.00  0.00    +0.015 A 
ATOM     24  C   UNL     1      18.927   6.910  21.375  0.00  0.00    +0.059 A 
BRANCH  24  28
ATOM      3  O   UNL     1      21.193   7.319  22.028  0.00  0.00    -0.245 OA
ATOM     28  C   UNL     1      20.052   6.931  22.299  0.00  0.00    +0.337 C 
BRANCH  28   2
ATOM      2  O   UNL     1      19.720   6.465  23.534  0.00  0.00    -0.477 OA
ATOM     33  H   UNL     1      19.024   5.774  23.488  0.00  0.00    +0.295 HD
ENDBRANCH  28   2
ENDBRANCH  24  28
ENDBRANCH  14  16
ENDBRANCH   4  14
TORSDOF 6
ENDMDL
MODEL 3
REMARK VINA RESULT:      -7.8      3.505      6.362
REMARK  Name = 38344319
REMARK  7 active torsions:
REMARK  status: ('A' for Active; 'I' for Inactive)
REMARK    1  A    between atoms: O_2  and  C_28
REMARK    2  A    between atoms: N_4  and  C_14
REMARK    3  A    between atoms: C_9  and  C_15
REMARK    4  A    between atoms: C_14  and  C_16
REMARK    5  A    between atoms: C_20  and  C_23
REMARK    6  A    between atoms: C_24  and  C_28
REMARK    7  A    between atoms: C_27  and  C_31
REMARK                            x       y       z     vdW  Elec       q    Type
REMARK                         _______ _______ _______ _____ _____    ______ ____
ROOT
ATOM      4  N   UNL     1      11.882  12.163  23.380  0.00  0.00    -0.281 NA
ATOM      5  N   UNL     1      11.034  14.304  26.341  0.00  0.00    -0.347 N 
ATOM      6  N   UNL     1      13.229  14.240  26.760  0.00  0.00    -0.240 NA
ATOM      9  C   UNL     1      13.282  12.699  23.266  0.00  0.00    +0.152 C 
ATOM     10  C   UNL     1      13.930  12.991  24.666  0.00  0.00    +0.086 C 
ATOM     11  C   UNL     1      10.967  13.114  24.076  0.00  0.00    +0.140 C 
ATOM     12  C   UNL     1      11.610  13.656  25.291  0.00  0.00    +0.053 A 
ATOM     13  C   UNL     1      12.952  13.636  25.566  0.00  0.00    +0.065 A 
ATOM     17  C   UNL     1      12.050  14.635  27.201  0.00  0.00    +0.197 A 
ATOM     32  H   UNL     1      10.050  14.507  26.466  0.00  0.00    +0.167 HD
ENDROOT
BRANCH   9  15
ATOM      1  O   UNL     1      14.837  12.333  21.404  0.00  0.00    -0.336 OA
ATOM      7  N   UNL     1      14.558  10.543  22.721  0.00  0.00    -0.190 NA
ATOM      8  N   UNL     1      15.647  11.323  20.867  0.00  0.00    -0.056 NA
ATOM     15  C   UNL     1      14.232  11.790  22.493  0.00  0.00    +0.245 A 
ATOM     20  C   UNL     1      15.427  10.301  21.699  0.00  0.00    +0.202 A 
BRANCH  20  23
ATOM     23  C   UNL     1      16.063   9.024  21.537  0.00  0.00    +0.023 A 
ATOM     25  C   UNL     1      17.453   8.942  21.470  0.00  0.00    +0.015 A 
ATOM     26  C   UNL     1      15.289   7.867  21.449  0.00  0.00    +0.012 A 
ATOM     27  C   UNL     1      18.071   7.701  21.314  0.00  0.00    -0.050 A 
ATOM     29  C   UNL     1      15.907   6.627  21.292  0.00  0.00    +0.001 A 
ATOM     30  C   UNL     1      17.299   6.543  21.225  0.00  0.00    +0.003 A 
ATOM     31  C   UNL     1      19.558   7.612  21.241  0.00  0.00    +0.044 C 
ENDBRANCH  20  23
ENDBRANCH   9  15
BRANCH   4  14
ATOM     14  C   UNL     1      11.297  11.842  22.071  0.00  0.00    +0.120 C 
BRANCH  14  16
ATOM     16  C   UNL     1      11.331  10.364  21.788  0.00  0.00    -0.033 A 
ATOM     18  C   UNL     1      11.766   9.903  20.546  0.00  0.00    +0.006 A 
ATOM     19  C   UNL     1      10.929   9.456  22.768  0.00  0.00    +0.006 A 
ATOM     21  C   UNL     1      11.798   8.533  20.282  0.00  0.00    +0.015 A 
ATOM     22  C   UNL     1      10.961   8.087  22.504  0.00  0.00    +0.015 A 
ATOM     24  C   UNL     1      11.396   7.626  21.262  0.00  0.00    +0.059 A 
BRANCH  24  28
ATOM      3  O   UNL     1      10.954   5.318  21.714  0.00  0.00    -0.245 OA
ATOM     28  C   UNL     1      11.430   6.197  20.989  0.00  0.00    +0.337 C 
BRANCH  28   2
ATOM      2  O   UNL     1      12.059   5.906  19.817  0.00  0.00    -0.477 OA
ATOM     33  H   UNL     1      11.536   6.199  19.040  0.00  0.00    +0.295 HD
ENDBRANCH  28   2
ENDBRANCH  24  28
ENDBRANCH  14  16
ENDBRANCH   4  14
TORSDOF 6
ENDMDL
MODEL 4
REMARK VINA RESULT:      -7.5      3.108      6.191
REMARK  Name = 38344319
REMARK  7 active torsions:
REMARK  status: ('A' for Active; 'I' for Inactive)
REMARK    1  A    between atoms: O_2  and  C_28
REMARK    2  A    between atoms: N_4  and  C_14
REMARK    3  A    between atoms: C_9  and  C_15
REMARK    4  A    between atoms: C_14  and  C_16
REMARK    5  A    between atoms: C_20  and  C_23
REMARK    6  A    between atoms: C_24  and  C_28
REMARK    7  A    between atoms: C_27  and  C_31
REMARK                            x       y       z     vdW  Elec       q    Type
REMARK                         _______ _______ _______ _____ _____    ______ ____
ROOT
ATOM      4  N   UNL     1      12.768  12.109  21.431  0.00  0.00    -0.281 NA
ATOM      5  N   UNL     1      10.466  13.110  24.217  0.00  0.00    -0.347 N 
ATOM      6  N   UNL     1      11.875  11.963  25.520  0.00  0.00    -0.240 NA
ATOM      9  C   UNL     1      13.969  11.996  22.327  0.00  0.00    +0.152 C 
ATOM     10  C   UNL     1      13.607  11.430  23.747  0.00  0.00    +0.086 C 
ATOM     11  C   UNL     1      11.727  13.017  21.992  0.00  0.00    +0.140 C 
ATOM     12  C   UNL     1      11.505  12.729  23.424  0.00  0.00    +0.053 A 
ATOM     13  C   UNL     1      12.356  12.036  24.244  0.00  0.00    +0.065 A 
ATOM     17  C   UNL     1      10.734  12.624  25.472  0.00  0.00    +0.197 A 
ATOM     32  H   UNL     1       9.655  13.649  23.942  0.00  0.00    +0.167 HD
ENDROOT
BRANCH   9  15
ATOM      1  O   UNL     1      16.245  11.779  21.435  0.00  0.00    -0.336 OA
ATOM      7  N   UNL     1      15.112   9.849  21.517  0.00  0.00    -0.190 NA
ATOM      8  N   UNL     1      17.110  10.798  20.935  0.00  0.00    -0.056 NA
ATOM     15  C   UNL     1      15.091  11.136  21.754  0.00  0.00    +0.245 A 
ATOM     20  C   UNL     1      16.370   9.688  21.015  0.00  0.00    +0.202 A 
BRANCH  20  23
ATOM     23  C   UNL     1      16.860   8.404  20.604  0.00  0.00    +0.023 A 
ATOM     25  C   UNL     1      18.103   7.956  21.050  0.00  0.00    +0.015 A 
ATOM     26  C   UNL     1      16.090   7.602  19.761  0.00  0.00    +0.012 A 
ATOM     27  C   UNL     1      18.578   6.707  20.652  0.00  0.00    -0.050 A 
ATOM     29  C   UNL     1      16.566   6.353  19.363  0.00  0.00    +0.001 A 
ATOM     30  C   UNL     1      17.810   5.905  19.808  0.00  0.00    +0.003 A 
ATOM     31  C   UNL     1      19.908   6.228  21.127  0.00  0.00    +0.044 C 
ENDBRANCH  20  23
ENDBRANCH   9  15
BRANCH   4  14
ATOM     14  C   UNL     1      13.117  12.589  20.087  0.00  0.00    +0.120 C 
BRANCH  14  16
ATOM     16  C   UNL     1      13.334  11.454  19.122  0.00  0.00    -0.033 A 
ATOM     18  C   UNL     1      12.555  10.301  19.218  0.00  0.00    +0.006 A 
ATOM     19  C   UNL     1      14.313  11.555  18.134  0.00  0.00    +0.006 A 
ATOM     21  C   UNL     1      12.755   9.248  18.325  0.00  0.00    +0.015 A 
ATOM     22  C   UNL     1      14.513  10.502  17.241  0.00  0.00    +0.015 A 
ATOM     24  C   UNL     1      13.734   9.349  17.337  0.00  0.00    +0.059 A 
BRANCH  24  28
ATOM      3  O   UNL     1      14.263   7.100  16.714  0.00  0.00    -0.245 OA
ATOM     28  C   UNL     1      13.943   8.252  16.404  0.00  0.00    +0.337 C 
BRANCH  28   2
ATOM      2  O   UNL     1      13.746   8.625  15.109  0.00  0.00    -0.477 OA
ATOM     33  H   UNL     1      13.087   8.053  14.661  0.00  0.00    +0.295 HD
ENDBRANCH  28   2
ENDBRANCH  24  28
ENDBRANCH  14  16
ENDBRANCH   4  14
TORSDOF 6
ENDMDL
MODEL 5
REMARK VINA RESULT:      -7.3     14.093     19.860
REMARK  Name = 38344319
REMARK  7 active torsions:
REMARK  status: ('A' for Active; 'I' for Inactive)
REMARK    1  A    between atoms: O_2  and  C_28
REMARK    2  A    between atoms: N_4  and  C_14
REMARK    3  A    between atoms: C_9  and  C_15
REMARK    4  A    between atoms: C_14  and  C_16
REMARK    5  A    between atoms: C_20  and  C_23
REMARK    6  A    between atoms: C_24  and  C_28
REMARK    7  A    between atoms: C_27  and  C_31
REMARK                            x       y       z     vdW  Elec       q    Type
REMARK                         _______ _______ _______ _____ _____    ______ ____
ROOT
ATOM      4  N   UNL     1       9.895   5.709   4.746  0.00  0.00    -0.281 NA
ATOM      5  N   UNL     1      10.152   3.952   8.050  0.00  0.00    -0.347 N 
ATOM      6  N   UNL     1       9.311   5.845   8.892  0.00  0.00    -0.240 NA
ATOM      9  C   UNL     1       8.758   6.587   5.187  0.00  0.00    +0.152 C 
ATOM     10  C   UNL     1       8.886   7.028   6.689  0.00  0.00    +0.086 C 
ATOM     11  C   UNL     1       9.982   4.453   5.545  0.00  0.00    +0.140 C 
ATOM     12  C   UNL     1       9.843   4.746   6.987  0.00  0.00    +0.053 A 
ATOM     13  C   UNL     1       9.324   5.893   7.527  0.00  0.00    +0.065 A 
ATOM     17  C   UNL     1       9.814   4.659   9.176  0.00  0.00    +0.197 A 
ATOM     32  H   UNL     1      10.549   3.022   8.020  0.00  0.00    +0.167 HD
ENDROOT
BRANCH   9  15
ATOM      1  O   UNL     1       9.601   8.750   4.389  0.00  0.00    -0.336 OA
ATOM      7  N   UNL     1       7.590   8.200   3.571  0.00  0.00    -0.190 NA
ATOM      8  N   UNL     1       9.219   9.805   3.550  0.00  0.00    -0.056 NA
ATOM     15  C   UNL     1       8.586   7.847   4.344  0.00  0.00    +0.245 A 
ATOM     20  C   UNL     1       8.023   9.406   3.107  0.00  0.00    +0.202 A 
BRANCH  20  23
ATOM     23  C   UNL     1       7.239  10.190   2.196  0.00  0.00    +0.023 A 
ATOM     25  C   UNL     1       6.155   9.612   1.534  0.00  0.00    +0.015 A 
ATOM     26  C   UNL     1       7.559  11.529   1.975  0.00  0.00    +0.012 A 
ATOM     27  C   UNL     1       5.392  10.374   0.650  0.00  0.00    -0.050 A 
ATOM     29  C   UNL     1       6.795  12.291   1.091  0.00  0.00    +0.001 A 
ATOM     30  C   UNL     1       5.712  11.714   0.428  0.00  0.00    +0.003 A 
ATOM     31  C   UNL     1       4.234   9.758  -0.060  0.00  0.00    +0.044 C 
ENDBRANCH  20  23
ENDBRANCH   9  15
BRANCH   4  14
ATOM     14  C   UNL     1       9.800   5.341   3.327  0.00  0.00    +0.120 C 
BRANCH  14  16
ATOM     16  C   UNL     1      11.132   4.923   2.764  0.00  0.00    -0.033 A 
ATOM     18  C   UNL     1      11.299   3.636   2.254  0.00  0.00    +0.006 A 
ATOM     19  C   UNL     1      12.198   5.822   2.752  0.00  0.00    +0.006 A 
ATOM     21  C   UNL     1      12.533   3.247   1.732  0.00  0.00    +0.015 A 
ATOM     22  C   UNL     1      13.432   5.434   2.231  0.00  0.00    +0.015 A 
ATOM     24  C   UNL     1      13.599   4.146   1.721  0.00  0.00    +0.059 A 
BRANCH  24  28
ATOM      3  O   UNL     1      15.255   3.914   0.009  0.00  0.00    -0.245 OA
ATOM     28  C   UNL     1      14.887   3.742   1.176  0.00  0.00    +0.337 C 
BRANCH  28   2
ATOM      2  O   UNL     1      15.677   3.136   2.103  0.00  0.00    -0.477 OA
ATOM     33  H   UNL     1      16.284   2.483   1.693  0.00  0.00    +0.295 HD
ENDBRANCH  28   2
ENDBRANCH  24  28
ENDBRANCH  14  16
ENDBRANCH   4  14
TORSDOF 6
ENDMDL
MODEL 6
REMARK VINA RESULT:      -7.2      3.835      7.104
REMARK  Name = 38344319
REMARK  7 active torsions:
REMARK  status: ('A' for Active; 'I' for Inactive)
REMARK    1  A    between atoms: O_2  and  C_28
REMARK    2  A    between atoms: N_4  and  C_14
REMARK    3  A    between atoms: C_9  and  C_15
REMARK    4  A    between atoms: C_14  and  C_16
REMARK    5  A    between atoms: C_20  and  C_23
REMARK    6  A    between atoms: C_24  and  C_28
REMARK    7  A    between atoms: C_27  and  C_31
REMARK                            x       y       z     vdW  Elec       q    Type
REMARK                         _______ _______ _______ _____ _____    ______ ____
ROOT
ATOM      4  N   UNL     1      14.315   7.825  20.329  0.00  0.00    -0.281 NA
ATOM      5  N   UNL     1      10.970   6.348  21.164  0.00  0.00    -0.347 N 
ATOM      6  N   UNL     1      10.763   8.105  22.531  0.00  0.00    -0.240 NA
ATOM      9  C   UNL     1      13.887   9.230  20.645  0.00  0.00    +0.152 C 
ATOM     10  C   UNL     1      12.899   9.297  21.865  0.00  0.00    +0.086 C 
ATOM     11  C   UNL     1      13.161   6.946  19.983  0.00  0.00    +0.140 C 
ATOM     12  C   UNL     1      12.056   7.140  20.944  0.00  0.00    +0.053 A 
ATOM     13  C   UNL     1      11.902   8.211  21.785  0.00  0.00    +0.065 A 
ATOM     17  C   UNL     1      10.220   6.971  22.130  0.00  0.00    +0.197 A 
ATOM     32  H   UNL     1      10.752   5.473  20.704  0.00  0.00    +0.167 HD
ENDROOT
BRANCH   9  15
ATOM      1  O   UNL     1      15.473  10.247  22.218  0.00  0.00    -0.336 OA
ATOM      7  N   UNL     1      15.701  10.960  20.107  0.00  0.00    -0.190 NA
ATOM      8  N   UNL     1      16.524  11.172  22.230  0.00  0.00    -0.056 NA
ATOM     15  C   UNL     1      15.045  10.181  20.930  0.00  0.00    +0.245 A 
ATOM     20  C   UNL     1      16.598  11.548  20.950  0.00  0.00    +0.202 A 
BRANCH  20  23
ATOM     23  C   UNL     1      17.557  12.505  20.481  0.00  0.00    +0.023 A 
ATOM     25  C   UNL     1      18.420  12.174  19.436  0.00  0.00    +0.015 A 
ATOM     26  C   UNL     1      17.626  13.768  21.069  0.00  0.00    +0.012 A 
ATOM     27  C   UNL     1      19.352  13.106  18.980  0.00  0.00    -0.050 A 
ATOM     29  C   UNL     1      18.558  14.700  20.612  0.00  0.00    +0.001 A 
ATOM     30  C   UNL     1      19.422  14.369  19.568  0.00  0.00    +0.003 A 
ATOM     31  C   UNL     1      20.276  12.752  17.864  0.00  0.00    +0.044 C 
ENDBRANCH  20  23
ENDBRANCH   9  15
BRANCH   4  14
ATOM     14  C   UNL     1      15.279   7.769  19.221  0.00  0.00    +0.120 C 
BRANCH  14  16
ATOM     16  C   UNL     1      16.588   7.158  19.645  0.00  0.00    -0.033 A 
ATOM     18  C   UNL     1      17.346   7.762  20.648  0.00  0.00    +0.006 A 
ATOM     19  C   UNL     1      17.041   5.988  19.037  0.00  0.00    +0.006 A 
ATOM     21  C   UNL     1      18.558   7.196  21.043  0.00  0.00    +0.015 A 
ATOM     22  C   UNL     1      18.254   5.422  19.431  0.00  0.00    +0.015 A 
ATOM     24  C   UNL     1      19.012   6.026  20.434  0.00  0.00    +0.059 A 
BRANCH  24  28
ATOM      3  O   UNL     1      20.768   5.511  21.975  0.00  0.00    -0.245 OA
ATOM     28  C   UNL     1      20.276   5.435  20.845  0.00  0.00    +0.337 C 
BRANCH  28   2
ATOM      2  O   UNL     1      20.891   4.764  19.832  0.00  0.00    -0.477 OA
ATOM     33  H   UNL     1      21.595   4.168  20.164  0.00  0.00    +0.295 HD
ENDBRANCH  28   2
ENDBRANCH  24  28
ENDBRANCH  14  16
ENDBRANCH   4  14
TORSDOF 6
ENDMDL
MODEL 7
REMARK VINA RESULT:      -7.2     13.820     17.366
REMARK  Name = 38344319
REMARK  7 active torsions:
REMARK  status: ('A' for Active; 'I' for Inactive)
REMARK    1  A    between atoms: O_2  and  C_28
REMARK    2  A    between atoms: N_4  and  C_14
REMARK    3  A    between atoms: C_9  and  C_15
REMARK    4  A    between atoms: C_14  and  C_16
REMARK    5  A    between atoms: C_20  and  C_23
REMARK    6  A    between atoms: C_24  and  C_28
REMARK    7  A    between atoms: C_27  and  C_31
REMARK                            x       y       z     vdW  Elec       q    Type
REMARK                         _______ _______ _______ _____ _____    ______ ____
ROOT
ATOM      4  N   UNL     1      12.074   6.577   4.787  0.00  0.00    -0.281 NA
ATOM      5  N   UNL     1       9.530   4.924   6.992  0.00  0.00    -0.347 N 
ATOM      6  N   UNL     1      10.842   5.604   8.670  0.00  0.00    -0.240 NA
ATOM      9  C   UNL     1      12.495   7.564   5.840  0.00  0.00    +0.152 C 
ATOM     10  C   UNL     1      12.490   6.942   7.282  0.00  0.00    +0.086 C 
ATOM     11  C   UNL     1      10.694   6.060   5.015  0.00  0.00    +0.140 C 
ATOM     12  C   UNL     1      10.508   5.690   6.434  0.00  0.00    +0.053 A 
ATOM     13  C   UNL     1      11.292   6.100   7.480  0.00  0.00    +0.065 A 
ATOM     17  C   UNL     1       9.774   4.901   8.342  0.00  0.00    +0.197 A 
ATOM     32  H   UNL     1       8.768   4.463   6.511  0.00  0.00    +0.167 HD
ENDROOT
BRANCH   9  15
ATOM      1  O   UNL     1      13.910   9.517   5.388  0.00  0.00    -0.336 OA
ATOM      7  N   UNL     1      15.044   7.594   5.566  0.00  0.00    -0.190 NA
ATOM      8  N   UNL     1      15.259   9.841   5.195  0.00  0.00    -0.056 NA
ATOM     15  C   UNL     1      13.871   8.176   5.600  0.00  0.00    +0.245 A 
ATOM     20  C   UNL     1      15.863   8.655   5.314  0.00  0.00    +0.202 A 
BRANCH  20  23
ATOM     23  C   UNL     1      17.284   8.497   5.190  0.00  0.00    +0.023 A 
ATOM     25  C   UNL     1      18.107   8.698   6.298  0.00  0.00    +0.015 A 
ATOM     26  C   UNL     1      17.840   8.141   3.962  0.00  0.00    +0.012 A 
ATOM     27  C   UNL     1      19.488   8.544   6.178  0.00  0.00    -0.050 A 
ATOM     29  C   UNL     1      19.221   7.986   3.842  0.00  0.00    +0.001 A 
ATOM     30  C   UNL     1      20.046   8.188   4.949  0.00  0.00    +0.003 A 
ATOM     31  C   UNL     1      20.369   8.760   7.360  0.00  0.00    +0.044 C 
ENDBRANCH  20  23
ENDBRANCH   9  15
BRANCH   4  14
ATOM     14  C   UNL     1      12.129   7.146   3.433  0.00  0.00    +0.120 C 
BRANCH  14  16
ATOM     16  C   UNL     1      13.041   6.359   2.530  0.00  0.00    -0.033 A 
ATOM     18  C   UNL     1      12.655   5.096   2.082  0.00  0.00    +0.006 A 
ATOM     19  C   UNL     1      14.268   6.894   2.139  0.00  0.00    +0.006 A 
ATOM     21  C   UNL     1      13.499   4.365   1.244  0.00  0.00    +0.015 A 
ATOM     22  C   UNL     1      15.112   6.163   1.302  0.00  0.00    +0.015 A 
ATOM     24  C   UNL     1      14.727   4.900   0.855  0.00  0.00    +0.059 A 
BRANCH  24  28
ATOM      3  O   UNL     1      15.558   4.133  -1.254  0.00  0.00    -0.245 OA
ATOM     28  C   UNL     1      15.607   4.140  -0.020  0.00  0.00    +0.337 C 
BRANCH  28   2
ATOM      2  O   UNL     1      16.523   3.408   0.672  0.00  0.00    -0.477 OA
ATOM     33  H   UNL     1      16.109   2.901   1.402  0.00  0.00    +0.295 HD
ENDBRANCH  28   2
ENDBRANCH  24  28
ENDBRANCH  14  16
ENDBRANCH   4  14
TORSDOF 6
ENDMDL
MODEL 8
REMARK VINA RESULT:      -7.2      3.557      7.553
REMARK  Name = 38344319
REMARK  7 active torsions:
REMARK  status: ('A' for Active; 'I' for Inactive)
REMARK    1  A    between atoms: O_2  and  C_28
REMARK    2  A    between atoms: N_4  and  C_14
REMARK    3  A    between atoms: C_9  and  C_15
REMARK    4  A    between atoms: C_14  and  C_16
REMARK    5  A    between atoms: C_20  and  C_23
REMARK    6  A    between atoms: C_24  and  C_28
REMARK    7  A    between atoms: C_27  and  C_31
REMARK                            x       y       z     vdW  Elec       q    Type
REMARK                         _______ _______ _______ _____ _____    ______ ____
ROOT
ATOM      4  N   UNL     1      14.152   8.817  20.031  0.00  0.00    -0.281 NA
ATOM      5  N   UNL     1      11.563   8.759  22.744  0.00  0.00    -0.347 N 
ATOM      6  N   UNL     1      11.178  10.877  22.143  0.00  0.00    -0.240 NA
ATOM      9  C   UNL     1      13.438   9.872  19.234  0.00  0.00    +0.152 C 
ATOM     10  C   UNL     1      12.738  10.943  20.145  0.00  0.00    +0.086 C 
ATOM     11  C   UNL     1      13.227   8.065  20.928  0.00  0.00    +0.140 C 
ATOM     12  C   UNL     1      12.330   8.995  21.644  0.00  0.00    +0.053 A 
ATOM     13  C   UNL     1      12.072  10.293  21.291  0.00  0.00    +0.065 A 
ATOM     17  C   UNL     1      10.887   9.924  23.008  0.00  0.00    +0.197 A 
ATOM     32  H   UNL     1      11.496   7.894  23.267  0.00  0.00    +0.167 HD
ENDROOT
BRANCH   9  15
ATOM      1  O   UNL     1      15.263  11.449  18.781  0.00  0.00    -0.336 OA
ATOM      7  N   UNL     1      14.345  10.567  16.938  0.00  0.00    -0.190 NA
ATOM      8  N   UNL     1      15.952  12.007  17.696  0.00  0.00    -0.056 NA
ATOM     15  C   UNL     1      14.334  10.613  18.247  0.00  0.00    +0.245 A 
ATOM     20  C   UNL     1      15.352  11.438  16.646  0.00  0.00    +0.202 A 
BRANCH  20  23
ATOM     23  C   UNL     1      15.739  11.717  15.293  0.00  0.00    +0.023 A 
ATOM     25  C   UNL     1      17.075  11.974  14.988  0.00  0.00    +0.015 A 
ATOM     26  C   UNL     1      14.778  11.728  14.282  0.00  0.00    +0.012 A 
ATOM     27  C   UNL     1      17.452  12.244  13.673  0.00  0.00    -0.050 A 
ATOM     29  C   UNL     1      15.154  11.998  12.966  0.00  0.00    +0.001 A 
ATOM     30  C   UNL     1      16.491  12.256  12.661  0.00  0.00    +0.003 A 
ATOM     31  C   UNL     1      18.880  12.521  13.346  0.00  0.00    +0.044 C 
ENDBRANCH  20  23
ENDBRANCH   9  15
BRANCH   4  14
ATOM     14  C   UNL     1      14.849   7.846  19.177  0.00  0.00    +0.120 C 
BRANCH  14  16
ATOM     16  C   UNL     1      16.184   7.450  19.750  0.00  0.00    -0.033 A 
ATOM     18  C   UNL     1      16.788   8.247  20.722  0.00  0.00    +0.006 A 
ATOM     19  C   UNL     1      16.814   6.286  19.311  0.00  0.00    +0.006 A 
ATOM     21  C   UNL     1      18.024   7.881  21.255  0.00  0.00    +0.015 A 
ATOM     22  C   UNL     1      18.051   5.920  19.843  0.00  0.00    +0.015 A 
ATOM     24  C   UNL     1      18.655   6.718  20.814  0.00  0.00    +0.059 A 
BRANCH  24  28
ATOM      3  O   UNL     1      20.975   6.140  20.718  0.00  0.00    -0.245 OA
ATOM     28  C   UNL     1      19.944   6.334  21.370  0.00  0.00    +0.337 C 
BRANCH  28   2
ATOM      2  O   UNL     1      19.910   6.204  22.724  0.00  0.00    -0.477 OA
ATOM     33  H   UNL     1      19.016   6.387  23.085  0.00  0.00    +0.295 HD
ENDBRANCH  28   2
ENDBRANCH  24  28
ENDBRANCH  14  16
ENDBRANCH   4  14
TORSDOF 6
ENDMDL
MODEL 9
REMARK VINA RESULT:      -7.2     27.695     30.123
REMARK  Name = 38344319
REMARK  7 active torsions:
REMARK  status: ('A' for Active; 'I' for Inactive)
REMARK    1  A    between atoms: O_2  and  C_28
REMARK    2  A    between atoms: N_4  and  C_14
REMARK    3  A    between atoms: C_9  and  C_15
REMARK    4  A    between atoms: C_14  and  C_16
REMARK    5  A    between atoms: C_20  and  C_23
REMARK    6  A    between atoms: C_24  and  C_28
REMARK    7  A    between atoms: C_27  and  C_31
REMARK                            x       y       z     vdW  Elec       q    Type
REMARK                         _______ _______ _______ _____ _____    ______ ____
ROOT
ATOM      4  N   UNL     1      -5.896 -10.827  15.824  0.00  0.00    -0.281 NA
ATOM      5  N   UNL     1      -2.496 -10.301  14.330  0.00  0.00    -0.347 N 
ATOM      6  N   UNL     1      -1.748 -10.715  16.395  0.00  0.00    -0.240 NA
ATOM      9  C   UNL     1      -5.391 -11.740  16.905  0.00  0.00    +0.152 C 
ATOM     10  C   UNL     1      -3.979 -11.311  17.443  0.00  0.00    +0.086 C 
ATOM     11  C   UNL     1      -4.988 -10.795  14.640  0.00  0.00    +0.140 C 
ATOM     12  C   UNL     1      -3.582 -10.658  15.071  0.00  0.00    +0.053 A 
ATOM     13  C   UNL     1      -3.097 -10.913  16.327  0.00  0.00    +0.065 A 
ATOM     17  C   UNL     1      -1.414 -10.349  15.172  0.00  0.00    +0.197 A 
ATOM     32  H   UNL     1      -2.484 -10.052  13.348  0.00  0.00    +0.167 HD
ENDROOT
BRANCH   9  15
ATOM      1  O   UNL     1      -6.051 -11.071  19.172  0.00  0.00    -0.336 OA
ATOM      7  N   UNL     1      -7.380 -12.626  18.259  0.00  0.00    -0.190 NA
ATOM      8  N   UNL     1      -7.033 -11.356  20.129  0.00  0.00    -0.056 NA
ATOM     15  C   UNL     1      -6.329 -11.861  18.102  0.00  0.00    +0.245 A 
ATOM     20  C   UNL     1      -7.778 -12.281  19.517  0.00  0.00    +0.202 A 
BRANCH  20  23
ATOM     23  C   UNL     1      -8.928 -12.878  20.134  0.00  0.00    +0.023 A 
ATOM     25  C   UNL     1     -10.144 -12.196  20.149  0.00  0.00    +0.015 A 
ATOM     26  C   UNL     1      -8.828 -14.142  20.716  0.00  0.00    +0.012 A 
ATOM     27  C   UNL     1     -11.262 -12.777  20.748  0.00  0.00    -0.050 A 
ATOM     29  C   UNL     1      -9.946 -14.722  21.315  0.00  0.00    +0.001 A 
ATOM     30  C   UNL     1     -11.163 -14.040  21.331  0.00  0.00    +0.003 A 
ATOM     31  C   UNL     1     -12.562 -12.048  20.767  0.00  0.00    +0.044 C 
ENDBRANCH  20  23
ENDBRANCH   9  15
BRANCH   4  14
ATOM     14  C   UNL     1      -7.239 -11.199  15.358  0.00  0.00    +0.120 C 
BRANCH  14  16
ATOM     16  C   UNL     1      -8.222 -10.070  15.515  0.00  0.00    -0.033 A 
ATOM     18  C   UNL     1      -9.103  -9.765  14.478  0.00  0.00    +0.006 A 
ATOM     19  C   UNL     1      -8.252  -9.330  16.697  0.00  0.00    +0.006 A 
ATOM     21  C   UNL     1     -10.015  -8.719  14.622  0.00  0.00    +0.015 A 
ATOM     22  C   UNL     1      -9.163  -8.284  16.841  0.00  0.00    +0.015 A 
ATOM     24  C   UNL     1     -10.044  -7.979  15.804  0.00  0.00    +0.059 A 
BRANCH  24  28
ATOM      3  O   UNL     1     -12.177  -7.011  16.296  0.00  0.00    -0.245 OA
ATOM     28  C   UNL     1     -10.995  -6.888  15.957  0.00  0.00    +0.337 C 
BRANCH  28   2
ATOM      2  O   UNL     1     -10.444  -5.674  15.681  0.00  0.00    -0.477 OA
ATOM     33  H   UNL     1     -10.865  -5.252  14.901  0.00  0.00    +0.295 HD
ENDBRANCH  28   2
ENDBRANCH  24  28
ENDBRANCH  14  16
ENDBRANCH   4  14
TORSDOF 6
ENDMDL
MODEL 10
REMARK VINA RESULT:      -7.1     14.279     17.215
REMARK  Name = 38344319
REMARK  7 active torsions:
REMARK  status: ('A' for Active; 'I' for Inactive)
REMARK    1  A    between atoms: O_2  and  C_28
REMARK    2  A    between atoms: N_4  and  C_14
REMARK    3  A    between atoms: C_9  and  C_15
REMARK    4  A    between atoms: C_14  and  C_16
REMARK    5  A    between atoms: C_20  and  C_23
REMARK    6  A    between atoms: C_24  and  C_28
REMARK    7  A    between atoms: C_27  and  C_31
REMARK                            x       y       z     vdW  Elec       q    Type
REMARK                         _______ _______ _______ _____ _____    ______ ____
ROOT
ATOM      4  N   UNL     1       8.687   9.678   4.575  0.00  0.00    -0.281 NA
ATOM      5  N   UNL     1       7.924  13.342   4.335  0.00  0.00    -0.347 N 
ATOM      6  N   UNL     1       9.999  13.513   3.520  0.00  0.00    -0.240 NA
ATOM      9  C   UNL     1       9.684   9.708   3.451  0.00  0.00    +0.152 C 
ATOM     10  C   UNL     1      10.526  11.034   3.430  0.00  0.00    +0.086 C 
ATOM     11  C   UNL     1       7.704  10.796   4.490  0.00  0.00    +0.140 C 
ATOM     12  C   UNL     1       8.394  12.071   4.202  0.00  0.00    +0.053 A 
ATOM     13  C   UNL     1       9.661  12.202   3.696  0.00  0.00    +0.065 A 
ATOM     17  C   UNL     1       8.927  14.177   3.912  0.00  0.00    +0.197 A 
ATOM     32  H   UNL     1       7.012  13.621   4.674  0.00  0.00    +0.167 HD
ENDROOT
BRANCH   9  15
ATOM      1  O   UNL     1      11.573   8.513   4.463  0.00  0.00    -0.336 OA
ATOM      7  N   UNL     1      10.756   7.531   2.623  0.00  0.00    -0.190 NA
ATOM      8  N   UNL     1      12.346   7.363   4.259  0.00  0.00    -0.056 NA
ATOM     15  C   UNL     1      10.660   8.536   3.457  0.00  0.00    +0.245 A 
ATOM     20  C   UNL     1      11.804   6.839   3.156  0.00  0.00    +0.202 A 
BRANCH  20  23
ATOM     23  C   UNL     1      12.284   5.624   2.563  0.00  0.00    +0.023 A 
ATOM     25  C   UNL     1      13.516   5.606   1.911  0.00  0.00    +0.015 A 
ATOM     26  C   UNL     1      11.518   4.461   2.641  0.00  0.00    +0.012 A 
ATOM     27  C   UNL     1      13.983   4.424   1.335  0.00  0.00    -0.050 A 
ATOM     29  C   UNL     1      11.985   3.279   2.066  0.00  0.00    +0.001 A 
ATOM     30  C   UNL     1      13.218   3.260   1.412  0.00  0.00    +0.003 A 
ATOM     31  C   UNL     1      15.300   4.403   0.637  0.00  0.00    +0.044 C 
ENDBRANCH  20  23
ENDBRANCH   9  15
BRANCH   4  14
ATOM     14  C   UNL     1       7.937   8.415   4.623  0.00  0.00    +0.120 C 
BRANCH  14  16
ATOM     16  C   UNL     1       8.466   7.488   5.685  0.00  0.00    -0.033 A 
ATOM     18  C   UNL     1       8.865   6.195   5.345  0.00  0.00    +0.006 A 
ATOM     19  C   UNL     1       8.558   7.922   7.007  0.00  0.00    +0.006 A 
ATOM     21  C   UNL     1       9.356   5.335   6.328  0.00  0.00    +0.015 A 
ATOM     22  C   UNL     1       9.048   7.062   7.990  0.00  0.00    +0.015 A 
ATOM     24  C   UNL     1       9.447   5.769   7.650  0.00  0.00    +0.059 A 
BRANCH  24  28
ATOM      3  O   UNL     1      10.115   5.164   9.867  0.00  0.00    -0.245 OA
ATOM     28  C   UNL     1       9.960   4.874   8.677  0.00  0.00    +0.337 C 
BRANCH  28   2
ATOM      2  O   UNL     1      10.265   3.641   8.187  0.00  0.00    -0.477 OA
ATOM     33  H   UNL     1       9.574   2.980   8.406  0.00  0.00    +0.295 HD
ENDBRANCH  28   2
ENDBRANCH  24  28
ENDBRANCH  14  16
ENDBRANCH   4  14
TORSDOF 6
ENDMDL
