REMARK  Name = 9424632
REMARK  4 active torsions:
REMARK  status: ('A' for Active; 'I' for Inactive)
REMARK    1  A    between atoms: N_5  and  C_15
REMARK    2  A    between atoms: N_8  and  C_22
REMARK    3  A    between atoms: N_9  and  C_29
REMARK    4  A    between atoms: C_26  and  C_27
REMARK                            x       y       z     vdW  Elec       q    Type
REMARK                         _______ _______ _______ _____ _____    ______ ____
ROOT
ATOM      2  O   UNL     1       2.326   3.755  -2.657  0.00  0.00    -0.268 OA
ATOM      5  N   UNL     1       2.639   0.389   1.052  0.00  0.00    -0.298 NA
ATOM      6  N   UNL     1       1.624   2.942  -0.576  0.00  0.00    -0.310 N 
ATOM     10  C   UNL     1       3.204   2.801   1.438  0.00  0.00    +0.024 C 
ATOM     11  C   UNL     1       0.883   2.057   1.658  0.00  0.00    +0.052 C 
ATOM     12  C   UNL     1       1.935   2.990   2.253  0.00  0.00    +0.017 C 
ATOM     13  C   UNL     1       3.668   1.331   1.507  0.00  0.00    +0.090 C 
ATOM     14  C   UNL     1       1.371   0.594   1.768  0.00  0.00    +0.094 C 
ATOM     16  C   UNL     1       2.933   3.270   0.006  0.00  0.00    +0.130 C 
ATOM     17  C   UNL     1       0.581   2.409   0.203  0.00  0.00    +0.047 A 
ATOM     22  C   UNL     1      -0.633   2.202  -0.356  0.00  0.00    +0.055 A 
ATOM     23  C   UNL     1       1.455   3.273  -1.932  0.00  0.00    +0.252 A 
ATOM     24  C   UNL     1      -0.859   2.527  -1.744  0.00  0.00    +0.030 A 
ATOM     25  C   UNL     1       0.111   3.026  -2.511  0.00  0.00    +0.072 A 
ENDROOT
BRANCH   5  15
ATOM      3  O   UNL     1       5.270  -4.489  -1.580  0.00  0.00    -0.276 OA
ATOM      7  N   UNL     1       3.855  -3.516  -0.015  0.00  0.00    -0.302 N 
ATOM     15  C   UNL     1       3.096  -0.992   1.184  0.00  0.00    +0.060 C 
ATOM     18  C   UNL     1       4.443  -1.171   0.472  0.00  0.00    +0.038 C 
ATOM     19  C   UNL     1       2.050  -1.952   0.602  0.00  0.00    +0.038 C 
ATOM     20  C   UNL     1       4.894  -2.631   0.516  0.00  0.00    +0.109 C 
ATOM     21  C   UNL     1       2.548  -3.396   0.643  0.00  0.00    +0.109 C 
ATOM     26  C   UNL     1       4.163  -4.408  -1.042  0.00  0.00    +0.212 C 
ATOM     27  C   UNL     1       3.051  -5.317  -1.503  0.00  0.00    +0.109 C 
ENDBRANCH   5  15
BRANCH  22   8
ATOM      4  O   UNL     1      -2.696   0.605  -1.489  0.00  0.00    -0.252 OA
ATOM      8  N   UNL     1      -1.697   1.663   0.316  0.00  0.00    -0.268 N 
ATOM      9  N   UNL     1      -3.631   0.486   0.660  0.00  0.00    -0.269 N 
ATOM     28  C   UNL     1      -2.686   0.883  -0.292  0.00  0.00    +0.308 C 
ATOM     35  H   UNL     1      -1.658   1.624   1.328  0.00  0.00    +0.156 HD
ATOM     36  H   UNL     1      -3.480   0.805   1.613  0.00  0.00    +0.156 HD
BRANCH   9  29
ATOM      1 CL   UNL     1      -8.446  -2.832  -0.174  0.00  0.00    -0.084 Cl
ATOM     29  C   UNL     1      -4.785  -0.308   0.460  0.00  0.00    +0.035 A 
ATOM     30  C   UNL     1      -5.605  -0.596   1.539  0.00  0.00    +0.025 A 
ATOM     31  C   UNL     1      -5.070  -0.782  -0.810  0.00  0.00    +0.025 A 
ATOM     32  C   UNL     1      -6.742  -1.380   1.342  0.00  0.00    +0.022 A 
ATOM     33  C   UNL     1      -6.207  -1.566  -1.007  0.00  0.00    +0.022 A 
ATOM     34  C   UNL     1      -7.043  -1.865   0.069  0.00  0.00    +0.041 A 
ENDBRANCH   9  29
ENDBRANCH  22   8
TORSDOF 3
