MODEL 1
REMARK VINA RESULT:      -7.7      0.000      0.000
REMARK  Name = 25389825
REMARK  5 active torsions:
REMARK  status: ('A' for Active; 'I' for Inactive)
REMARK    1  A    between atoms: O_2  and  C_20
REMARK    2  A    between atoms: O_2  and  C_33
REMARK    3  A    between atoms: N_5  and  C_8
REMARK    4  A    between atoms: C_9  and  C_16
REMARK    5  A    between atoms: C_12  and  C_20
REMARK                            x       y       z     vdW  Elec       q    Type
REMARK                         _______ _______ _______ _____ _____    ______ ____
ROOT
ATOM      4  N   UNL     1      14.741   8.964  19.390  0.00  0.00    -0.274 NA
ATOM      6  N   UNL     1      17.937   8.686  21.344  0.00  0.00    -0.356 N 
ATOM      7  C   UNL     1      15.604   9.370  20.541  0.00  0.00    +0.106 C 
ATOM      8  C   UNL     1      14.780  11.743  20.356  0.00  0.00    +0.060 C 
ATOM      9  C   UNL     1      13.520   9.802  19.286  0.00  0.00    +0.090 C 
ATOM     10  C   UNL     1      16.016  10.846  20.416  0.00  0.00    +0.044 C 
ATOM     11  C   UNL     1      13.884  11.304  19.199  0.00  0.00    +0.042 C 
ATOM     12  C   UNL     1      14.495   7.495  19.340  0.00  0.00    +0.172 C 
ATOM     13  C   UNL     1      16.798   8.467  20.620  0.00  0.00    +0.038 A 
ATOM     14  C   UNL     1      15.804   6.680  19.181  0.00  0.00    +0.068 C 
ATOM     15  C   UNL     1      16.901   7.229  20.023  0.00  0.00    -0.016 A 
ATOM     17  C   UNL     1      18.168   6.685  20.367  0.00  0.00    +0.003 A 
ATOM     21  C   UNL     1      18.798   7.619  21.195  0.00  0.00    +0.047 A 
ATOM     26  C   UNL     1      18.844   5.487  20.061  0.00  0.00    +0.010 A 
ATOM     27  C   UNL     1      20.074   7.412  21.731  0.00  0.00    +0.026 A 
ATOM     30  C   UNL     1      20.122   5.269  20.588  0.00  0.00    +0.001 A 
ATOM     31  C   UNL     1      20.725   6.217  21.410  0.00  0.00    +0.002 A 
ATOM     34  H   UNL     1      18.130   9.504  21.905  0.00  0.00    +0.166 HD
ENDROOT
BRANCH   8   5
ATOM      1  O   UNL     1      16.862  15.184  19.157  0.00  0.00    -0.377 OA
ATOM      5  N   UNL     1      15.181  13.140  20.204  0.00  0.00    -0.295 NA
ATOM     18  C   UNL     1      15.100  13.556  18.797  0.00  0.00    +0.113 C 
ATOM     19  C   UNL     1      16.543  13.351  20.713  0.00  0.00    +0.113 C 
ATOM     22  C   UNL     1      15.534  15.013  18.662  0.00  0.00    +0.175 C 
ATOM     23  C   UNL     1      16.942  14.812  20.533  0.00  0.00    +0.175 C 
ENDBRANCH   8   5
BRANCH   9  16
ATOM     16  C   UNL     1      12.635   9.471  18.088  0.00  0.00    -0.030 A 
ATOM     24  C   UNL     1      11.386   8.883  18.286  0.00  0.00    +0.005 A 
ATOM     25  C   UNL     1      13.075   9.757  16.795  0.00  0.00    +0.005 A 
ATOM     28  C   UNL     1      10.576   8.580  17.190  0.00  0.00    +0.000 A 
ATOM     29  C   UNL     1      12.266   9.454  15.700  0.00  0.00    +0.000 A 
ATOM     32  C   UNL     1      11.017   8.866  15.898  0.00  0.00    +0.000 A 
ENDBRANCH   9  16
BRANCH  12  20
ATOM      3  O   UNL     1      14.103   7.226  21.704  0.00  0.00    -0.249 OA
ATOM     20  C   UNL     1      13.728   7.050  20.553  0.00  0.00    +0.325 C 
BRANCH  20   2
ATOM      2  O   UNL     1      12.576   6.433  20.162  0.00  0.00    -0.467 OA
ATOM     33  C   UNL     1      11.542   6.380  21.150  0.00  0.00    +0.280 C 
ENDBRANCH  20   2
ENDBRANCH  12  20
TORSDOF 4
ENDMDL
MODEL 2
REMARK VINA RESULT:      -7.6      3.265      6.433
REMARK  Name = 25389825
REMARK  5 active torsions:
REMARK  status: ('A' for Active; 'I' for Inactive)
REMARK    1  A    between atoms: O_2  and  C_20
REMARK    2  A    between atoms: O_2  and  C_33
REMARK    3  A    between atoms: N_5  and  C_8
REMARK    4  A    between atoms: C_9  and  C_16
REMARK    5  A    between atoms: C_12  and  C_20
REMARK                            x       y       z     vdW  Elec       q    Type
REMARK                         _______ _______ _______ _____ _____    ______ ____
ROOT
ATOM      4  N   UNL     1      13.710  10.009  20.412  0.00  0.00    -0.274 NA
ATOM      6  N   UNL     1      11.361  12.802  21.300  0.00  0.00    -0.356 N 
ATOM      7  C   UNL     1      12.667  11.007  20.024  0.00  0.00    +0.106 C 
ATOM      8  C   UNL     1      13.783  11.348  17.793  0.00  0.00    +0.060 C 
ATOM      9  C   UNL     1      14.269   9.302  19.232  0.00  0.00    +0.090 C 
ATOM     10  C   UNL     1      13.243  12.041  19.042  0.00  0.00    +0.044 C 
ATOM     11  C   UNL     1      14.825  10.306  18.194  0.00  0.00    +0.042 C 
ATOM     12  C   UNL     1      13.276   9.120  21.525  0.00  0.00    +0.172 C 
ATOM     13  C   UNL     1      12.112  11.661  21.255  0.00  0.00    +0.038 A 
ATOM     14  C   UNL     1      12.956   9.906  22.822  0.00  0.00    +0.068 C 
ATOM     15  C   UNL     1      12.218  11.165  22.536  0.00  0.00    -0.016 A 
ATOM     17  C   UNL     1      11.533  12.057  23.405  0.00  0.00    +0.003 A 
ATOM     21  C   UNL     1      11.006  13.077  22.604  0.00  0.00    +0.047 A 
ATOM     26  C   UNL     1      11.304  12.101  24.794  0.00  0.00    +0.010 A 
ATOM     27  C   UNL     1      10.261  14.138  23.129  0.00  0.00    +0.026 A 
ATOM     30  C   UNL     1      10.562  13.159  25.332  0.00  0.00    +0.001 A 
ATOM     31  C   UNL     1      10.049  14.160  24.511  0.00  0.00    +0.002 A 
ATOM     34  H   UNL     1      11.102  13.368  20.505  0.00  0.00    +0.166 HD
ENDROOT
BRANCH   8   5
ATOM      1  O   UNL     1      16.270  13.169  14.943  0.00  0.00    -0.377 OA
ATOM      5  N   UNL     1      14.358  12.335  16.881  0.00  0.00    -0.295 NA
ATOM     18  C   UNL     1      14.306  11.855  15.493  0.00  0.00    +0.113 C 
ATOM     19  C   UNL     1      15.745  12.644  17.253  0.00  0.00    +0.113 C 
ATOM     22  C   UNL     1      14.922  12.895  14.560  0.00  0.00    +0.175 C 
ATOM     23  C   UNL     1      16.327  13.666  16.281  0.00  0.00    +0.175 C 
ENDBRANCH   8   5
BRANCH   9  16
ATOM     16  C   UNL     1      15.385   8.316  19.567  0.00  0.00    -0.030 A 
ATOM     24  C   UNL     1      16.413   8.693  20.431  0.00  0.00    +0.005 A 
ATOM     25  C   UNL     1      15.377   7.038  19.009  0.00  0.00    +0.005 A 
ATOM     28  C   UNL     1      17.432   7.791  20.738  0.00  0.00    +0.000 A 
ATOM     29  C   UNL     1      16.396   6.136  19.314  0.00  0.00    +0.000 A 
ATOM     32  C   UNL     1      17.424   6.513  20.179  0.00  0.00    +0.000 A 
ENDBRANCH   9  16
BRANCH  12  20
ATOM      3  O   UNL     1      11.036   8.742  20.715  0.00  0.00    -0.249 OA
ATOM     20  C   UNL     1      12.102   8.283  21.101  0.00  0.00    +0.325 C 
BRANCH  20   2
ATOM      2  O   UNL     1      12.419   6.961  21.217  0.00  0.00    -0.467 OA
ATOM     33  C   UNL     1      11.321   6.087  21.494  0.00  0.00    +0.280 C 
ENDBRANCH  20   2
ENDBRANCH  12  20
TORSDOF 4
ENDMDL
MODEL 3
REMARK VINA RESULT:      -7.3      4.821     10.277
REMARK  Name = 25389825
REMARK  5 active torsions:
REMARK  status: ('A' for Active; 'I' for Inactive)
REMARK    1  A    between atoms: O_2  and  C_20
REMARK    2  A    between atoms: O_2  and  C_33
REMARK    3  A    between atoms: N_5  and  C_8
REMARK    4  A    between atoms: C_9  and  C_16
REMARK    5  A    between atoms: C_12  and  C_20
REMARK                            x       y       z     vdW  Elec       q    Type
REMARK                         _______ _______ _______ _____ _____    ______ ____
ROOT
ATOM      4  N   UNL     1      21.556   5.213  22.686  0.00  0.00    -0.274 NA
ATOM      6  N   UNL     1      18.698   7.559  22.022  0.00  0.00    -0.356 N 
ATOM      7  C   UNL     1      20.909   6.553  22.833  0.00  0.00    +0.106 C 
ATOM      8  C   UNL     1      21.821   6.768  25.170  0.00  0.00    +0.060 C 
ATOM      9  C   UNL     1      22.789   5.098  23.506  0.00  0.00    +0.090 C 
ATOM     10  C   UNL     1      20.564   6.831  24.304  0.00  0.00    +0.044 C 
ATOM     11  C   UNL     1      22.498   5.410  24.993  0.00  0.00    +0.042 C 
ATOM     12  C   UNL     1      21.711   4.797  21.265  0.00  0.00    +0.172 C 
ATOM     13  C   UNL     1      19.695   6.626  21.955  0.00  0.00    +0.038 A 
ATOM     14  C   UNL     1      20.352   4.680  20.529  0.00  0.00    +0.068 C 
ATOM     15  C   UNL     1      19.432   5.793  20.889  0.00  0.00    -0.016 A 
ATOM     17  C   UNL     1      18.208   6.212  20.302  0.00  0.00    +0.003 A 
ATOM     21  C   UNL     1      17.768   7.321  21.033  0.00  0.00    +0.047 A 
ATOM     26  C   UNL     1      17.428   5.763  19.218  0.00  0.00    +0.010 A 
ATOM     27  C   UNL     1      16.583   8.001  20.730  0.00  0.00    +0.026 A 
ATOM     30  C   UNL     1      16.240   6.433  18.906  0.00  0.00    +0.001 A 
ATOM     31  C   UNL     1      15.826   7.535  19.651  0.00  0.00    +0.002 A 
ATOM     34  H   UNL     1      18.641   8.312  22.693  0.00  0.00    +0.166 HD
ENDROOT
BRANCH   8   5
ATOM      1  O   UNL     1      19.736   6.788  28.813  0.00  0.00    -0.377 OA
ATOM      5  N   UNL     1      21.478   7.001  26.571  0.00  0.00    -0.295 NA
ATOM     18  C   UNL     1      21.290   5.728  27.281  0.00  0.00    +0.113 C 
ATOM     19  C   UNL     1      20.264   7.821  26.683  0.00  0.00    +0.113 C 
ATOM     22  C   UNL     1      20.921   5.995  28.738  0.00  0.00    +0.175 C 
ATOM     23  C   UNL     1      19.920   8.040  28.153  0.00  0.00    +0.175 C 
ENDBRANCH   8   5
BRANCH   9  16
ATOM     16  C   UNL     1      23.454   3.726  23.442  0.00  0.00    -0.030 A 
ATOM     24  C   UNL     1      24.769   3.609  22.991  0.00  0.00    +0.005 A 
ATOM     25  C   UNL     1      22.749   2.590  23.837  0.00  0.00    +0.005 A 
ATOM     28  C   UNL     1      25.378   2.355  22.934  0.00  0.00    +0.000 A 
ATOM     29  C   UNL     1      23.357   1.336  23.779  0.00  0.00    +0.000 A 
ATOM     32  C   UNL     1      24.672   1.219  23.328  0.00  0.00    +0.000 A 
ENDBRANCH   9  16
BRANCH  12  20
ATOM      3  O   UNL     1      22.371   6.905  20.297  0.00  0.00    -0.249 OA
ATOM     20  C   UNL     1      22.634   5.735  20.540  0.00  0.00    +0.325 C 
BRANCH  20   2
ATOM      2  O   UNL     1      23.783   5.079  20.209  0.00  0.00    -0.467 OA
ATOM     33  C   UNL     1      24.975   5.871  20.239  0.00  0.00    +0.280 C 
ENDBRANCH  20   2
ENDBRANCH  12  20
TORSDOF 4
ENDMDL
MODEL 4
REMARK VINA RESULT:      -6.7     24.808     28.430
REMARK  Name = 25389825
REMARK  5 active torsions:
REMARK  status: ('A' for Active; 'I' for Inactive)
REMARK    1  A    between atoms: O_2  and  C_20
REMARK    2  A    between atoms: O_2  and  C_33
REMARK    3  A    between atoms: N_5  and  C_8
REMARK    4  A    between atoms: C_9  and  C_16
REMARK    5  A    between atoms: C_12  and  C_20
REMARK                            x       y       z     vdW  Elec       q    Type
REMARK                         _______ _______ _______ _____ _____    ______ ____
ROOT
ATOM      4  N   UNL     1     -12.227   9.875  17.744  0.00  0.00    -0.274 NA
ATOM      6  N   UNL     1     -11.178  12.285  15.061  0.00  0.00    -0.356 N 
ATOM      7  C   UNL     1     -12.557  10.751  16.578  0.00  0.00    +0.106 C 
ATOM      8  C   UNL     1     -14.266   9.085  15.775  0.00  0.00    +0.060 C 
ATOM      9  C   UNL     1     -13.388   9.052  18.168  0.00  0.00    +0.090 C 
ATOM     10  C   UNL     1     -13.039   9.909  15.386  0.00  0.00    +0.044 C 
ATOM     11  C   UNL     1     -13.937   8.216  16.987  0.00  0.00    +0.042 C 
ATOM     12  C   UNL     1     -11.548  10.609  18.847  0.00  0.00    +0.172 C 
ATOM     13  C   UNL     1     -11.362  11.584  16.220  0.00  0.00    +0.038 A 
ATOM     14  C   UNL     1     -10.198  11.229  18.404  0.00  0.00    +0.068 C 
ATOM     15  C   UNL     1     -10.286  11.829  17.045  0.00  0.00    -0.016 A 
ATOM     17  C   UNL     1      -9.392  12.687  16.349  0.00  0.00    +0.003 A 
ATOM     21  C   UNL     1      -9.975  12.957  15.107  0.00  0.00    +0.047 A 
ATOM     26  C   UNL     1      -8.143  13.266  16.652  0.00  0.00    +0.010 A 
ATOM     27  C   UNL     1      -9.367  13.779  14.151  0.00  0.00    +0.026 A 
ATOM     30  C   UNL     1      -7.524  14.089  15.704  0.00  0.00    +0.001 A 
ATOM     31  C   UNL     1      -8.128  14.340  14.474  0.00  0.00    +0.002 A 
ATOM     34  H   UNL     1     -11.820  12.312  14.281  0.00  0.00    +0.166 HD
ENDROOT
BRANCH   8   5
ATOM      1  O   UNL     1     -14.934   5.778  13.277  0.00  0.00    -0.377 OA
ATOM      5  N   UNL     1     -14.698   8.263  14.646  0.00  0.00    -0.295 NA
ATOM     18  C   UNL     1     -15.647   7.231  15.085  0.00  0.00    +0.113 C 
ATOM     19  C   UNL     1     -13.545   7.637  13.985  0.00  0.00    +0.113 C 
ATOM     22  C   UNL     1     -16.075   6.379  13.893  0.00  0.00    +0.175 C 
ATOM     23  C   UNL     1     -14.021   6.776  12.819  0.00  0.00    +0.175 C 
ENDBRANCH   8   5
BRANCH   9  16
ATOM     16  C   UNL     1     -13.088   8.092  19.315  0.00  0.00    -0.030 A 
ATOM     24  C   UNL     1     -14.071   7.809  20.263  0.00  0.00    +0.005 A 
ATOM     25  C   UNL     1     -11.830   7.496  19.415  0.00  0.00    +0.005 A 
ATOM     28  C   UNL     1     -13.796   6.931  21.312  0.00  0.00    +0.000 A 
ATOM     29  C   UNL     1     -11.555   6.619  20.464  0.00  0.00    +0.000 A 
ATOM     32  C   UNL     1     -12.538   6.336  21.411  0.00  0.00    +0.000 A 
ENDBRANCH   9  16
BRANCH  12  20
ATOM      3  O   UNL     1     -12.650  12.754  18.906  0.00  0.00    -0.249 OA
ATOM     20  C   UNL     1     -12.459  11.659  19.418  0.00  0.00    +0.325 C 
BRANCH  20   2
ATOM      2  O   UNL     1     -13.020  11.197  20.572  0.00  0.00    -0.467 OA
ATOM     33  C   UNL     1     -12.095  10.778  21.580  0.00  0.00    +0.280 C 
ENDBRANCH  20   2
ENDBRANCH  12  20
TORSDOF 4
ENDMDL
MODEL 5
REMARK VINA RESULT:      -6.6     28.159     30.907
REMARK  Name = 25389825
REMARK  5 active torsions:
REMARK  status: ('A' for Active; 'I' for Inactive)
REMARK    1  A    between atoms: O_2  and  C_20
REMARK    2  A    between atoms: O_2  and  C_33
REMARK    3  A    between atoms: N_5  and  C_8
REMARK    4  A    between atoms: C_9  and  C_16
REMARK    5  A    between atoms: C_12  and  C_20
REMARK                            x       y       z     vdW  Elec       q    Type
REMARK                         _______ _______ _______ _____ _____    ______ ____
ROOT
ATOM      4  N   UNL     1      -7.306 -11.707  17.165  0.00  0.00    -0.274 NA
ATOM      6  N   UNL     1      -4.706 -10.166  14.934  0.00  0.00    -0.356 N 
ATOM      7  C   UNL     1      -6.550 -10.513  16.677  0.00  0.00    +0.106 C 
ATOM      8  C   UNL     1      -8.610  -9.083  16.902  0.00  0.00    +0.060 C 
ATOM      9  C   UNL     1      -8.407 -11.330  18.087  0.00  0.00    +0.090 C 
ATOM     10  C   UNL     1      -7.490  -9.530  15.963  0.00  0.00    +0.044 C 
ATOM     11  C   UNL     1      -9.360 -10.306  17.425  0.00  0.00    +0.042 C 
ATOM     12  C   UNL     1      -6.416 -12.792  17.666  0.00  0.00    +0.172 C 
ATOM     13  C   UNL     1      -5.430 -10.957  15.783  0.00  0.00    +0.038 A 
ATOM     14  C   UNL     1      -5.461 -13.330  16.570  0.00  0.00    +0.068 C 
ATOM     15  C   UNL     1      -4.907 -12.231  15.733  0.00  0.00    -0.016 A 
ATOM     17  C   UNL     1      -3.844 -12.228  14.791  0.00  0.00    +0.003 A 
ATOM     21  C   UNL     1      -3.739 -10.921  14.303  0.00  0.00    +0.047 A 
ATOM     26  C   UNL     1      -2.954 -13.205  14.304  0.00  0.00    +0.010 A 
ATOM     27  C   UNL     1      -2.786 -10.546  13.350  0.00  0.00    +0.026 A 
ATOM     30  C   UNL     1      -1.997 -12.844  13.348  0.00  0.00    +0.001 A 
ATOM     31  C   UNL     1      -1.916 -11.535  12.880  0.00  0.00    +0.002 A 
ATOM     34  H   UNL     1      -4.851  -9.178  14.783  0.00  0.00    +0.166 HD
ENDROOT
BRANCH   8   5
ATOM      1  O   UNL     1     -12.117  -7.260  15.489  0.00  0.00    -0.377 OA
ATOM      5  N   UNL     1      -9.517  -8.174  16.205  0.00  0.00    -0.295 NA
ATOM     18  C   UNL     1     -10.368  -7.452  17.161  0.00  0.00    +0.113 C 
ATOM     19  C   UNL     1     -10.352  -8.906  15.242  0.00  0.00    +0.113 C 
ATOM     22  C   UNL     1     -11.316  -6.519  16.410  0.00  0.00    +0.175 C 
ATOM     23  C   UNL     1     -11.298  -7.939  14.537  0.00  0.00    +0.175 C 
ENDBRANCH   8   5
BRANCH   9  16
ATOM     16  C   UNL     1      -9.251 -12.507  18.565  0.00  0.00    -0.030 A 
ATOM     24  C   UNL     1      -9.290 -12.832  19.921  0.00  0.00    +0.005 A 
ATOM     25  C   UNL     1      -9.986 -13.257  17.647  0.00  0.00    +0.005 A 
ATOM     28  C   UNL     1     -10.063 -13.908  20.358  0.00  0.00    +0.000 A 
ATOM     29  C   UNL     1     -10.758 -14.333  18.084  0.00  0.00    +0.000 A 
ATOM     32  C   UNL     1     -10.797 -14.658  19.439  0.00  0.00    +0.000 A 
ENDBRANCH   9  16
BRANCH  12  20
ATOM      3  O   UNL     1      -6.069 -11.517  19.684  0.00  0.00    -0.249 OA
ATOM     20  C   UNL     1      -5.645 -12.325  18.868  0.00  0.00    +0.325 C 
BRANCH  20   2
ATOM      2  O   UNL     1      -4.426 -12.937  18.894  0.00  0.00    -0.467 OA
ATOM     33  C   UNL     1      -3.359 -12.160  19.447  0.00  0.00    +0.280 C 
ENDBRANCH  20   2
ENDBRANCH  12  20
TORSDOF 4
ENDMDL
MODEL 6
REMARK VINA RESULT:      -6.6     14.303     18.382
REMARK  Name = 25389825
REMARK  5 active torsions:
REMARK  status: ('A' for Active; 'I' for Inactive)
REMARK    1  A    between atoms: O_2  and  C_20
REMARK    2  A    between atoms: O_2  and  C_33
REMARK    3  A    between atoms: N_5  and  C_8
REMARK    4  A    between atoms: C_9  and  C_16
REMARK    5  A    between atoms: C_12  and  C_20
REMARK                            x       y       z     vdW  Elec       q    Type
REMARK                         _______ _______ _______ _____ _____    ______ ____
ROOT
ATOM      4  N   UNL     1       9.718   6.597   4.066  0.00  0.00    -0.274 NA
ATOM      6  N   UNL     1       9.685   7.113   0.345  0.00  0.00    -0.356 N 
ATOM      7  C   UNL     1       9.646   7.500   2.876  0.00  0.00    +0.106 C 
ATOM      8  C   UNL     1       8.024   9.002   4.081  0.00  0.00    +0.060 C 
ATOM      9  C   UNL     1       9.481   7.329   5.336  0.00  0.00    +0.090 C 
ATOM     10  C   UNL     1       8.279   8.198   2.808  0.00  0.00    +0.044 C 
ATOM     11  C   UNL     1       8.131   8.085   5.297  0.00  0.00    +0.042 C 
ATOM     12  C   UNL     1      10.929   5.730   4.063  0.00  0.00    +0.172 C 
ATOM     13  C   UNL     1       9.931   6.715   1.630  0.00  0.00    +0.038 A 
ATOM     14  C   UNL     1      10.984   4.791   2.830  0.00  0.00    +0.068 C 
ATOM     15  C   UNL     1      10.556   5.488   1.587  0.00  0.00    -0.016 A 
ATOM     17  C   UNL     1      10.666   5.104   0.223  0.00  0.00    +0.003 A 
ATOM     21  C   UNL     1      10.111   6.140  -0.535  0.00  0.00    +0.047 A 
ATOM     26  C   UNL     1      11.186   3.979  -0.447  0.00  0.00    +0.010 A 
ATOM     27  C   UNL     1      10.050   6.104  -1.932  0.00  0.00    +0.026 A 
ATOM     30  C   UNL     1      11.130   3.929  -1.844  0.00  0.00    +0.001 A 
ATOM     31  C   UNL     1      10.571   4.976  -2.573  0.00  0.00    +0.002 A 
ATOM     34  H   UNL     1       9.255   7.985   0.071  0.00  0.00    +0.166 HD
ENDROOT
BRANCH   8   5
ATOM      1  O   UNL     1       4.944  11.717   3.208  0.00  0.00    -0.377 OA
ATOM      5  N   UNL     1       6.708   9.636   4.021  0.00  0.00    -0.295 NA
ATOM     18  C   UNL     1       6.250   9.756   2.630  0.00  0.00    +0.113 C 
ATOM     19  C   UNL     1       6.737  10.961   4.656  0.00  0.00    +0.113 C 
ATOM     22  C   UNL     1       4.881  10.431   2.591  0.00  0.00    +0.175 C 
ATOM     23  C   UNL     1       5.358  11.606   4.571  0.00  0.00    +0.175 C 
ENDBRANCH   8   5
BRANCH   9  16
ATOM     16  C   UNL     1       9.481   6.442   6.577  0.00  0.00    -0.030 A 
ATOM     24  C   UNL     1       9.798   5.089   6.467  0.00  0.00    +0.005 A 
ATOM     25  C   UNL     1       9.165   6.986   7.822  0.00  0.00    +0.005 A 
ATOM     28  C   UNL     1       9.799   4.278   7.603  0.00  0.00    +0.000 A 
ATOM     29  C   UNL     1       9.165   6.176   8.958  0.00  0.00    +0.000 A 
ATOM     32  C   UNL     1       9.482   4.822   8.848  0.00  0.00    +0.000 A 
ENDBRANCH   9  16
BRANCH  12  20
ATOM      3  O   UNL     1      12.404   7.356   5.062  0.00  0.00    -0.249 OA
ATOM     20  C   UNL     1      12.174   6.566   4.156  0.00  0.00    +0.325 C 
BRANCH  20   2
ATOM      2  O   UNL     1      12.981   6.302   3.088  0.00  0.00    -0.467 OA
ATOM     33  C   UNL     1      13.657   7.435   2.533  0.00  0.00    +0.280 C 
ENDBRANCH  20   2
ENDBRANCH  12  20
TORSDOF 4
ENDMDL
MODEL 7
REMARK VINA RESULT:      -6.5     13.415     16.498
REMARK  Name = 25389825
REMARK  5 active torsions:
REMARK  status: ('A' for Active; 'I' for Inactive)
REMARK    1  A    between atoms: O_2  and  C_20
REMARK    2  A    between atoms: O_2  and  C_33
REMARK    3  A    between atoms: N_5  and  C_8
REMARK    4  A    between atoms: C_9  and  C_16
REMARK    5  A    between atoms: C_12  and  C_20
REMARK                            x       y       z     vdW  Elec       q    Type
REMARK                         _______ _______ _______ _____ _____    ______ ____
ROOT
ATOM      4  N   UNL     1      13.001   7.452   5.011  0.00  0.00    -0.274 NA
ATOM      6  N   UNL     1      16.339   7.736   3.312  0.00  0.00    -0.356 N 
ATOM      7  C   UNL     1      13.824   7.585   3.770  0.00  0.00    +0.106 C 
ATOM      8  C   UNL     1      12.215   6.114   2.511  0.00  0.00    +0.060 C 
ATOM      9  C   UNL     1      11.564   7.237   4.705  0.00  0.00    +0.090 C 
ATOM     10  C   UNL     1      13.679   6.337   2.886  0.00  0.00    +0.044 C 
ATOM     11  C   UNL     1      11.370   6.012   3.780  0.00  0.00    +0.042 C 
ATOM     12  C   UNL     1      13.273   8.527   6.005  0.00  0.00    +0.172 C 
ATOM     13  C   UNL     1      15.256   7.838   4.140  0.00  0.00    +0.038 A 
ATOM     14  C   UNL     1      14.746   8.530   6.488  0.00  0.00    +0.068 C 
ATOM     15  C   UNL     1      15.694   8.287   5.367  0.00  0.00    -0.016 A 
ATOM     17  C   UNL     1      17.106   8.431   5.298  0.00  0.00    +0.003 A 
ATOM     21  C   UNL     1      17.486   8.077   3.999  0.00  0.00    +0.047 A 
ATOM     26  C   UNL     1      18.104   8.831   6.209  0.00  0.00    +0.010 A 
ATOM     27  C   UNL     1      18.817   8.105   3.569  0.00  0.00    +0.026 A 
ATOM     30  C   UNL     1      19.439   8.860   5.792  0.00  0.00    +0.001 A 
ATOM     31  C   UNL     1      19.788   8.503   4.492  0.00  0.00    +0.002 A 
ATOM     34  H   UNL     1      16.315   7.451   2.344  0.00  0.00    +0.166 HD
ENDROOT
BRANCH   8   5
ATOM      1  O   UNL     1      12.824   3.243  -0.489  0.00  0.00    -0.377 OA
ATOM      5  N   UNL     1      12.082   4.908   1.698  0.00  0.00    -0.295 NA
ATOM     18  C   UNL     1      13.327   4.128   1.714  0.00  0.00    +0.113 C 
ATOM     19  C   UNL     1      11.719   5.247   0.315  0.00  0.00    +0.113 C 
ATOM     22  C   UNL     1      13.169   2.880   0.849  0.00  0.00    +0.175 C 
ATOM     23  C   UNL     1      11.598   3.974  -0.516  0.00  0.00    +0.175 C 
ENDBRANCH   8   5
BRANCH   9  16
ATOM     16  C   UNL     1      10.687   7.031   5.937  0.00  0.00    -0.030 A 
ATOM     24  C   UNL     1       9.459   7.685   6.036  0.00  0.00    +0.005 A 
ATOM     25  C   UNL     1      11.113   6.188   6.963  0.00  0.00    +0.005 A 
ATOM     28  C   UNL     1       8.657   7.496   7.162  0.00  0.00    +0.000 A 
ATOM     29  C   UNL     1      10.312   5.999   8.089  0.00  0.00    +0.000 A 
ATOM     32  C   UNL     1       9.084   6.652   8.188  0.00  0.00    +0.000 A 
ENDBRANCH   9  16
BRANCH  12  20
ATOM      3  O   UNL     1      13.491  10.435   4.546  0.00  0.00    -0.249 OA
ATOM     20  C   UNL     1      12.888   9.868   5.447  0.00  0.00    +0.325 C 
BRANCH  20   2
ATOM      2  O   UNL     1      11.783  10.332   6.099  0.00  0.00    -0.467 OA
ATOM     33  C   UNL     1      11.812  10.206   7.524  0.00  0.00    +0.280 C 
ENDBRANCH  20   2
ENDBRANCH  12  20
TORSDOF 4
ENDMDL
MODEL 8
REMARK VINA RESULT:      -6.5     28.953     31.443
REMARK  Name = 25389825
REMARK  5 active torsions:
REMARK  status: ('A' for Active; 'I' for Inactive)
REMARK    1  A    between atoms: O_2  and  C_20
REMARK    2  A    between atoms: O_2  and  C_33
REMARK    3  A    between atoms: N_5  and  C_8
REMARK    4  A    between atoms: C_9  and  C_16
REMARK    5  A    between atoms: C_12  and  C_20
REMARK                            x       y       z     vdW  Elec       q    Type
REMARK                         _______ _______ _______ _____ _____    ______ ____
ROOT
ATOM      4  N   UNL     1      -8.608 -11.086  17.480  0.00  0.00    -0.274 NA
ATOM      6  N   UNL     1      -6.296  -9.557  14.945  0.00  0.00    -0.356 N 
ATOM      7  C   UNL     1      -7.891  -9.900  16.918  0.00  0.00    +0.106 C 
ATOM      8  C   UNL     1      -9.858  -8.423  17.456  0.00  0.00    +0.060 C 
ATOM      9  C   UNL     1      -9.559 -10.704  18.554  0.00  0.00    +0.090 C 
ATOM     10  C   UNL     1      -8.893  -8.875  16.362  0.00  0.00    +0.044 C 
ATOM     11  C   UNL     1     -10.564  -9.639  18.052  0.00  0.00    +0.042 C 
ATOM     12  C   UNL     1      -7.689 -12.205  17.831  0.00  0.00    +0.172 C 
ATOM     13  C   UNL     1      -6.919 -10.350  15.869  0.00  0.00    +0.038 A 
ATOM     14  C   UNL     1      -6.910 -12.740  16.602  0.00  0.00    +0.068 C 
ATOM     15  C   UNL     1      -6.446 -11.635  15.720  0.00  0.00    -0.016 A 
ATOM     17  C   UNL     1      -5.522 -11.636  14.640  0.00  0.00    +0.003 A 
ATOM     21  C   UNL     1      -5.448 -10.321  14.170  0.00  0.00    +0.047 A 
ATOM     26  C   UNL     1      -4.737 -12.624  14.013  0.00  0.00    +0.010 A 
ATOM     27  C   UNL     1      -4.625  -9.947  13.102  0.00  0.00    +0.026 A 
ATOM     30  C   UNL     1      -3.911 -12.263  12.942  0.00  0.00    +0.001 A 
ATOM     31  C   UNL     1      -3.857 -10.945  12.496  0.00  0.00    +0.002 A 
ATOM     34  H   UNL     1      -6.431  -8.562  14.836  0.00  0.00    +0.166 HD
ENDROOT
BRANCH   8   5
ATOM      1  O   UNL     1     -12.523  -6.508  14.839  0.00  0.00    -0.377 OA
ATOM      5  N   UNL     1     -10.826  -7.473  16.911  0.00  0.00    -0.295 NA
ATOM     18  C   UNL     1     -12.086  -8.150  16.571  0.00  0.00    +0.113 C 
ATOM     19  C   UNL     1     -10.283  -6.797  15.725  0.00  0.00    +0.113 C 
ATOM     22  C   UNL     1     -13.076  -7.142  15.993  0.00  0.00    +0.175 C 
ATOM     23  C   UNL     1     -11.315  -5.821  15.168  0.00  0.00    +0.175 C 
ENDBRANCH   8   5
BRANCH   9  16
ATOM     16  C   UNL     1     -10.364 -11.870  19.119  0.00  0.00    -0.030 A 
ATOM     24  C   UNL     1     -10.234 -12.221  20.463  0.00  0.00    +0.005 A 
ATOM     25  C   UNL     1     -11.232 -12.584  18.293  0.00  0.00    +0.005 A 
ATOM     28  C   UNL     1     -10.970 -13.287  20.980  0.00  0.00    +0.000 A 
ATOM     29  C   UNL     1     -11.968 -13.650  18.809  0.00  0.00    +0.000 A 
ATOM     32  C   UNL     1     -11.837 -14.002  20.153  0.00  0.00    +0.000 A 
ENDBRANCH   9  16
BRANCH  12  20
ATOM      3  O   UNL     1      -6.998 -10.927  19.755  0.00  0.00    -0.249 OA
ATOM     20  C   UNL     1      -6.747 -11.789  18.924  0.00  0.00    +0.325 C 
BRANCH  20   2
ATOM      2  O   UNL     1      -5.596 -12.515  18.834  0.00  0.00    -0.467 OA
ATOM     33  C   UNL     1      -4.392 -11.799  19.126  0.00  0.00    +0.280 C 
ENDBRANCH  20   2
ENDBRANCH  12  20
TORSDOF 4
ENDMDL
MODEL 9
REMARK VINA RESULT:      -6.4     14.667     18.506
REMARK  Name = 25389825
REMARK  5 active torsions:
REMARK  status: ('A' for Active; 'I' for Inactive)
REMARK    1  A    between atoms: O_2  and  C_20
REMARK    2  A    between atoms: O_2  and  C_33
REMARK    3  A    between atoms: N_5  and  C_8
REMARK    4  A    between atoms: C_9  and  C_16
REMARK    5  A    between atoms: C_12  and  C_20
REMARK                            x       y       z     vdW  Elec       q    Type
REMARK                         _______ _______ _______ _____ _____    ______ ____
ROOT
ATOM      4  N   UNL     1      16.791  -7.454  25.843  0.00  0.00    -0.274 NA
ATOM      6  N   UNL     1      17.452  -3.786  26.307  0.00  0.00    -0.356 N 
ATOM      7  C   UNL     1      17.269  -6.312  26.682  0.00  0.00    +0.106 C 
ATOM      8  C   UNL     1      16.326  -7.399  28.748  0.00  0.00    +0.060 C 
ATOM      9  C   UNL     1      16.740  -8.724  26.611  0.00  0.00    +0.090 C 
ATOM     10  C   UNL     1      16.362  -6.123  27.909  0.00  0.00    +0.044 C 
ATOM     11  C   UNL     1      15.870  -8.571  27.882  0.00  0.00    +0.042 C 
ATOM     12  C   UNL     1      17.494  -7.545  24.533  0.00  0.00    +0.172 C 
ATOM     13  C   UNL     1      17.337  -5.068  25.847  0.00  0.00    +0.038 A 
ATOM     14  C   UNL     1      17.288  -6.280  23.661  0.00  0.00    +0.068 C 
ATOM     15  C   UNL     1      17.365  -5.034  24.470  0.00  0.00    -0.016 A 
ATOM     17  C   UNL     1      17.467  -3.674  24.071  0.00  0.00    +0.003 A 
ATOM     21  C   UNL     1      17.518  -2.911  25.243  0.00  0.00    +0.047 A 
ATOM     26  C   UNL     1      17.524  -3.011  22.829  0.00  0.00    +0.010 A 
ATOM     27  C   UNL     1      17.623  -1.516  25.230  0.00  0.00    +0.026 A 
ATOM     30  C   UNL     1      17.627  -1.615  22.803  0.00  0.00    +0.001 A 
ATOM     31  C   UNL     1      17.676  -0.882  23.986  0.00  0.00    +0.002 A 
ATOM     34  H   UNL     1      17.482  -3.509  27.278  0.00  0.00    +0.166 HD
ENDROOT
BRANCH   8   5
ATOM      1  O   UNL     1      12.875  -6.789  31.058  0.00  0.00    -0.377 OA
ATOM      5  N   UNL     1      15.437  -7.222  29.894  0.00  0.00    -0.295 NA
ATOM     18  C   UNL     1      14.422  -8.284  29.937  0.00  0.00    +0.113 C 
ATOM     19  C   UNL     1      14.784  -5.906  29.849  0.00  0.00    +0.113 C 
ATOM     22  C   UNL     1      13.499  -8.071  31.134  0.00  0.00    +0.175 C 
ATOM     23  C   UNL     1      13.853  -5.749  31.048  0.00  0.00    +0.175 C 
ENDBRANCH   8   5
BRANCH   9  16
ATOM     16  C   UNL     1      16.198  -9.911  25.819  0.00  0.00    -0.030 A 
ATOM     24  C   UNL     1      17.008 -11.023  25.587  0.00  0.00    +0.005 A 
ATOM     25  C   UNL     1      14.893  -9.884  25.328  0.00  0.00    +0.005 A 
ATOM     28  C   UNL     1      16.513 -12.108  24.864  0.00  0.00    +0.000 A 
ATOM     29  C   UNL     1      14.397 -10.969  24.604  0.00  0.00    +0.000 A 
ATOM     32  C   UNL     1      15.207 -12.080  24.373  0.00  0.00    +0.000 A 
ENDBRANCH   9  16
BRANCH  12  20
ATOM      3  O   UNL     1      19.408  -8.456  25.684  0.00  0.00    -0.249 OA
ATOM     20  C   UNL     1      18.956  -7.822  24.740  0.00  0.00    +0.325 C 
BRANCH  20   2
ATOM      2  O   UNL     1      19.674  -7.263  23.724  0.00  0.00    -0.467 OA
ATOM     33  C   UNL     1      21.017  -6.892  24.051  0.00  0.00    +0.280 C 
ENDBRANCH  20   2
ENDBRANCH  12  20
TORSDOF 4
ENDMDL
MODEL 10
REMARK VINA RESULT:      -6.3     13.548     16.227
REMARK  Name = 25389825
REMARK  5 active torsions:
REMARK  status: ('A' for Active; 'I' for Inactive)
REMARK    1  A    between atoms: O_2  and  C_20
REMARK    2  A    between atoms: O_2  and  C_33
REMARK    3  A    between atoms: N_5  and  C_8
REMARK    4  A    between atoms: C_9  and  C_16
REMARK    5  A    between atoms: C_12  and  C_20
REMARK                            x       y       z     vdW  Elec       q    Type
REMARK                         _______ _______ _______ _____ _____    ______ ____
ROOT
ATOM      4  N   UNL     1      14.309   8.446   4.770  0.00  0.00    -0.274 NA
ATOM      6  N   UNL     1      17.838   7.693   3.728  0.00  0.00    -0.356 N 
ATOM      7  C   UNL     1      15.325   8.185   3.705  0.00  0.00    +0.106 C 
ATOM      8  C   UNL     1      13.621   6.921   2.350  0.00  0.00    +0.060 C 
ATOM      9  C   UNL     1      12.931   8.509   4.220  0.00  0.00    +0.090 C 
ATOM     10  C   UNL     1      15.016   6.871   2.971  0.00  0.00    +0.044 C 
ATOM     11  C   UNL     1      12.588   7.221   3.434  0.00  0.00    +0.042 C 
ATOM     12  C   UNL     1      14.679   9.584   5.657  0.00  0.00    +0.172 C 
ATOM     13  C   UNL     1      16.698   8.171   4.311  0.00  0.00    +0.038 A 
ATOM     14  C   UNL     1      16.010   9.339   6.412  0.00  0.00    +0.068 C 
ATOM     15  C   UNL     1      17.033   8.708   5.535  0.00  0.00    -0.016 A 
ATOM     17  C   UNL     1      18.429   8.521   5.723  0.00  0.00    +0.003 A 
ATOM     21  C   UNL     1      18.910   7.881   4.576  0.00  0.00    +0.047 A 
ATOM     26  C   UNL     1      19.337   8.835   6.754  0.00  0.00    +0.010 A 
ATOM     27  C   UNL     1      20.257   7.539   4.412  0.00  0.00    +0.026 A 
ATOM     30  C   UNL     1      20.687   8.496   6.603  0.00  0.00    +0.001 A 
ATOM     31  C   UNL     1      21.137   7.859   5.449  0.00  0.00    +0.002 A 
ATOM     34  H   UNL     1      17.898   7.264   2.816  0.00  0.00    +0.166 HD
ENDROOT
BRANCH   8   5
ATOM      1  O   UNL     1      13.072   2.820   1.642  0.00  0.00    -0.377 OA
ATOM      5  N   UNL     1      13.322   5.656   1.682  0.00  0.00    -0.295 NA
ATOM     18  C   UNL     1      12.196   4.974   2.335  0.00  0.00    +0.113 C 
ATOM     19  C   UNL     1      14.502   4.779   1.673  0.00  0.00    +0.113 C 
ATOM     22  C   UNL     1      11.910   3.651   1.628  0.00  0.00    +0.175 C 
ATOM     23  C   UNL     1      14.163   3.462   0.981  0.00  0.00    +0.175 C 
ENDBRANCH   8   5
BRANCH   9  16
ATOM     16  C   UNL     1      11.847   8.711   5.275  0.00  0.00    -0.030 A 
ATOM     24  C   UNL     1      11.744   7.826   6.348  0.00  0.00    +0.005 A 
ATOM     25  C   UNL     1      10.960   9.782   5.167  0.00  0.00    +0.005 A 
ATOM     28  C   UNL     1      10.753   8.011   7.312  0.00  0.00    +0.000 A 
ATOM     29  C   UNL     1       9.968   9.967   6.130  0.00  0.00    +0.000 A 
ATOM     32  C   UNL     1       9.866   9.082   7.203  0.00  0.00    +0.000 A 
ENDBRANCH   9  16
BRANCH  12  20
ATOM      3  O   UNL     1      15.548  11.095   3.991  0.00  0.00    -0.249 OA
ATOM     20  C   UNL     1      14.733  10.865   4.874  0.00  0.00    +0.325 C 
BRANCH  20   2
ATOM      2  O   UNL     1      13.746  11.704   5.303  0.00  0.00    -0.467 OA
ATOM     33  C   UNL     1      13.617  11.825   6.723  0.00  0.00    +0.280 C 
ENDBRANCH  20   2
ENDBRANCH  12  20
TORSDOF 4
ENDMDL
