MODEL 1
REMARK VINA RESULT:      -7.6      0.000      0.000
REMARK  Name = 86768988
REMARK  7 active torsions:
REMARK  status: ('A' for Active; 'I' for Inactive)
REMARK    1  A    between atoms: O_1  and  C_10
REMARK    2  A    between atoms: O_2  and  C_12
REMARK    3  A    between atoms: N_4  and  C_8
REMARK    4  A    between atoms: N_4  and  C_13
REMARK    5  A    between atoms: N_5  and  C_21
REMARK    6  A    between atoms: N_7  and  C_23
REMARK    7  A    between atoms: C_9  and  C_14
REMARK                            x       y       z     vdW  Elec       q    Type
REMARK                         _______ _______ _______ _____ _____    ______ ____
ROOT
ATOM      8  C   UNL     1      13.572   8.455  20.295  0.00  0.00    +0.092 C 
ATOM      9  C   UNL     1      14.700   8.387  19.220  0.00  0.00    +0.042 C 
ATOM     10  C   UNL     1      12.391   7.681  19.687  0.00  0.00    +0.160 C 
ATOM     11  C   UNL     1      14.109   7.592  18.040  0.00  0.00    +0.043 C 
ATOM     12  C   UNL     1      12.608   7.800  18.182  0.00  0.00    +0.145 C 
ENDROOT
BRANCH   9  14
ATOM      6  N   UNL     1      17.951   8.053  21.146  0.00  0.00    -0.240 NA
ATOM     14  C   UNL     1      16.005   7.814  19.730  0.00  0.00    -0.024 A 
ATOM     19  C   UNL     1      16.468   6.580  19.289  0.00  0.00    +0.009 A 
ATOM     20  C   UNL     1      16.777   8.505  20.652  0.00  0.00    +0.116 A 
ATOM     22  C   UNL     1      17.672   6.080  19.775  0.00  0.00    +0.044 A 
ATOM     23  C   UNL     1      18.368   6.849  20.694  0.00  0.00    +0.121 A 
BRANCH  23   7
ATOM      3  O   UNL     1      21.864   5.075  22.214  0.00  0.00    -0.377 OA
ATOM      7  N   UNL     1      19.578   6.335  21.174  0.00  0.00    -0.311 N 
ATOM     24  C   UNL     1      20.139   5.149  20.511  0.00  0.00    +0.134 C 
ATOM     25  C   UNL     1      19.923   6.480  22.593  0.00  0.00    +0.134 C 
ATOM     26  C   UNL     1      21.631   5.054  20.806  0.00  0.00    +0.178 C 
ATOM     27  C   UNL     1      21.427   6.311  22.777  0.00  0.00    +0.178 C 
ENDBRANCH  23   7
ENDBRANCH   9  14
BRANCH  10   1
ATOM      1  O   UNL     1      12.483   6.319  20.105  0.00  0.00    -0.388 OA
ATOM     29  H   UNL     1      11.861   5.806  19.562  0.00  0.00    +0.210 HD
ENDBRANCH  10   1
BRANCH  12   2
ATOM      2  O   UNL     1      11.881   6.835  17.449  0.00  0.00    -0.389 OA
ATOM     30  H   UNL     1      12.491   6.107  17.241  0.00  0.00    +0.210 HD
ENDBRANCH  12   2
BRANCH   8   4
ATOM      4  N   UNL     1      13.190   9.851  20.517  0.00  0.00    -0.307 NA
ATOM     28  H   UNL     1      12.421  10.112  19.900  0.00  0.00    +0.123 HD
BRANCH   4  13
ATOM      5  N   UNL     1      11.588  11.780  23.949  0.00  0.00    -0.305 NA
ATOM     13  C   UNL     1      12.798  10.068  21.908  0.00  0.00    +0.056 C 
ATOM     15  C   UNL     1      13.532  11.272  22.504  0.00  0.00    +0.034 C 
ATOM     16  C   UNL     1      11.285  10.278  22.005  0.00  0.00    +0.034 C 
ATOM     17  C   UNL     1      13.041  11.565  23.924  0.00  0.00    +0.085 C 
ATOM     18  C   UNL     1      10.867  10.604  23.442  0.00  0.00    +0.085 C 
ATOM     21  C   UNL     1      11.142  12.108  25.302  0.00  0.00    +0.104 C 
ENDBRANCH   4  13
ENDBRANCH   8   4
TORSDOF 6
ENDMDL
MODEL 2
REMARK VINA RESULT:      -6.9      3.531      7.307
REMARK  Name = 86768988
REMARK  7 active torsions:
REMARK  status: ('A' for Active; 'I' for Inactive)
REMARK    1  A    between atoms: O_1  and  C_10
REMARK    2  A    between atoms: O_2  and  C_12
REMARK    3  A    between atoms: N_4  and  C_8
REMARK    4  A    between atoms: N_4  and  C_13
REMARK    5  A    between atoms: N_5  and  C_21
REMARK    6  A    between atoms: N_7  and  C_23
REMARK    7  A    between atoms: C_9  and  C_14
REMARK                            x       y       z     vdW  Elec       q    Type
REMARK                         _______ _______ _______ _____ _____    ______ ____
ROOT
ATOM      8  C   UNL     1      13.734   7.456  20.358  0.00  0.00    +0.092 C 
ATOM      9  C   UNL     1      13.199   8.914  20.206  0.00  0.00    +0.042 C 
ATOM     10  C   UNL     1      12.491   6.603  20.658  0.00  0.00    +0.160 C 
ATOM     11  C   UNL     1      11.679   8.832  20.443  0.00  0.00    +0.043 C 
ATOM     12  C   UNL     1      11.516   7.586  21.300  0.00  0.00    +0.145 C 
ENDROOT
BRANCH   9  14
ATOM      6  N   UNL     1      14.266   9.332  16.589  0.00  0.00    -0.240 NA
ATOM     14  C   UNL     1      13.563   9.571  18.891  0.00  0.00    -0.024 A 
ATOM     19  C   UNL     1      13.544  10.953  18.750  0.00  0.00    +0.009 A 
ATOM     20  C   UNL     1      13.927   8.811  17.790  0.00  0.00    +0.116 A 
ATOM     22  C   UNL     1      13.884  11.527  17.529  0.00  0.00    +0.044 A 
ATOM     23  C   UNL     1      14.235  10.680  16.490  0.00  0.00    +0.121 A 
BRANCH  23   7
ATOM      3  O   UNL     1      15.136  12.243  12.693  0.00  0.00    -0.377 OA
ATOM      7  N   UNL     1      14.576  11.271  15.269  0.00  0.00    -0.311 N 
ATOM     24  C   UNL     1      13.490  11.758  14.407  0.00  0.00    +0.134 C 
ATOM     25  C   UNL     1      15.791  10.846  14.565  0.00  0.00    +0.134 C 
ATOM     26  C   UNL     1      14.037  12.787  13.423  0.00  0.00    +0.178 C 
ATOM     27  C   UNL     1      16.214  11.922  13.571  0.00  0.00    +0.178 C 
ENDBRANCH  23   7
ENDBRANCH   9  14
BRANCH  10   1
ATOM      1  O   UNL     1      11.973   6.111  19.423  0.00  0.00    -0.388 OA
ATOM     29  H   UNL     1      11.025   6.325  19.399  0.00  0.00    +0.210 HD
ENDBRANCH  10   1
BRANCH  12   2
ATOM      2  O   UNL     1      10.182   7.118  21.283  0.00  0.00    -0.389 OA
ATOM     30  H   UNL     1      10.194   6.217  20.919  0.00  0.00    +0.210 HD
ENDBRANCH  12   2
BRANCH   8   4
ATOM      4  N   UNL     1      14.666   7.392  21.485  0.00  0.00    -0.307 NA
ATOM     28  H   UNL     1      14.622   6.476  21.931  0.00  0.00    +0.123 HD
BRANCH   4  13
ATOM      5  N   UNL     1      18.875   7.960  21.676  0.00  0.00    -0.305 NA
ATOM     13  C   UNL     1      16.034   7.655  21.042  0.00  0.00    +0.056 C 
ATOM     15  C   UNL     1      16.592   8.917  21.706  0.00  0.00    +0.034 C 
ATOM     16  C   UNL     1      16.933   6.458  21.359  0.00  0.00    +0.034 C 
ATOM     17  C   UNL     1      18.060   9.132  21.328  0.00  0.00    +0.085 C 
ATOM     18  C   UNL     1      18.390   6.753  20.991  0.00  0.00    +0.085 C 
ATOM     21  C   UNL     1      20.281   8.201  21.355  0.00  0.00    +0.104 C 
ENDBRANCH   4  13
ENDBRANCH   8   4
TORSDOF 6
ENDMDL
MODEL 3
REMARK VINA RESULT:      -6.6      4.526      6.417
REMARK  Name = 86768988
REMARK  7 active torsions:
REMARK  status: ('A' for Active; 'I' for Inactive)
REMARK    1  A    between atoms: O_1  and  C_10
REMARK    2  A    between atoms: O_2  and  C_12
REMARK    3  A    between atoms: N_4  and  C_8
REMARK    4  A    between atoms: N_4  and  C_13
REMARK    5  A    between atoms: N_5  and  C_21
REMARK    6  A    between atoms: N_7  and  C_23
REMARK    7  A    between atoms: C_9  and  C_14
REMARK                            x       y       z     vdW  Elec       q    Type
REMARK                         _______ _______ _______ _____ _____    ______ ____
ROOT
ATOM      8  C   UNL     1      13.358   8.623  21.271  0.00  0.00    +0.092 C 
ATOM      9  C   UNL     1      12.270   9.271  20.359  0.00  0.00    +0.042 C 
ATOM     10  C   UNL     1      12.827   7.216  21.590  0.00  0.00    +0.160 C 
ATOM     11  C   UNL     1      11.160   8.212  20.211  0.00  0.00    +0.043 C 
ATOM     12  C   UNL     1      11.313   7.354  21.458  0.00  0.00    +0.145 C 
ENDROOT
BRANCH   9  14
ATOM      6  N   UNL     1      12.755   9.651  16.616  0.00  0.00    -0.240 NA
ATOM     14  C   UNL     1      12.797   9.771  19.031  0.00  0.00    -0.024 A 
ATOM     19  C   UNL     1      13.769  10.763  18.972  0.00  0.00    +0.009 A 
ATOM     20  C   UNL     1      12.327   9.253  17.834  0.00  0.00    +0.116 A 
ATOM     22  C   UNL     1      14.234  11.202  17.737  0.00  0.00    +0.044 A 
ATOM     23  C   UNL     1      13.700  10.618  16.599  0.00  0.00    +0.121 A 
BRANCH  23   7
ATOM      3  O   UNL     1      15.013  11.751  12.769  0.00  0.00    -0.377 OA
ATOM      7  N   UNL     1      14.178  11.068  15.364  0.00  0.00    -0.311 N 
ATOM     24  C   UNL     1      13.201  11.518  14.363  0.00  0.00    +0.134 C 
ATOM     25  C   UNL     1      15.424  10.518  14.818  0.00  0.00    +0.134 C 
ATOM     26  C   UNL     1      13.887  12.416  13.341  0.00  0.00    +0.178 C 
ATOM     27  C   UNL     1      15.991  11.468  13.769  0.00  0.00    +0.178 C 
ENDBRANCH  23   7
ENDBRANCH   9  14
BRANCH  10   1
ATOM      1  O   UNL     1      13.339   6.310  20.613  0.00  0.00    -0.388 OA
ATOM     29  H   UNL     1      14.160   6.694  20.262  0.00  0.00    +0.210 HD
ENDBRANCH  10   1
BRANCH  12   2
ATOM      2  O   UNL     1      10.665   6.107  21.310  0.00  0.00    -0.389 OA
ATOM     30  H   UNL     1      10.983   5.526  22.021  0.00  0.00    +0.210 HD
ENDBRANCH  12   2
BRANCH   8   4
ATOM      4  N   UNL     1      13.486   9.399  22.506  0.00  0.00    -0.307 NA
ATOM     28  H   UNL     1      14.465   9.605  22.696  0.00  0.00    +0.123 HD
BRANCH   4  13
ATOM      5  N   UNL     1      11.871  13.168  23.629  0.00  0.00    -0.305 NA
ATOM     13  C   UNL     1      12.730  10.647  22.416  0.00  0.00    +0.056 C 
ATOM     15  C   UNL     1      11.640  10.707  23.490  0.00  0.00    +0.034 C 
ATOM     16  C   UNL     1      13.670  11.846  22.558  0.00  0.00    +0.034 C 
ATOM     17  C   UNL     1      10.922  12.059  23.466  0.00  0.00    +0.085 C 
ATOM     18  C   UNL     1      12.885  13.161  22.564  0.00  0.00    +0.085 C 
ATOM     21  C   UNL     1      11.165  14.448  23.654  0.00  0.00    +0.104 C 
ENDBRANCH   4  13
ENDBRANCH   8   4
TORSDOF 6
ENDMDL
MODEL 4
REMARK VINA RESULT:      -6.5     15.150     18.234
REMARK  Name = 86768988
REMARK  7 active torsions:
REMARK  status: ('A' for Active; 'I' for Inactive)
REMARK    1  A    between atoms: O_1  and  C_10
REMARK    2  A    between atoms: O_2  and  C_12
REMARK    3  A    between atoms: N_4  and  C_8
REMARK    4  A    between atoms: N_4  and  C_13
REMARK    5  A    between atoms: N_5  and  C_21
REMARK    6  A    between atoms: N_7  and  C_23
REMARK    7  A    between atoms: C_9  and  C_14
REMARK                            x       y       z     vdW  Elec       q    Type
REMARK                         _______ _______ _______ _____ _____    ______ ____
ROOT
ATOM      8  C   UNL     1      10.215   6.646   6.627  0.00  0.00    +0.092 C 
ATOM      9  C   UNL     1       9.811   5.415   5.758  0.00  0.00    +0.042 C 
ATOM     10  C   UNL     1      10.528   6.069   8.017  0.00  0.00    +0.160 C 
ATOM     11  C   UNL     1       9.894   4.193   6.693  0.00  0.00    +0.043 C 
ATOM     12  C   UNL     1       9.700   4.788   8.080  0.00  0.00    +0.145 C 
ENDROOT
BRANCH   9  14
ATOM      6  N   UNL     1      12.247   6.181   2.953  0.00  0.00    -0.240 NA
ATOM     14  C   UNL     1      10.631   5.255   4.495  0.00  0.00    -0.024 A 
ATOM     19  C   UNL     1      10.545   4.102   3.725  0.00  0.00    +0.009 A 
ATOM     20  C   UNL     1      11.490   6.257   4.070  0.00  0.00    +0.116 A 
ATOM     22  C   UNL     1      11.310   3.985   2.569  0.00  0.00    +0.044 A 
ATOM     23  C   UNL     1      12.138   5.044   2.230  0.00  0.00    +0.121 A 
BRANCH  23   7
ATOM      3  O   UNL     1      14.617   4.512  -1.124  0.00  0.00    -0.377 OA
ATOM      7  N   UNL     1      12.900   4.913   1.064  0.00  0.00    -0.311 N 
ATOM     24  C   UNL     1      13.094   3.566   0.509  0.00  0.00    +0.134 C 
ATOM     25  C   UNL     1      13.982   5.865   0.787  0.00  0.00    +0.134 C 
ATOM     26  C   UNL     1      13.479   3.667  -0.962  0.00  0.00    +0.178 C 
ATOM     27  C   UNL     1      14.321   5.841  -0.699  0.00  0.00    +0.178 C 
ENDBRANCH  23   7
ENDBRANCH   9  14
BRANCH  10   1
ATOM      1  O   UNL     1      11.923   5.772   8.078  0.00  0.00    -0.388 OA
ATOM     29  H   UNL     1      12.040   4.860   7.763  0.00  0.00    +0.210 HD
ENDBRANCH  10   1
BRANCH  12   2
ATOM      2  O   UNL     1      10.143   3.903   9.089  0.00  0.00    -0.389 OA
ATOM     30  H   UNL     1       9.770   4.211   9.932  0.00  0.00    +0.210 HD
ENDBRANCH  12   2
BRANCH   8   4
ATOM      4  N   UNL     1       9.087   7.574   6.715  0.00  0.00    -0.307 NA
ATOM     28  H   UNL     1       9.105   8.071   7.605  0.00  0.00    +0.123 HD
BRANCH   4  13
ATOM      5  N   UNL     1       7.854  10.727   4.144  0.00  0.00    -0.305 NA
ATOM     13  C   UNL     1       9.120   8.537   5.616  0.00  0.00    +0.056 C 
ATOM     15  C   UNL     1       7.955   8.306   4.650  0.00  0.00    +0.034 C 
ATOM     16  C   UNL     1       9.069   9.966   6.162  0.00  0.00    +0.034 C 
ATOM     17  C   UNL     1       7.925   9.380   3.560  0.00  0.00    +0.085 C 
ATOM     18  C   UNL     1       9.004  10.987   5.023  0.00  0.00    +0.085 C 
ATOM     21  C   UNL     1       7.776  11.738   3.091  0.00  0.00    +0.104 C 
ENDBRANCH   4  13
ENDBRANCH   8   4
TORSDOF 6
ENDMDL
MODEL 5
REMARK VINA RESULT:      -6.5     17.055     20.710
REMARK  Name = 86768988
REMARK  7 active torsions:
REMARK  status: ('A' for Active; 'I' for Inactive)
REMARK    1  A    between atoms: O_1  and  C_10
REMARK    2  A    between atoms: O_2  and  C_12
REMARK    3  A    between atoms: N_4  and  C_8
REMARK    4  A    between atoms: N_4  and  C_13
REMARK    5  A    between atoms: N_5  and  C_21
REMARK    6  A    between atoms: N_7  and  C_23
REMARK    7  A    between atoms: C_9  and  C_14
REMARK                            x       y       z     vdW  Elec       q    Type
REMARK                         _______ _______ _______ _____ _____    ______ ____
ROOT
ATOM      8  C   UNL     1      13.298   3.666   1.223  0.00  0.00    +0.092 C 
ATOM      9  C   UNL     1      12.959   5.183   1.364  0.00  0.00    +0.042 C 
ATOM     10  C   UNL     1      14.824   3.612   1.042  0.00  0.00    +0.160 C 
ATOM     11  C   UNL     1      14.302   5.927   1.241  0.00  0.00    +0.043 C 
ATOM     12  C   UNL     1      15.172   4.970   0.440  0.00  0.00    +0.145 C 
ENDROOT
BRANCH   9  14
ATOM      6  N   UNL     1      11.868   7.036   4.489  0.00  0.00    -0.240 NA
ATOM     14  C   UNL     1      12.198   5.529   2.626  0.00  0.00    -0.024 A 
ATOM     19  C   UNL     1      11.172   4.716   3.093  0.00  0.00    +0.009 A 
ATOM     20  C   UNL     1      12.504   6.669   3.355  0.00  0.00    +0.116 A 
ATOM     22  C   UNL     1      10.493   5.060   4.256  0.00  0.00    +0.044 A 
ATOM     23  C   UNL     1      10.876   6.220   4.911  0.00  0.00    +0.121 A 
BRANCH  23   7
ATOM      3  O   UNL     1       8.577   7.090   8.322  0.00  0.00    -0.377 OA
ATOM      7  N   UNL     1      10.184   6.553   6.081  0.00  0.00    -0.311 N 
ATOM     24  C   UNL     1       9.776   5.465   6.980  0.00  0.00    +0.134 C 
ATOM     25  C   UNL     1       9.325   7.743   6.109  0.00  0.00    +0.134 C 
ATOM     26  C   UNL     1       9.520   6.020   8.376  0.00  0.00    +0.178 C 
ATOM     27  C   UNL     1       9.091   8.175   7.552  0.00  0.00    +0.178 C 
ENDBRANCH  23   7
ENDBRANCH   9  14
BRANCH  10   1
ATOM      1  O   UNL     1      15.424   3.460   2.328  0.00  0.00    -0.388 OA
ATOM     29  H   UNL     1      15.908   2.617   2.325  0.00  0.00    +0.210 HD
ENDBRANCH  10   1
BRANCH  12   2
ATOM      2  O   UNL     1      16.543   5.287   0.570  0.00  0.00    -0.389 OA
ATOM     30  H   UNL     1      16.982   5.029  -0.258  0.00  0.00    +0.210 HD
ENDBRANCH  12   2
BRANCH   8   4
ATOM      4  N   UNL     1      12.636   3.125   0.034  0.00  0.00    -0.307 NA
ATOM     28  H   UNL     1      11.898   2.476   0.303  0.00  0.00    +0.123 HD
BRANCH   4  13
ATOM      5  N   UNL     1      10.443   5.047  -3.059  0.00  0.00    -0.305 NA
ATOM     13  C   UNL     1      12.072   4.200  -0.779  0.00  0.00    +0.056 C 
ATOM     15  C   UNL     1      12.581   4.121  -2.221  0.00  0.00    +0.034 C 
ATOM     16  C   UNL     1      10.543   4.131  -0.762  0.00  0.00    +0.034 C 
ATOM     17  C   UNL     1      11.906   5.179  -3.100  0.00  0.00    +0.085 C 
ATOM     18  C   UNL     1       9.934   5.188  -1.687  0.00  0.00    +0.085 C 
ATOM     21  C   UNL     1       9.816   6.031  -3.941  0.00  0.00    +0.104 C 
ENDBRANCH   4  13
ENDBRANCH   8   4
TORSDOF 6
ENDMDL
MODEL 6
REMARK VINA RESULT:      -6.4     28.540     31.884
REMARK  Name = 86768988
REMARK  7 active torsions:
REMARK  status: ('A' for Active; 'I' for Inactive)
REMARK    1  A    between atoms: O_1  and  C_10
REMARK    2  A    between atoms: O_2  and  C_12
REMARK    3  A    between atoms: N_4  and  C_8
REMARK    4  A    between atoms: N_4  and  C_13
REMARK    5  A    between atoms: N_5  and  C_21
REMARK    6  A    between atoms: N_7  and  C_23
REMARK    7  A    between atoms: C_9  and  C_14
REMARK                            x       y       z     vdW  Elec       q    Type
REMARK                         _______ _______ _______ _____ _____    ______ ____
ROOT
ATOM      8  C   UNL     1      -8.687 -11.070  18.964  0.00  0.00    +0.092 C 
ATOM      9  C   UNL     1     -10.028 -10.418  19.421  0.00  0.00    +0.042 C 
ATOM     10  C   UNL     1      -8.917 -12.586  19.084  0.00  0.00    +0.160 C 
ATOM     11  C   UNL     1     -10.958 -11.587  19.798  0.00  0.00    +0.043 C 
ATOM     12  C   UNL     1      -9.996 -12.711  20.155  0.00  0.00    +0.145 C 
ENDROOT
BRANCH   9  14
ATOM      6  N   UNL     1     -12.589  -8.737  17.184  0.00  0.00    -0.240 NA
ATOM     14  C   UNL     1     -10.635  -9.478  18.402  0.00  0.00    -0.024 A 
ATOM     19  C   UNL     1      -9.860  -8.523  17.755  0.00  0.00    +0.009 A 
ATOM     20  C   UNL     1     -11.983  -9.543  18.084  0.00  0.00    +0.116 A 
ATOM     22  C   UNL     1     -10.447  -7.674  16.822  0.00  0.00    +0.044 A 
ATOM     23  C   UNL     1     -11.803  -7.821  16.575  0.00  0.00    +0.121 A 
BRANCH  23   7
ATOM      3  O   UNL     1     -13.524  -5.035  13.938  0.00  0.00    -0.377 OA
ATOM      7  N   UNL     1     -12.379  -6.961  15.634  0.00  0.00    -0.311 N 
ATOM     24  C   UNL     1     -11.575  -5.836  15.138  0.00  0.00    +0.134 C 
ATOM     25  C   UNL     1     -13.829  -6.739  15.638  0.00  0.00    +0.134 C 
ATOM     26  C   UNL     1     -12.137  -5.348  13.808  0.00  0.00    +0.178 C 
ATOM     27  C   UNL     1     -14.272  -6.201  14.282  0.00  0.00    +0.178 C 
ENDBRANCH  23   7
ENDBRANCH   9  14
BRANCH  10   1
ATOM      1  O   UNL     1      -9.393 -13.070  17.828  0.00  0.00    -0.388 OA
ATOM     29  H   UNL     1     -10.272 -12.682  17.681  0.00  0.00    +0.210 HD
ENDBRANCH  10   1
BRANCH  12   2
ATOM      2  O   UNL     1     -10.640 -13.968  20.134  0.00  0.00    -0.389 OA
ATOM     30  H   UNL     1     -11.517 -13.854  20.538  0.00  0.00    +0.210 HD
ENDBRANCH  12   2
BRANCH   8   4
ATOM      4  N   UNL     1      -7.609 -10.658  19.864  0.00  0.00    -0.307 NA
ATOM     28  H   UNL     1      -7.463 -11.360  20.589  0.00  0.00    +0.123 HD
BRANCH   4  13
ATOM      5  N   UNL     1      -4.523 -11.279  17.007  0.00  0.00    -0.305 NA
ATOM     13  C   UNL     1      -6.365 -10.450  19.125  0.00  0.00    +0.056 C 
ATOM     15  C   UNL     1      -5.428 -11.651  19.281  0.00  0.00    +0.034 C 
ATOM     16  C   UNL     1      -6.664 -10.211  17.643  0.00  0.00    +0.034 C 
ATOM     17  C   UNL     1      -4.174 -11.483  18.419  0.00  0.00    +0.085 C 
ATOM     18  C   UNL     1      -5.369 -10.089  16.835  0.00  0.00    +0.085 C 
ATOM     21  C   UNL     1      -3.316 -11.170  16.191  0.00  0.00    +0.104 C 
ENDBRANCH   4  13
ENDBRANCH   8   4
TORSDOF 6
ENDMDL
MODEL 7
REMARK VINA RESULT:      -6.4     26.680     29.511
REMARK  Name = 86768988
REMARK  7 active torsions:
REMARK  status: ('A' for Active; 'I' for Inactive)
REMARK    1  A    between atoms: O_1  and  C_10
REMARK    2  A    between atoms: O_2  and  C_12
REMARK    3  A    between atoms: N_4  and  C_8
REMARK    4  A    between atoms: N_4  and  C_13
REMARK    5  A    between atoms: N_5  and  C_21
REMARK    6  A    between atoms: N_7  and  C_23
REMARK    7  A    between atoms: C_9  and  C_14
REMARK                            x       y       z     vdW  Elec       q    Type
REMARK                         _______ _______ _______ _____ _____    ______ ____
ROOT
ATOM      8  C   UNL     1     -12.083   9.175  18.710  0.00  0.00    +0.092 C 
ATOM      9  C   UNL     1     -11.473   7.939  19.441  0.00  0.00    +0.042 C 
ATOM     10  C   UNL     1     -11.739   8.972  17.225  0.00  0.00    +0.160 C 
ATOM     11  C   UNL     1     -10.794   7.095  18.345  0.00  0.00    +0.043 C 
ATOM     12  C   UNL     1     -10.482   8.108  17.253  0.00  0.00    +0.145 C 
ENDROOT
BRANCH   9  14
ATOM      6  N   UNL     1     -14.781   6.655  20.781  0.00  0.00    -0.240 NA
ATOM     14  C   UNL     1     -12.472   7.154  20.264  0.00  0.00    -0.024 A 
ATOM     19  C   UNL     1     -12.052   6.245  21.228  0.00  0.00    +0.009 A 
ATOM     20  C   UNL     1     -13.836   7.320  20.081  0.00  0.00    +0.116 A 
ATOM     22  C   UNL     1     -12.994   5.540  21.969  0.00  0.00    +0.044 A 
ATOM     23  C   UNL     1     -14.334   5.779  21.710  0.00  0.00    +0.121 A 
BRANCH  23   7
ATOM      3  O   UNL     1     -17.229   3.869  24.087  0.00  0.00    -0.377 OA
ATOM      7  N   UNL     1     -15.270   5.063  22.464  0.00  0.00    -0.311 N 
ATOM     24  C   UNL     1     -16.697   5.291  22.196  0.00  0.00    +0.134 C 
ATOM     25  C   UNL     1     -14.949   4.660  23.837  0.00  0.00    +0.134 C 
ATOM     26  C   UNL     1     -17.511   4.109  22.709  0.00  0.00    +0.178 C 
ATOM     27  C   UNL     1     -15.858   3.513  24.264  0.00  0.00    +0.178 C 
ENDBRANCH  23   7
ENDBRANCH   9  14
BRANCH  10   1
ATOM      1  O   UNL     1     -12.818   8.276  16.604  0.00  0.00    -0.388 OA
ATOM     29  H   UNL     1     -13.279   7.775  17.297  0.00  0.00    +0.210 HD
ENDBRANCH  10   1
BRANCH  12   2
ATOM      2  O   UNL     1     -10.232   7.472  16.016  0.00  0.00    -0.389 OA
ATOM     30  H   UNL     1     -10.805   7.890  15.352  0.00  0.00    +0.210 HD
ENDBRANCH  12   2
BRANCH   8   4
ATOM      4  N   UNL     1     -11.451  10.399  19.206  0.00  0.00    -0.307 NA
ATOM     28  H   UNL     1     -11.115  10.965  18.428  0.00  0.00    +0.123 HD
BRANCH   4  13
ATOM      5  N   UNL     1     -14.641  11.266  21.877  0.00  0.00    -0.305 NA
ATOM     13  C   UNL     1     -12.388  11.178  20.012  0.00  0.00    +0.056 C 
ATOM     15  C   UNL     1     -13.831  10.936  19.561  0.00  0.00    +0.034 C 
ATOM     16  C   UNL     1     -12.237  10.821  21.493  0.00  0.00    +0.034 C 
ATOM     17  C   UNL     1     -14.820  11.665  20.475  0.00  0.00    +0.085 C 
ATOM     18  C   UNL     1     -13.277  11.555  22.343  0.00  0.00    +0.085 C 
ATOM     21  C   UNL     1     -15.625  11.932  22.729  0.00  0.00    +0.104 C 
ENDBRANCH   4  13
ENDBRANCH   8   4
TORSDOF 6
ENDMDL
MODEL 8
REMARK VINA RESULT:      -6.4     14.495     17.473
REMARK  Name = 86768988
REMARK  7 active torsions:
REMARK  status: ('A' for Active; 'I' for Inactive)
REMARK    1  A    between atoms: O_1  and  C_10
REMARK    2  A    between atoms: O_2  and  C_12
REMARK    3  A    between atoms: N_4  and  C_8
REMARK    4  A    between atoms: N_4  and  C_13
REMARK    5  A    between atoms: N_5  and  C_21
REMARK    6  A    between atoms: N_7  and  C_23
REMARK    7  A    between atoms: C_9  and  C_14
REMARK                            x       y       z     vdW  Elec       q    Type
REMARK                         _______ _______ _______ _____ _____    ______ ____
ROOT
ATOM      8  C   UNL     1      10.526   6.700   6.483  0.00  0.00    +0.092 C 
ATOM      9  C   UNL     1      10.011   5.571   5.537  0.00  0.00    +0.042 C 
ATOM     10  C   UNL     1      10.721   6.022   7.849  0.00  0.00    +0.160 C 
ATOM     11  C   UNL     1       9.918   4.303   6.408  0.00  0.00    +0.043 C 
ATOM     12  C   UNL     1       9.747   4.848   7.819  0.00  0.00    +0.145 C 
ENDROOT
BRANCH   9  14
ATOM      6  N   UNL     1      11.485   3.976   2.428  0.00  0.00    -0.240 NA
ATOM     14  C   UNL     1      10.850   5.379   4.292  0.00  0.00    -0.024 A 
ATOM     19  C   UNL     1      11.731   6.364   3.861  0.00  0.00    +0.009 A 
ATOM     20  C   UNL     1      10.765   4.214   3.546  0.00  0.00    +0.116 A 
ATOM     22  C   UNL     1      12.489   6.158   2.714  0.00  0.00    +0.044 A 
ATOM     23  C   UNL     1      12.330   4.957   2.039  0.00  0.00    +0.121 A 
BRANCH  23   7
ATOM      3  O   UNL     1      14.791   4.183  -1.281  0.00  0.00    -0.377 OA
ATOM      7  N   UNL     1      13.101   4.763   0.887  0.00  0.00    -0.311 N 
ATOM     24  C   UNL     1      13.024   3.459   0.213  0.00  0.00    +0.134 C 
ATOM     25  C   UNL     1      14.375   5.473   0.731  0.00  0.00    +0.134 C 
ATOM     26  C   UNL     1      13.490   3.599  -1.231  0.00  0.00    +0.178 C 
ATOM     27  C   UNL     1      14.770   5.504  -0.741  0.00  0.00    +0.178 C 
ENDBRANCH  23   7
ENDBRANCH   9  14
BRANCH  10   1
ATOM      1  O   UNL     1      12.068   5.560   7.934  0.00  0.00    -0.388 OA
ATOM     29  H   UNL     1      12.628   6.210   7.477  0.00  0.00    +0.210 HD
ENDBRANCH  10   1
BRANCH  12   2
ATOM      2  O   UNL     1      10.048   3.867   8.791  0.00  0.00    -0.389 OA
ATOM     30  H   UNL     1       9.614   4.133   9.619  0.00  0.00    +0.210 HD
ENDBRANCH  12   2
BRANCH   8   4
ATOM      4  N   UNL     1       9.512   7.751   6.589  0.00  0.00    -0.307 NA
ATOM     28  H   UNL     1       8.882   7.560   7.367  0.00  0.00    +0.123 HD
BRANCH   4  13
ATOM      5  N   UNL     1      12.056  10.760   8.185  0.00  0.00    -0.305 NA
ATOM     13  C   UNL     1      10.137   9.059   6.774  0.00  0.00    +0.056 C 
ATOM     15  C   UNL     1       9.868   9.602   8.180  0.00  0.00    +0.034 C 
ATOM     16  C   UNL     1      11.646   8.964   6.531  0.00  0.00    +0.034 C 
ATOM     17  C   UNL     1      10.613  10.919   8.411  0.00  0.00    +0.085 C 
ATOM     18  C   UNL     1      12.333  10.303   6.815  0.00  0.00    +0.085 C 
ATOM     21  C   UNL     1      12.759  12.012   8.458  0.00  0.00    +0.104 C 
ENDBRANCH   4  13
ENDBRANCH   8   4
TORSDOF 6
ENDMDL
MODEL 9
REMARK VINA RESULT:      -6.3      4.593      8.220
REMARK  Name = 86768988
REMARK  7 active torsions:
REMARK  status: ('A' for Active; 'I' for Inactive)
REMARK    1  A    between atoms: O_1  and  C_10
REMARK    2  A    between atoms: O_2  and  C_12
REMARK    3  A    between atoms: N_4  and  C_8
REMARK    4  A    between atoms: N_4  and  C_13
REMARK    5  A    between atoms: N_5  and  C_21
REMARK    6  A    between atoms: N_7  and  C_23
REMARK    7  A    between atoms: C_9  and  C_14
REMARK                            x       y       z     vdW  Elec       q    Type
REMARK                         _______ _______ _______ _____ _____    ______ ____
ROOT
ATOM      8  C   UNL     1      13.024   9.378  19.019  0.00  0.00    +0.092 C 
ATOM      9  C   UNL     1      13.428   9.092  20.499  0.00  0.00    +0.042 C 
ATOM     10  C   UNL     1      12.263   8.123  18.562  0.00  0.00    +0.160 C 
ATOM     11  C   UNL     1      12.896   7.681  20.815  0.00  0.00    +0.043 C 
ATOM     12  C   UNL     1      12.816   7.012  19.450  0.00  0.00    +0.145 C 
ENDROOT
BRANCH   9  14
ATOM      6  N   UNL     1      13.354  11.402  23.507  0.00  0.00    -0.240 NA
ATOM     14  C   UNL     1      12.955  10.141  21.481  0.00  0.00    -0.024 A 
ATOM     19  C   UNL     1      11.743  10.798  21.302  0.00  0.00    +0.009 A 
ATOM     20  C   UNL     1      13.717  10.477  22.590  0.00  0.00    +0.116 A 
ATOM     22  C   UNL     1      11.334  11.757  22.223  0.00  0.00    +0.044 A 
ATOM     23  C   UNL     1      12.169  12.019  23.299  0.00  0.00    +0.121 A 
BRANCH  23   7
ATOM      3  O   UNL     1      10.782  14.717  26.210  0.00  0.00    -0.377 OA
ATOM      7  N   UNL     1      11.745  12.985  24.218  0.00  0.00    -0.311 N 
ATOM     24  C   UNL     1      12.331  12.966  25.564  0.00  0.00    +0.134 C 
ATOM     25  C   UNL     1      10.382  13.523  24.136  0.00  0.00    +0.134 C 
ATOM     26  C   UNL     1      12.156  14.331  26.221  0.00  0.00    +0.178 C 
ATOM     27  C   UNL     1      10.310  14.857  24.871  0.00  0.00    +0.178 C 
ENDBRANCH  23   7
ENDBRANCH   9  14
BRANCH  10   1
ATOM      1  O   UNL     1      10.873   8.324  18.810  0.00  0.00    -0.388 OA
ATOM     29  H   UNL     1      10.477   8.663  17.989  0.00  0.00    +0.210 HD
ENDBRANCH  10   1
BRANCH  12   2
ATOM      2  O   UNL     1      11.980   5.874  19.481  0.00  0.00    -0.389 OA
ATOM     30  H   UNL     1      12.537   5.108  19.696  0.00  0.00    +0.210 HD
ENDBRANCH  12   2
BRANCH   8   4
ATOM      4  N   UNL     1      14.230   9.553  18.207  0.00  0.00    -0.307 NA
ATOM     28  H   UNL     1      14.417   8.712  17.663  0.00  0.00    +0.123 HD
BRANCH   4  13
ATOM      5  N   UNL     1      15.132  12.315  15.105  0.00  0.00    -0.305 NA
ATOM     13  C   UNL     1      14.090  10.697  17.310  0.00  0.00    +0.056 C 
ATOM     15  C   UNL     1      15.244  11.686  17.497  0.00  0.00    +0.034 C 
ATOM     16  C   UNL     1      14.037  10.226  15.854  0.00  0.00    +0.034 C 
ATOM     17  C   UNL     1      15.157  12.829  16.481  0.00  0.00    +0.085 C 
ATOM     18  C   UNL     1      13.988  11.416  14.893  0.00  0.00    +0.085 C 
ATOM     21  C   UNL     1      15.099  13.419  14.147  0.00  0.00    +0.104 C 
ENDBRANCH   4  13
ENDBRANCH   8   4
TORSDOF 6
ENDMDL
MODEL 10
REMARK VINA RESULT:      -6.3      3.266      7.832
REMARK  Name = 86768988
REMARK  7 active torsions:
REMARK  status: ('A' for Active; 'I' for Inactive)
REMARK    1  A    between atoms: O_1  and  C_10
REMARK    2  A    between atoms: O_2  and  C_12
REMARK    3  A    between atoms: N_4  and  C_8
REMARK    4  A    between atoms: N_4  and  C_13
REMARK    5  A    between atoms: N_5  and  C_21
REMARK    6  A    between atoms: N_7  and  C_23
REMARK    7  A    between atoms: C_9  and  C_14
REMARK                            x       y       z     vdW  Elec       q    Type
REMARK                         _______ _______ _______ _____ _____    ______ ____
ROOT
ATOM      8  C   UNL     1      19.866   6.809  21.835  0.00  0.00    +0.092 C 
ATOM      9  C   UNL     1      18.851   5.847  21.143  0.00  0.00    +0.042 C 
ATOM     10  C   UNL     1      21.225   6.487  21.191  0.00  0.00    +0.160 C 
ATOM     11  C   UNL     1      19.676   5.008  20.149  0.00  0.00    +0.043 C 
ATOM     12  C   UNL     1      21.082   5.039  20.732  0.00  0.00    +0.145 C 
ENDROOT
BRANCH   9  14
ATOM      6  N   UNL     1      16.263   8.509  20.363  0.00  0.00    -0.240 NA
ATOM     14  C   UNL     1      17.677   6.551  20.498  0.00  0.00    -0.024 A 
ATOM     19  C   UNL     1      16.939   5.940  19.490  0.00  0.00    +0.009 A 
ATOM     20  C   UNL     1      17.301   7.825  20.895  0.00  0.00    +0.116 A 
ATOM     22  C   UNL     1      15.864   6.612  18.917  0.00  0.00    +0.044 A 
ATOM     23  C   UNL     1      15.570   7.883  19.386  0.00  0.00    +0.121 A 
BRANCH  23   7
ATOM      3  O   UNL     1      12.412   9.802  17.380  0.00  0.00    -0.377 OA
ATOM      7  N   UNL     1      14.486   8.546  18.801  0.00  0.00    -0.311 N 
ATOM     24  C   UNL     1      13.497   7.745  18.067  0.00  0.00    +0.134 C 
ATOM     25  C   UNL     1      14.639   9.929  18.337  0.00  0.00    +0.134 C 
ATOM     26  C   UNL     1      12.187   8.517  17.959  0.00  0.00    +0.178 C 
ATOM     27  C   UNL     1      13.268  10.585  18.212  0.00  0.00    +0.178 C 
ENDBRANCH  23   7
ENDBRANCH   9  14
BRANCH  10   1
ATOM      1  O   UNL     1      21.411   7.356  20.075  0.00  0.00    -0.388 OA
ATOM     29  H   UNL     1      20.924   8.176  20.260  0.00  0.00    +0.210 HD
ENDBRANCH  10   1
BRANCH  12   2
ATOM      2  O   UNL     1      22.049   4.676  19.768  0.00  0.00    -0.389 OA
ATOM     30  H   UNL     1      21.871   5.197  18.966  0.00  0.00    +0.210 HD
ENDBRANCH  12   2
BRANCH   8   4
ATOM      4  N   UNL     1      19.914   6.521  23.270  0.00  0.00    -0.307 NA
ATOM     28  H   UNL     1      20.384   5.632  23.438  0.00  0.00    +0.123 HD
BRANCH   4  13
ATOM      5  N   UNL     1      20.509   9.891  25.791  0.00  0.00    -0.305 NA
ATOM     13  C   UNL     1      20.608   7.586  23.990  0.00  0.00    +0.056 C 
ATOM     15  C   UNL     1      20.126   8.964  23.528  0.00  0.00    +0.034 C 
ATOM     16  C   UNL     1      20.389   7.436  25.498  0.00  0.00    +0.034 C 
ATOM     17  C   UNL     1      20.771  10.078  24.357  0.00  0.00    +0.085 C 
ATOM     18  C   UNL     1      21.027   8.599  26.263  0.00  0.00    +0.085 C 
ATOM     21  C   UNL     1      21.088  10.988  26.565  0.00  0.00    +0.104 C 
ENDBRANCH   4  13
ENDBRANCH   8   4
TORSDOF 6
ENDMDL
