MODEL 1
REMARK VINA RESULT:      -7.9      0.000      0.000
REMARK  Name = 75536262
REMARK  9 active torsions:
REMARK  status: ('A' for Active; 'I' for Inactive)
REMARK    1  A    between atoms: O_3  and  C_9
REMARK    2  A    between atoms: O_5  and  C_21
REMARK    3  A    between atoms: N_6  and  C_13
REMARK    4  A    between atoms: N_6  and  C_16
REMARK    5  A    between atoms: C_8  and  C_13
REMARK    6  A    between atoms: C_10  and  C_14
REMARK    7  A    between atoms: C_14  and  C_15
REMARK    8  A    between atoms: C_16  and  C_18
REMARK    9  A    between atoms: C_19  and  C_20
REMARK                            x       y       z     vdW  Elec       q    Type
REMARK                         _______ _______ _______ _____ _____    ______ ____
ROOT
ATOM      2  O   UNL     1      10.684   8.139  19.994  0.00  0.00    -0.369 OA
ATOM      8  C   UNL     1      10.976   7.721  21.334  0.00  0.00    +0.161 C 
ATOM      9  C   UNL     1      11.837   6.452  21.348  0.00  0.00    +0.145 C 
ATOM     10  C   UNL     1      11.826   8.346  19.159  0.00  0.00    +0.125 C 
ATOM     11  C   UNL     1      13.054   6.566  20.435  0.00  0.00    +0.036 C 
ATOM     12  C   UNL     1      12.653   7.066  19.050  0.00  0.00    +0.034 C 
ENDROOT
BRANCH   9   3
ATOM      3  O   UNL     1      11.046   5.354  20.887  0.00  0.00    -0.389 OA
ATOM     32  H   UNL     1      11.597   4.831  20.280  0.00  0.00    +0.210 HD
ENDBRANCH   9   3
BRANCH   8  13
ATOM     13  C   UNL     1      11.582   8.865  22.146  0.00  0.00    +0.115 C 
BRANCH  13   6
ATOM      6  N   UNL     1      10.657   9.983  22.240  0.00  0.00    -0.309 NA
ATOM     31  H   UNL     1       9.929   9.877  21.534  0.00  0.00    +0.122 HD
BRANCH   6  16
ATOM     16  C   UNL     1      11.349  11.251  22.048  0.00  0.00    +0.120 C 
BRANCH  16  18
ATOM     18  C   UNL     1      10.972  12.260  23.100  0.00  0.00    +0.008 A 
ATOM     21  C   UNL     1      11.082  11.951  24.456  0.00  0.00    +0.121 A 
ATOM     22  C   UNL     1      10.510  13.516  22.706  0.00  0.00    +0.008 A 
ATOM     23  C   UNL     1      10.728  12.897  25.417  0.00  0.00    +0.046 A 
ATOM     24  C   UNL     1      10.157  14.462  23.668  0.00  0.00    +0.001 A 
ATOM     27  C   UNL     1      10.267  14.153  25.024  0.00  0.00    +0.004 A 
BRANCH  21   5
ATOM      5  O   UNL     1      11.531  10.729  24.858  0.00  0.00    -0.506 OA
ATOM     33  H   UNL     1      11.069  10.039  24.352  0.00  0.00    +0.292 HD
ENDBRANCH  21   5
ENDBRANCH  16  18
ENDBRANCH   6  16
ENDBRANCH  13   6
ENDBRANCH   8  13
BRANCH  10  14
ATOM     14  C   UNL     1      11.320   8.783  17.789  0.00  0.00    +0.090 C 
BRANCH  14  15
ATOM      4  O   UNL     1      13.686   9.568  15.187  0.00  0.00    -0.354 OA
ATOM      7  N   UNL     1      12.593   8.870  15.685  0.00  0.00    -0.083 NA
ATOM     15  C   UNL     1      12.431   9.325  16.931  0.00  0.00    +0.087 A 
ATOM     17  C   UNL     1      13.383  10.302  17.271  0.00  0.00    +0.076 A 
ATOM     19  C   UNL     1      14.148  10.417  16.141  0.00  0.00    +0.167 A 
BRANCH  19  20
ATOM      1  F   UNL     1      18.544  13.506  14.700  0.00  0.00    -0.205 F 
ATOM     20  C   UNL     1      15.281  11.214  15.769  0.00  0.00    +0.020 A 
ATOM     25  C   UNL     1      15.809  11.117  14.481  0.00  0.00    +0.014 A 
ATOM     26  C   UNL     1      15.854  12.085  16.695  0.00  0.00    +0.014 A 
ATOM     28  C   UNL     1      16.911  11.892  14.121  0.00  0.00    +0.039 A 
ATOM     29  C   UNL     1      16.957  12.859  16.334  0.00  0.00    +0.039 A 
ATOM     30  C   UNL     1      17.486  12.763  15.047  0.00  0.00    +0.123 A 
ENDBRANCH  19  20
ENDBRANCH  14  15
ENDBRANCH  10  14
TORSDOF 9
ENDMDL
MODEL 2
REMARK VINA RESULT:      -7.8      2.089      3.113
REMARK  Name = 75536262
REMARK  9 active torsions:
REMARK  status: ('A' for Active; 'I' for Inactive)
REMARK    1  A    between atoms: O_3  and  C_9
REMARK    2  A    between atoms: O_5  and  C_21
REMARK    3  A    between atoms: N_6  and  C_13
REMARK    4  A    between atoms: N_6  and  C_16
REMARK    5  A    between atoms: C_8  and  C_13
REMARK    6  A    between atoms: C_10  and  C_14
REMARK    7  A    between atoms: C_14  and  C_15
REMARK    8  A    between atoms: C_16  and  C_18
REMARK    9  A    between atoms: C_19  and  C_20
REMARK                            x       y       z     vdW  Elec       q    Type
REMARK                         _______ _______ _______ _____ _____    ______ ____
ROOT
ATOM      2  O   UNL     1      10.576   8.229  19.541  0.00  0.00    -0.369 OA
ATOM      8  C   UNL     1      10.716   8.062  20.958  0.00  0.00    +0.161 C 
ATOM      9  C   UNL     1      11.678   6.915  21.293  0.00  0.00    +0.145 C 
ATOM     10  C   UNL     1      11.799   8.429  18.827  0.00  0.00    +0.125 C 
ATOM     11  C   UNL     1      12.994   7.019  20.528  0.00  0.00    +0.036 C 
ATOM     12  C   UNL     1      12.745   7.247  19.040  0.00  0.00    +0.034 C 
ENDROOT
BRANCH   9   3
ATOM      3  O   UNL     1      11.061   5.676  20.933  0.00  0.00    -0.389 OA
ATOM     32  H   UNL     1      10.846   5.206  21.757  0.00  0.00    +0.210 HD
ENDBRANCH   9   3
BRANCH   8  13
ATOM     13  C   UNL     1      11.099   9.379  21.631  0.00  0.00    +0.115 C 
BRANCH  13   6
ATOM      6  N   UNL     1      12.095   9.162  22.668  0.00  0.00    -0.309 NA
ATOM     31  H   UNL     1      11.626   8.890  23.532  0.00  0.00    +0.122 HD
BRANCH   6  16
ATOM     16  C   UNL     1      12.886  10.364  22.894  0.00  0.00    +0.120 C 
BRANCH  16  18
ATOM     18  C   UNL     1      14.030  10.474  21.922  0.00  0.00    +0.008 A 
ATOM     21  C   UNL     1      15.075   9.549  21.944  0.00  0.00    +0.121 A 
ATOM     22  C   UNL     1      14.038  11.513  20.991  0.00  0.00    +0.008 A 
ATOM     23  C   UNL     1      16.128   9.665  21.036  0.00  0.00    +0.046 A 
ATOM     24  C   UNL     1      15.091  11.628  20.084  0.00  0.00    +0.001 A 
ATOM     27  C   UNL     1      16.136  10.703  20.106  0.00  0.00    +0.004 A 
BRANCH  21   5
ATOM      5  O   UNL     1      15.082   8.528  22.846  0.00  0.00    -0.506 OA
ATOM     33  H   UNL     1      14.193   8.137  22.891  0.00  0.00    +0.292 HD
ENDBRANCH  21   5
ENDBRANCH  16  18
ENDBRANCH   6  16
ENDBRANCH  13   6
ENDBRANCH   8  13
BRANCH  10  14
ATOM     14  C   UNL     1      11.450   8.585  17.353  0.00  0.00    +0.090 C 
BRANCH  14  15
ATOM      4  O   UNL     1      13.787   9.801  14.894  0.00  0.00    -0.354 OA
ATOM      7  N   UNL     1      12.693   9.036  15.277  0.00  0.00    -0.083 NA
ATOM     15  C   UNL     1      12.555   9.262  16.587  0.00  0.00    +0.087 A 
ATOM     17  C   UNL     1      13.524  10.152  17.080  0.00  0.00    +0.076 A 
ATOM     19  C   UNL     1      14.273  10.461  15.976  0.00  0.00    +0.167 A 
BRANCH  19  20
ATOM      1  F   UNL     1      18.685  13.717  15.036  0.00  0.00    -0.205 F 
ATOM     20  C   UNL     1      15.411  11.301  15.734  0.00  0.00    +0.020 A 
ATOM     25  C   UNL     1      15.775  12.269  16.670  0.00  0.00    +0.014 A 
ATOM     26  C   UNL     1      16.154  11.147  14.564  0.00  0.00    +0.014 A 
ATOM     28  C   UNL     1      16.881  13.085  16.434  0.00  0.00    +0.039 A 
ATOM     29  C   UNL     1      17.260  11.964  14.328  0.00  0.00    +0.039 A 
ATOM     30  C   UNL     1      17.623  12.934  15.262  0.00  0.00    +0.123 A 
ENDBRANCH  19  20
ENDBRANCH  14  15
ENDBRANCH  10  14
TORSDOF 9
ENDMDL
MODEL 3
REMARK VINA RESULT:      -7.6     27.991     31.006
REMARK  Name = 75536262
REMARK  9 active torsions:
REMARK  status: ('A' for Active; 'I' for Inactive)
REMARK    1  A    between atoms: O_3  and  C_9
REMARK    2  A    between atoms: O_5  and  C_21
REMARK    3  A    between atoms: N_6  and  C_13
REMARK    4  A    between atoms: N_6  and  C_16
REMARK    5  A    between atoms: C_8  and  C_13
REMARK    6  A    between atoms: C_10  and  C_14
REMARK    7  A    between atoms: C_14  and  C_15
REMARK    8  A    between atoms: C_16  and  C_18
REMARK    9  A    between atoms: C_19  and  C_20
REMARK                            x       y       z     vdW  Elec       q    Type
REMARK                         _______ _______ _______ _____ _____    ______ ____
ROOT
ATOM      2  O   UNL     1     -16.408   1.932  25.265  0.00  0.00    -0.369 OA
ATOM      8  C   UNL     1     -16.234   2.920  24.242  0.00  0.00    +0.161 C 
ATOM      9  C   UNL     1     -17.331   2.816  23.174  0.00  0.00    +0.145 C 
ATOM     10  C   UNL     1     -17.683   1.942  25.912  0.00  0.00    +0.125 C 
ATOM     11  C   UNL     1     -18.730   2.764  23.782  0.00  0.00    +0.036 C 
ATOM     12  C   UNL     1     -18.803   1.723  24.895  0.00  0.00    +0.034 C 
ENDROOT
BRANCH   9   3
ATOM      3  O   UNL     1     -17.133   1.613  22.427  0.00  0.00    -0.389 OA
ATOM     32  H   UNL     1     -17.598   1.716  21.579  0.00  0.00    +0.210 HD
ENDBRANCH   9   3
BRANCH   8  13
ATOM     13  C   UNL     1     -16.116   4.320  24.843  0.00  0.00    +0.115 C 
BRANCH  13   6
ATOM      6  N   UNL     1     -15.006   5.048  24.250  0.00  0.00    -0.309 NA
ATOM     31  H   UNL     1     -14.519   5.570  24.978  0.00  0.00    +0.122 HD
BRANCH   6  16
ATOM     16  C   UNL     1     -15.473   5.962  23.216  0.00  0.00    +0.120 C 
BRANCH  16  18
ATOM     18  C   UNL     1     -14.333   6.525  22.408  0.00  0.00    +0.008 A 
ATOM     21  C   UNL     1     -13.374   5.682  21.845  0.00  0.00    +0.121 A 
ATOM     22  C   UNL     1     -14.243   7.905  22.226  0.00  0.00    +0.008 A 
ATOM     23  C   UNL     1     -12.325   6.221  21.100  0.00  0.00    +0.046 A 
ATOM     24  C   UNL     1     -13.193   8.442  21.481  0.00  0.00    +0.001 A 
ATOM     27  C   UNL     1     -12.235   7.600  20.917  0.00  0.00    +0.004 A 
BRANCH  21   5
ATOM      5  O   UNL     1     -13.448   4.333  22.014  0.00  0.00    -0.506 OA
ATOM     33  H   UNL     1     -12.878   3.899  21.356  0.00  0.00    +0.292 HD
ENDBRANCH  21   5
ENDBRANCH  16  18
ENDBRANCH   6  16
ENDBRANCH  13   6
ENDBRANCH   8  13
BRANCH  10  14
ATOM     14  C   UNL     1     -17.676   0.834  26.958  0.00  0.00    +0.090 C 
BRANCH  14  15
ATOM      4  O   UNL     1     -15.078   0.980  29.451  0.00  0.00    -0.354 OA
ATOM      7  N   UNL     1     -15.681   0.412  28.337  0.00  0.00    -0.083 NA
ATOM     15  C   UNL     1     -16.764   1.162  28.110  0.00  0.00    +0.087 A 
ATOM     17  C   UNL     1     -16.893   2.207  29.040  0.00  0.00    +0.076 A 
ATOM     19  C   UNL     1     -15.809   2.048  29.861  0.00  0.00    +0.167 A 
BRANCH  19  20
ATOM      1  F   UNL     1     -13.853   4.748  34.315  0.00  0.00    -0.205 F 
ATOM     20  C   UNL     1     -15.304   2.744  31.010  0.00  0.00    +0.020 A 
ATOM     25  C   UNL     1     -15.029   2.044  32.184  0.00  0.00    +0.014 A 
ATOM     26  C   UNL     1     -15.088   4.121  30.951  0.00  0.00    +0.014 A 
ATOM     28  C   UNL     1     -14.538   2.721  33.300  0.00  0.00    +0.039 A 
ATOM     29  C   UNL     1     -14.598   4.797  32.068  0.00  0.00    +0.039 A 
ATOM     30  C   UNL     1     -14.324   4.098  33.243  0.00  0.00    +0.123 A 
ENDBRANCH  19  20
ENDBRANCH  14  15
ENDBRANCH  10  14
TORSDOF 9
ENDMDL
MODEL 4
REMARK VINA RESULT:      -7.5      4.661      5.694
REMARK  Name = 75536262
REMARK  9 active torsions:
REMARK  status: ('A' for Active; 'I' for Inactive)
REMARK    1  A    between atoms: O_3  and  C_9
REMARK    2  A    between atoms: O_5  and  C_21
REMARK    3  A    between atoms: N_6  and  C_13
REMARK    4  A    between atoms: N_6  and  C_16
REMARK    5  A    between atoms: C_8  and  C_13
REMARK    6  A    between atoms: C_10  and  C_14
REMARK    7  A    between atoms: C_14  and  C_15
REMARK    8  A    between atoms: C_16  and  C_18
REMARK    9  A    between atoms: C_19  and  C_20
REMARK                            x       y       z     vdW  Elec       q    Type
REMARK                         _______ _______ _______ _____ _____    ______ ____
ROOT
ATOM      2  O   UNL     1      13.227   9.055  19.721  0.00  0.00    -0.369 OA
ATOM      8  C   UNL     1      12.327   9.454  20.763  0.00  0.00    +0.161 C 
ATOM      9  C   UNL     1      11.287   8.364  21.051  0.00  0.00    +0.145 C 
ATOM     10  C   UNL     1      13.906   7.817  19.945  0.00  0.00    +0.125 C 
ATOM     11  C   UNL     1      11.924   6.992  21.247  0.00  0.00    +0.036 C 
ATOM     12  C   UNL     1      12.903   6.677  20.120  0.00  0.00    +0.034 C 
ENDROOT
BRANCH   9   3
ATOM      3  O   UNL     1      10.393   8.276  19.938  0.00  0.00    -0.389 OA
ATOM     32  H   UNL     1       9.634   8.854  20.126  0.00  0.00    +0.210 HD
ENDBRANCH   9   3
BRANCH   8  13
ATOM     13  C   UNL     1      13.091   9.895  22.010  0.00  0.00    +0.115 C 
BRANCH  13   6
ATOM      6  N   UNL     1      12.180  10.151  23.115  0.00  0.00    -0.309 NA
ATOM     31  H   UNL     1      11.827   9.263  23.472  0.00  0.00    +0.122 HD
BRANCH   6  16
ATOM     16  C   UNL     1      11.066  10.989  22.690  0.00  0.00    +0.120 C 
BRANCH  16  18
ATOM     18  C   UNL     1      10.886  12.182  23.591  0.00  0.00    +0.008 A 
ATOM     21  C   UNL     1      10.953  12.044  24.977  0.00  0.00    +0.121 A 
ATOM     22  C   UNL     1      10.652  13.435  23.025  0.00  0.00    +0.008 A 
ATOM     23  C   UNL     1      10.783  13.159  25.798  0.00  0.00    +0.046 A 
ATOM     24  C   UNL     1      10.483  14.550  23.846  0.00  0.00    +0.001 A 
ATOM     27  C   UNL     1      10.549  14.412  25.232  0.00  0.00    +0.004 A 
BRANCH  21   5
ATOM      5  O   UNL     1      11.181  10.827  25.546  0.00  0.00    -0.506 OA
ATOM     33  H   UNL     1      11.565  10.957  26.430  0.00  0.00    +0.292 HD
ENDBRANCH  21   5
ENDBRANCH  16  18
ENDBRANCH   6  16
ENDBRANCH  13   6
ENDBRANCH   8  13
BRANCH  10  14
ATOM     14  C   UNL     1      14.808   7.565  18.743  0.00  0.00    +0.090 C 
BRANCH  14  15
ATOM      4  O   UNL     1      17.692   5.432  19.089  0.00  0.00    -0.354 OA
ATOM      7  N   UNL     1      16.504   5.801  18.473  0.00  0.00    -0.083 NA
ATOM     15  C   UNL     1      16.089   6.881  19.141  0.00  0.00    +0.087 A 
ATOM     17  C   UNL     1      16.967   7.236  20.179  0.00  0.00    +0.076 A 
ATOM     19  C   UNL     1      17.958   6.294  20.104  0.00  0.00    +0.167 A 
BRANCH  19  20
ATOM      1  F   UNL     1      22.638   5.309  22.945  0.00  0.00    -0.205 F 
ATOM     20  C   UNL     1      19.164   6.040  20.837  0.00  0.00    +0.020 A 
ATOM     25  C   UNL     1      19.399   6.699  22.043  0.00  0.00    +0.014 A 
ATOM     26  C   UNL     1      20.102   5.132  20.343  0.00  0.00    +0.014 A 
ATOM     28  C   UNL     1      20.573   6.452  22.755  0.00  0.00    +0.039 A 
ATOM     29  C   UNL     1      21.275   4.886  21.056  0.00  0.00    +0.039 A 
ATOM     30  C   UNL     1      21.512   5.546  22.261  0.00  0.00    +0.123 A 
ENDBRANCH  19  20
ENDBRANCH  14  15
ENDBRANCH  10  14
TORSDOF 9
ENDMDL
MODEL 5
REMARK VINA RESULT:      -7.1     28.425     30.599
REMARK  Name = 75536262
REMARK  9 active torsions:
REMARK  status: ('A' for Active; 'I' for Inactive)
REMARK    1  A    between atoms: O_3  and  C_9
REMARK    2  A    between atoms: O_5  and  C_21
REMARK    3  A    between atoms: N_6  and  C_13
REMARK    4  A    between atoms: N_6  and  C_16
REMARK    5  A    between atoms: C_8  and  C_13
REMARK    6  A    between atoms: C_10  and  C_14
REMARK    7  A    between atoms: C_14  and  C_15
REMARK    8  A    between atoms: C_16  and  C_18
REMARK    9  A    between atoms: C_19  and  C_20
REMARK                            x       y       z     vdW  Elec       q    Type
REMARK                         _______ _______ _______ _____ _____    ______ ____
ROOT
ATOM      2  O   UNL     1      -6.567 -11.720  17.484  0.00  0.00    -0.369 OA
ATOM      8  C   UNL     1      -6.036 -12.221  18.717  0.00  0.00    +0.161 C 
ATOM      9  C   UNL     1      -4.548 -12.571  18.583  0.00  0.00    +0.145 C 
ATOM     10  C   UNL     1      -5.876 -10.595  16.935  0.00  0.00    +0.125 C 
ATOM     11  C   UNL     1      -3.741 -11.442  17.951  0.00  0.00    +0.036 C 
ATOM     12  C   UNL     1      -4.410 -10.939  16.675  0.00  0.00    +0.034 C 
ENDROOT
BRANCH   9   3
ATOM      3  O   UNL     1      -4.420 -13.722  17.744  0.00  0.00    -0.389 OA
ATOM     32  H   UNL     1      -3.692 -14.262  18.097  0.00  0.00    +0.210 HD
ENDBRANCH   9   3
BRANCH   8  13
ATOM     13  C   UNL     1      -6.322 -11.260  19.870  0.00  0.00    +0.115 C 
BRANCH  13   6
ATOM      6  N   UNL     1      -7.667 -10.715  19.769  0.00  0.00    -0.309 NA
ATOM     31  H   UNL     1      -7.862 -10.148  20.594  0.00  0.00    +0.122 HD
BRANCH   6  16
ATOM     16  C   UNL     1      -8.655 -11.779  19.657  0.00  0.00    +0.120 C 
BRANCH  16  18
ATOM     18  C   UNL     1      -9.946 -11.286  19.059  0.00  0.00    +0.008 A 
ATOM     21  C   UNL     1     -10.734 -10.355  19.735  0.00  0.00    +0.121 A 
ATOM     22  C   UNL     1     -10.349 -11.769  17.813  0.00  0.00    +0.008 A 
ATOM     23  C   UNL     1     -11.927  -9.908  19.167  0.00  0.00    +0.046 A 
ATOM     24  C   UNL     1     -11.542 -11.321  17.246  0.00  0.00    +0.001 A 
ATOM     27  C   UNL     1     -12.331 -10.391  17.922  0.00  0.00    +0.004 A 
BRANCH  21   5
ATOM      5  O   UNL     1     -10.355  -9.873  20.951  0.00  0.00    -0.506 OA
ATOM     33  H   UNL     1     -11.042 -10.086  21.606  0.00  0.00    +0.292 HD
ENDBRANCH  21   5
ENDBRANCH  16  18
ENDBRANCH   6  16
ENDBRANCH  13   6
ENDBRANCH   8  13
BRANCH  10  14
ATOM     14  C   UNL     1      -6.581 -10.210  15.640  0.00  0.00    +0.090 C 
BRANCH  14  15
ATOM      4  O   UNL     1      -9.343  -8.339  17.003  0.00  0.00    -0.354 OA
ATOM      7  N   UNL     1      -8.088  -8.926  17.102  0.00  0.00    -0.083 NA
ATOM     15  C   UNL     1      -7.867  -9.474  15.904  0.00  0.00    +0.087 A 
ATOM     17  C   UNL     1      -8.937  -9.266  15.016  0.00  0.00    +0.076 A 
ATOM     19  C   UNL     1      -9.838  -8.548  15.756  0.00  0.00    +0.167 A 
BRANCH  19  20
ATOM      1  F   UNL     1     -14.871  -6.395  14.764  0.00  0.00    -0.205 F 
ATOM     20  C   UNL     1     -11.136  -7.992  15.500  0.00  0.00    +0.020 A 
ATOM     25  C   UNL     1     -11.539  -6.830  16.158  0.00  0.00    +0.014 A 
ATOM     26  C   UNL     1     -11.993  -8.614  14.593  0.00  0.00    +0.014 A 
ATOM     28  C   UNL     1     -12.801  -6.291  15.909  0.00  0.00    +0.039 A 
ATOM     29  C   UNL     1     -13.256  -8.074  14.345  0.00  0.00    +0.039 A 
ATOM     30  C   UNL     1     -13.660  -6.913  15.003  0.00  0.00    +0.123 A 
ENDBRANCH  19  20
ENDBRANCH  14  15
ENDBRANCH  10  14
TORSDOF 9
ENDMDL
MODEL 6
REMARK VINA RESULT:      -7.1     17.041     20.691
REMARK  Name = 75536262
REMARK  9 active torsions:
REMARK  status: ('A' for Active; 'I' for Inactive)
REMARK    1  A    between atoms: O_3  and  C_9
REMARK    2  A    between atoms: O_5  and  C_21
REMARK    3  A    between atoms: N_6  and  C_13
REMARK    4  A    between atoms: N_6  and  C_16
REMARK    5  A    between atoms: C_8  and  C_13
REMARK    6  A    between atoms: C_10  and  C_14
REMARK    7  A    between atoms: C_14  and  C_15
REMARK    8  A    between atoms: C_16  and  C_18
REMARK    9  A    between atoms: C_19  and  C_20
REMARK                            x       y       z     vdW  Elec       q    Type
REMARK                         _______ _______ _______ _____ _____    ______ ____
ROOT
ATOM      2  O   UNL     1      12.834   2.936   0.634  0.00  0.00    -0.369 OA
ATOM      8  C   UNL     1      13.206   3.678   1.802  0.00  0.00    +0.161 C 
ATOM      9  C   UNL     1      14.662   4.154   1.721  0.00  0.00    +0.145 C 
ATOM     10  C   UNL     1      13.028   3.617  -0.608  0.00  0.00    +0.125 C 
ATOM     11  C   UNL     1      14.974   4.846   0.397  0.00  0.00    +0.036 C 
ATOM     12  C   UNL     1      14.495   4.007  -0.784  0.00  0.00    +0.034 C 
ENDROOT
BRANCH   9   3
ATOM      3  O   UNL     1      15.524   3.018   1.834  0.00  0.00    -0.389 OA
ATOM     32  H   UNL     1      15.001   2.231   1.604  0.00  0.00    +0.210 HD
ENDBRANCH   9   3
BRANCH   8  13
ATOM     13  C   UNL     1      12.221   4.815   2.069  0.00  0.00    +0.115 C 
BRANCH  13   6
ATOM      6  N   UNL     1      12.618   5.583   3.239  0.00  0.00    -0.309 NA
ATOM     31  H   UNL     1      12.462   5.024   4.077  0.00  0.00    +0.122 HD
BRANCH   6  16
ATOM     16  C   UNL     1      11.864   6.827   3.328  0.00  0.00    +0.120 C 
BRANCH  16  18
ATOM     18  C   UNL     1      10.696   6.708   4.272  0.00  0.00    +0.008 A 
ATOM     21  C   UNL     1      10.892   6.345   5.604  0.00  0.00    +0.121 A 
ATOM     22  C   UNL     1       9.409   6.969   3.801  0.00  0.00    +0.008 A 
ATOM     23  C   UNL     1       9.800   6.240   6.465  0.00  0.00    +0.046 A 
ATOM     24  C   UNL     1       8.318   6.863   4.663  0.00  0.00    +0.001 A 
ATOM     27  C   UNL     1       8.513   6.500   5.995  0.00  0.00    +0.004 A 
BRANCH  21   5
ATOM      5  O   UNL     1      12.142   6.088   6.080  0.00  0.00    -0.506 OA
ATOM     33  H   UNL     1      12.626   6.927   6.171  0.00  0.00    +0.292 HD
ENDBRANCH  21   5
ENDBRANCH  16  18
ENDBRANCH   6  16
ENDBRANCH  13   6
ENDBRANCH   8  13
BRANCH  10  14
ATOM     14  C   UNL     1      12.578   2.678  -1.721  0.00  0.00    +0.090 C 
BRANCH  14  15
ATOM      4  O   UNL     1       9.344   2.957  -3.287  0.00  0.00    -0.354 OA
ATOM      7  N   UNL     1      10.413   2.217  -2.797  0.00  0.00    -0.083 NA
ATOM     15  C   UNL     1      11.279   3.125  -2.335  0.00  0.00    +0.087 A 
ATOM     17  C   UNL     1      10.813   4.440  -2.504  0.00  0.00    +0.076 A 
ATOM     19  C   UNL     1       9.594   4.279  -3.107  0.00  0.00    +0.167 A 
BRANCH  19  20
ATOM      1  F   UNL     1       5.622   7.748  -4.879  0.00  0.00    -0.205 F 
ATOM     20  C   UNL     1       8.570   5.174  -3.564  0.00  0.00    +0.020 A 
ATOM     25  C   UNL     1       8.111   6.193  -2.729  0.00  0.00    +0.014 A 
ATOM     26  C   UNL     1       8.035   5.025  -4.843  0.00  0.00    +0.014 A 
ATOM     28  C   UNL     1       7.116   7.062  -3.174  0.00  0.00    +0.039 A 
ATOM     29  C   UNL     1       7.039   5.895  -5.287  0.00  0.00    +0.039 A 
ATOM     30  C   UNL     1       6.579   6.913  -4.453  0.00  0.00    +0.123 A 
ENDBRANCH  19  20
ENDBRANCH  14  15
ENDBRANCH  10  14
TORSDOF 9
ENDMDL
MODEL 7
REMARK VINA RESULT:      -7.0     27.672     29.976
REMARK  Name = 75536262
REMARK  9 active torsions:
REMARK  status: ('A' for Active; 'I' for Inactive)
REMARK    1  A    between atoms: O_3  and  C_9
REMARK    2  A    between atoms: O_5  and  C_21
REMARK    3  A    between atoms: N_6  and  C_13
REMARK    4  A    between atoms: N_6  and  C_16
REMARK    5  A    between atoms: C_8  and  C_13
REMARK    6  A    between atoms: C_10  and  C_14
REMARK    7  A    between atoms: C_14  and  C_15
REMARK    8  A    between atoms: C_16  and  C_18
REMARK    9  A    between atoms: C_19  and  C_20
REMARK                            x       y       z     vdW  Elec       q    Type
REMARK                         _______ _______ _______ _____ _____    ______ ____
ROOT
ATOM      2  O   UNL     1      -5.901 -10.403  18.143  0.00  0.00    -0.369 OA
ATOM      8  C   UNL     1      -4.888 -10.413  17.129  0.00  0.00    +0.161 C 
ATOM      9  C   UNL     1      -4.119 -11.741  17.121  0.00  0.00    +0.145 C 
ATOM     10  C   UNL     1      -6.840 -11.479  18.077  0.00  0.00    +0.125 C 
ATOM     11  C   UNL     1      -5.050 -12.950  17.108  0.00  0.00    +0.036 C 
ATOM     12  C   UNL     1      -6.124 -12.825  18.185  0.00  0.00    +0.034 C 
ENDROOT
BRANCH   9   3
ATOM      3  O   UNL     1      -3.320 -11.817  18.305  0.00  0.00    -0.389 OA
ATOM     32  H   UNL     1      -2.433 -12.114  18.040  0.00  0.00    +0.210 HD
ENDBRANCH   9   3
BRANCH   8  13
ATOM     13  C   UNL     1      -5.473 -10.053  15.765  0.00  0.00    +0.115 C 
BRANCH  13   6
ATOM      6  N   UNL     1      -4.451 -10.108  14.731  0.00  0.00    -0.309 NA
ATOM     31  H   UNL     1      -4.211  -9.159  14.445  0.00  0.00    +0.122 HD
BRANCH   6  16
ATOM     16  C   UNL     1      -4.915 -10.868  13.578  0.00  0.00    +0.120 C 
BRANCH  16  18
ATOM     18  C   UNL     1      -4.650 -10.144  12.285  0.00  0.00    +0.008 A 
ATOM     21  C   UNL     1      -5.489  -9.114  11.859  0.00  0.00    +0.121 A 
ATOM     22  C   UNL     1      -3.549 -10.512  11.510  0.00  0.00    +0.008 A 
ATOM     23  C   UNL     1      -5.229  -8.453  10.659  0.00  0.00    +0.046 A 
ATOM     24  C   UNL     1      -3.290  -9.850  10.310  0.00  0.00    +0.001 A 
ATOM     27  C   UNL     1      -4.129  -8.821   9.885  0.00  0.00    +0.004 A 
BRANCH  21   5
ATOM      5  O   UNL     1      -6.568  -8.742  12.604  0.00  0.00    -0.506 OA
ATOM     33  H   UNL     1      -6.566  -7.775  12.705  0.00  0.00    +0.292 HD
ENDBRANCH  21   5
ENDBRANCH  16  18
ENDBRANCH   6  16
ENDBRANCH  13   6
ENDBRANCH   8  13
BRANCH  10  14
ATOM     14  C   UNL     1      -7.828 -11.297  19.223  0.00  0.00    +0.090 C 
BRANCH  14  15
ATOM      4  O   UNL     1     -11.031  -9.686  18.859  0.00  0.00    -0.354 OA
ATOM      7  N   UNL     1     -10.158 -10.555  19.501  0.00  0.00    -0.083 NA
ATOM     15  C   UNL     1      -9.018 -10.476  18.807  0.00  0.00    +0.087 A 
ATOM     17  C   UNL     1      -9.112  -9.581  17.727  0.00  0.00    +0.076 A 
ATOM     19  C   UNL     1     -10.397  -9.112  17.804  0.00  0.00    +0.167 A 
BRANCH  19  20
ATOM      1  F   UNL     1     -13.421  -5.501  14.844  0.00  0.00    -0.205 F 
ATOM     20  C   UNL     1     -11.176  -8.181  17.040  0.00  0.00    +0.020 A 
ATOM     25  C   UNL     1     -10.596  -7.000  16.578  0.00  0.00    +0.014 A 
ATOM     26  C   UNL     1     -12.514  -8.458  16.759  0.00  0.00    +0.014 A 
ATOM     28  C   UNL     1     -11.354  -6.095  15.836  0.00  0.00    +0.039 A 
ATOM     29  C   UNL     1     -13.272  -7.552  16.017  0.00  0.00    +0.039 A 
ATOM     30  C   UNL     1     -12.693  -6.371  15.556  0.00  0.00    +0.123 A 
ENDBRANCH  19  20
ENDBRANCH  14  15
ENDBRANCH  10  14
TORSDOF 9
ENDMDL
MODEL 8
REMARK VINA RESULT:      -7.0     28.015     30.926
REMARK  Name = 75536262
REMARK  9 active torsions:
REMARK  status: ('A' for Active; 'I' for Inactive)
REMARK    1  A    between atoms: O_3  and  C_9
REMARK    2  A    between atoms: O_5  and  C_21
REMARK    3  A    between atoms: N_6  and  C_13
REMARK    4  A    between atoms: N_6  and  C_16
REMARK    5  A    between atoms: C_8  and  C_13
REMARK    6  A    between atoms: C_10  and  C_14
REMARK    7  A    between atoms: C_14  and  C_15
REMARK    8  A    between atoms: C_16  and  C_18
REMARK    9  A    between atoms: C_19  and  C_20
REMARK                            x       y       z     vdW  Elec       q    Type
REMARK                         _______ _______ _______ _____ _____    ______ ____
ROOT
ATOM      2  O   UNL     1     -16.641   2.551  23.537  0.00  0.00    -0.369 OA
ATOM      8  C   UNL     1     -16.372   3.841  22.971  0.00  0.00    +0.161 C 
ATOM      9  C   UNL     1     -17.551   4.335  22.123  0.00  0.00    +0.145 C 
ATOM     10  C   UNL     1     -17.838   2.465  24.314  0.00  0.00    +0.125 C 
ATOM     11  C   UNL     1     -18.883   4.225  22.859  0.00  0.00    +0.036 C 
ATOM     12  C   UNL     1     -19.056   2.837  23.470  0.00  0.00    +0.034 C 
ENDROOT
BRANCH   9   3
ATOM      3  O   UNL     1     -17.636   3.532  20.942  0.00  0.00    -0.389 OA
ATOM     32  H   UNL     1     -16.754   3.155  20.781  0.00  0.00    +0.210 HD
ENDBRANCH   9   3
BRANCH   8  13
ATOM     13  C   UNL     1     -15.954   4.838  24.051  0.00  0.00    +0.115 C 
BRANCH  13   6
ATOM      6  N   UNL     1     -14.726   5.523  23.677  0.00  0.00    -0.309 NA
ATOM     31  H   UNL     1     -14.208   5.768  24.520  0.00  0.00    +0.122 HD
BRANCH   6  16
ATOM     16  C   UNL     1     -15.014   6.726  22.907  0.00  0.00    +0.120 C 
BRANCH  16  18
ATOM     18  C   UNL     1     -13.850   7.129  22.041  0.00  0.00    +0.008 A 
ATOM     21  C   UNL     1     -13.654   8.465  21.688  0.00  0.00    +0.121 A 
ATOM     22  C   UNL     1     -12.962   6.151  21.592  0.00  0.00    +0.008 A 
ATOM     23  C   UNL     1     -12.570   8.821  20.885  0.00  0.00    +0.046 A 
ATOM     24  C   UNL     1     -11.879   6.509  20.790  0.00  0.00    +0.001 A 
ATOM     27  C   UNL     1     -11.683   7.844  20.436  0.00  0.00    +0.004 A 
BRANCH  21   5
ATOM      5  O   UNL     1     -14.511   9.432  22.118  0.00  0.00    -0.506 OA
ATOM     33  H   UNL     1     -14.880   9.895  21.346  0.00  0.00    +0.292 HD
ENDBRANCH  21   5
ENDBRANCH  16  18
ENDBRANCH   6  16
ENDBRANCH  13   6
ENDBRANCH   8  13
BRANCH  10  14
ATOM     14  C   UNL     1     -17.950   1.034  24.827  0.00  0.00    +0.090 C 
BRANCH  14  15
ATOM      4  O   UNL     1     -17.484   0.237  28.310  0.00  0.00    -0.354 OA
ATOM      7  N   UNL     1     -18.148   0.105  27.097  0.00  0.00    -0.083 NA
ATOM     15  C   UNL     1     -17.500   0.918  26.258  0.00  0.00    +0.087 A 
ATOM     17  C   UNL     1     -16.428   1.583  26.880  0.00  0.00    +0.076 A 
ATOM     19  C   UNL     1     -16.463   1.120  28.169  0.00  0.00    +0.167 A 
BRANCH  19  20
ATOM      1  F   UNL     1     -13.423   2.047  32.734  0.00  0.00    -0.205 F 
ATOM     20  C   UNL     1     -15.679   1.359  29.346  0.00  0.00    +0.020 A 
ATOM     25  C   UNL     1     -15.569   0.369  30.323  0.00  0.00    +0.014 A 
ATOM     26  C   UNL     1     -15.025   2.580  29.512  0.00  0.00    +0.014 A 
ATOM     28  C   UNL     1     -14.806   0.602  31.467  0.00  0.00    +0.039 A 
ATOM     29  C   UNL     1     -14.264   2.812  30.657  0.00  0.00    +0.039 A 
ATOM     30  C   UNL     1     -14.154   1.824  31.635  0.00  0.00    +0.123 A 
ENDBRANCH  19  20
ENDBRANCH  14  15
ENDBRANCH  10  14
TORSDOF 9
ENDMDL
MODEL 9
REMARK VINA RESULT:      -6.9     27.010     28.980
REMARK  Name = 75536262
REMARK  9 active torsions:
REMARK  status: ('A' for Active; 'I' for Inactive)
REMARK    1  A    between atoms: O_3  and  C_9
REMARK    2  A    between atoms: O_5  and  C_21
REMARK    3  A    between atoms: N_6  and  C_13
REMARK    4  A    between atoms: N_6  and  C_16
REMARK    5  A    between atoms: C_8  and  C_13
REMARK    6  A    between atoms: C_10  and  C_14
REMARK    7  A    between atoms: C_14  and  C_15
REMARK    8  A    between atoms: C_16  and  C_18
REMARK    9  A    between atoms: C_19  and  C_20
REMARK                            x       y       z     vdW  Elec       q    Type
REMARK                         _______ _______ _______ _____ _____    ______ ____
ROOT
ATOM      2  O   UNL     1      -6.746 -10.637  17.181  0.00  0.00    -0.369 OA
ATOM      8  C   UNL     1      -5.688 -10.453  18.130  0.00  0.00    +0.161 C 
ATOM      9  C   UNL     1      -6.043 -11.071  19.489  0.00  0.00    +0.145 C 
ATOM     10  C   UNL     1      -7.155 -11.992  16.979  0.00  0.00    +0.125 C 
ATOM     11  C   UNL     1      -6.545 -12.506  19.360  0.00  0.00    +0.036 C 
ATOM     12  C   UNL     1      -7.630 -12.612  18.292  0.00  0.00    +0.034 C 
ENDROOT
BRANCH   9   3
ATOM      3  O   UNL     1      -7.085 -10.296  20.089  0.00  0.00    -0.389 OA
ATOM     32  H   UNL     1      -6.814 -10.100  21.002  0.00  0.00    +0.210 HD
ENDBRANCH   9   3
BRANCH   8  13
ATOM     13  C   UNL     1      -4.357 -10.957  17.574  0.00  0.00    +0.115 C 
BRANCH  13   6
ATOM      6  N   UNL     1      -4.035 -10.297  16.319  0.00  0.00    -0.309 NA
ATOM     31  H   UNL     1      -4.701 -10.589  15.605  0.00  0.00    +0.122 HD
BRANCH   6  16
ATOM     16  C   UNL     1      -2.680 -10.619  15.892  0.00  0.00    +0.120 C 
BRANCH  16  18
ATOM     18  C   UNL     1      -2.648 -11.150  14.483  0.00  0.00    +0.008 A 
ATOM     21  C   UNL     1      -2.976 -12.479  14.215  0.00  0.00    +0.121 A 
ATOM     22  C   UNL     1      -2.286 -10.296  13.440  0.00  0.00    +0.008 A 
ATOM     23  C   UNL     1      -2.941 -12.955  12.904  0.00  0.00    +0.046 A 
ATOM     24  C   UNL     1      -2.252 -10.773  12.130  0.00  0.00    +0.001 A 
ATOM     27  C   UNL     1      -2.579 -12.102  11.862  0.00  0.00    +0.004 A 
BRANCH  21   5
ATOM      5  O   UNL     1      -3.332 -13.326  15.221  0.00  0.00    -0.506 OA
ATOM     33  H   UNL     1      -3.667 -14.153  14.836  0.00  0.00    +0.292 HD
ENDBRANCH  21   5
ENDBRANCH  16  18
ENDBRANCH   6  16
ENDBRANCH  13   6
ENDBRANCH   8  13
BRANCH  10  14
ATOM     14  C   UNL     1      -8.275 -11.984  15.946  0.00  0.00    +0.090 C 
BRANCH  14  15
ATOM      4  O   UNL     1      -8.022  -9.737  13.140  0.00  0.00    -0.354 OA
ATOM      7  N   UNL     1      -8.658 -10.214  14.279  0.00  0.00    -0.083 NA
ATOM     15  C   UNL     1      -7.888 -11.218  14.710  0.00  0.00    +0.087 A 
ATOM     17  C   UNL     1      -6.763 -11.418  13.890  0.00  0.00    +0.076 A 
ATOM     19  C   UNL     1      -6.895 -10.462  12.919  0.00  0.00    +0.167 A 
BRANCH  19  20
ATOM      1  F   UNL     1      -3.908  -8.981   8.465  0.00  0.00    -0.205 F 
ATOM     20  C   UNL     1      -6.125 -10.080  11.770  0.00  0.00    +0.020 A 
ATOM     25  C   UNL     1      -5.921 -10.991  10.734  0.00  0.00    +0.014 A 
ATOM     26  C   UNL     1      -5.583  -8.797  11.689  0.00  0.00    +0.014 A 
ATOM     28  C   UNL     1      -5.172 -10.619   9.617  0.00  0.00    +0.039 A 
ATOM     29  C   UNL     1      -4.834  -8.427  10.573  0.00  0.00    +0.039 A 
ATOM     30  C   UNL     1      -4.627  -9.337   9.537  0.00  0.00    +0.123 A 
ENDBRANCH  19  20
ENDBRANCH  14  15
ENDBRANCH  10  14
TORSDOF 9
ENDMDL
MODEL 10
REMARK VINA RESULT:      -6.9     26.767     28.971
REMARK  Name = 75536262
REMARK  9 active torsions:
REMARK  status: ('A' for Active; 'I' for Inactive)
REMARK    1  A    between atoms: O_3  and  C_9
REMARK    2  A    between atoms: O_5  and  C_21
REMARK    3  A    between atoms: N_6  and  C_13
REMARK    4  A    between atoms: N_6  and  C_16
REMARK    5  A    between atoms: C_8  and  C_13
REMARK    6  A    between atoms: C_10  and  C_14
REMARK    7  A    between atoms: C_14  and  C_15
REMARK    8  A    between atoms: C_16  and  C_18
REMARK    9  A    between atoms: C_19  and  C_20
REMARK                            x       y       z     vdW  Elec       q    Type
REMARK                         _______ _______ _______ _____ _____    ______ ____
ROOT
ATOM      2  O   UNL     1      -4.015 -12.488  15.816  0.00  0.00    -0.369 OA
ATOM      8  C   UNL     1      -5.246 -13.117  16.194  0.00  0.00    +0.161 C 
ATOM      9  C   UNL     1      -5.359 -13.252  17.718  0.00  0.00    +0.145 C 
ATOM     10  C   UNL     1      -3.777 -11.210  16.411  0.00  0.00    +0.125 C 
ATOM     11  C   UNL     1      -5.063 -11.941  18.441  0.00  0.00    +0.036 C 
ATOM     12  C   UNL     1      -3.764 -11.321  17.936  0.00  0.00    +0.034 C 
ENDROOT
BRANCH   9   3
ATOM      3  O   UNL     1      -4.409 -14.222  18.166  0.00  0.00    -0.389 OA
ATOM     32  H   UNL     1      -4.273 -14.081  19.119  0.00  0.00    +0.210 HD
ENDBRANCH   9   3
BRANCH   8  13
ATOM     13  C   UNL     1      -6.444 -12.405  15.567  0.00  0.00    +0.115 C 
BRANCH  13   6
ATOM      6  N   UNL     1      -6.437 -12.555  14.120  0.00  0.00    -0.309 NA
ATOM     31  H   UNL     1      -5.718 -11.951  13.723  0.00  0.00    +0.122 HD
BRANCH   6  16
ATOM     16  C   UNL     1      -7.736 -12.214  13.554  0.00  0.00    +0.120 C 
BRANCH  16  18
ATOM     18  C   UNL     1      -7.616 -11.210  12.439  0.00  0.00    +0.008 A 
ATOM     21  C   UNL     1      -7.140  -9.922  12.688  0.00  0.00    +0.121 A 
ATOM     22  C   UNL     1      -7.986 -11.579  11.145  0.00  0.00    +0.008 A 
ATOM     23  C   UNL     1      -7.035  -9.004  11.643  0.00  0.00    +0.046 A 
ATOM     24  C   UNL     1      -7.881 -10.660  10.102  0.00  0.00    +0.001 A 
ATOM     27  C   UNL     1      -7.405  -9.373  10.350  0.00  0.00    +0.004 A 
BRANCH  21   5
ATOM      5  O   UNL     1      -6.774  -9.546  13.945  0.00  0.00    -0.506 OA
ATOM     33  H   UNL     1      -6.322 -10.289  14.380  0.00  0.00    +0.292 HD
ENDBRANCH  21   5
ENDBRANCH  16  18
ENDBRANCH   6  16
ENDBRANCH  13   6
ENDBRANCH   8  13
BRANCH  10  14
ATOM     14  C   UNL     1      -2.436 -10.705  15.893  0.00  0.00    +0.090 C 
BRANCH  14  15
ATOM      4  O   UNL     1      -1.716 -10.003  12.432  0.00  0.00    -0.354 OA
ATOM      7  N   UNL     1      -1.353 -10.089  13.770  0.00  0.00    -0.083 NA
ATOM     15  C   UNL     1      -2.457 -10.498  14.402  0.00  0.00    +0.087 A 
ATOM     17  C   UNL     1      -3.537 -10.684  13.522  0.00  0.00    +0.076 A 
ATOM     19  C   UNL     1      -3.019 -10.359  12.297  0.00  0.00    +0.167 A 
BRANCH  19  20
ATOM      1  F   UNL     1      -5.039 -10.213   7.116  0.00  0.00    -0.205 F 
ATOM     20  C   UNL     1      -3.540 -10.321  10.961  0.00  0.00    +0.020 A 
ATOM     25  C   UNL     1      -3.614  -9.109  10.276  0.00  0.00    +0.014 A 
ATOM     26  C   UNL     1      -3.970 -11.498  10.347  0.00  0.00    +0.014 A 
ATOM     28  C   UNL     1      -4.120  -9.073   8.977  0.00  0.00    +0.039 A 
ATOM     29  C   UNL     1      -4.477 -11.461   9.048  0.00  0.00    +0.039 A 
ATOM     30  C   UNL     1      -4.553 -10.248   8.363  0.00  0.00    +0.123 A 
ENDBRANCH  19  20
ENDBRANCH  14  15
ENDBRANCH  10  14
TORSDOF 9
ENDMDL
