MODEL 1
REMARK VINA RESULT:      -6.4      0.000      0.000
REMARK  Name = 75536678
REMARK  7 active torsions:
REMARK  status: ('A' for Active; 'I' for Inactive)
REMARK    1  A    between atoms: S_1  and  N_8
REMARK    2  A    between atoms: S_1  and  C_19
REMARK    3  A    between atoms: O_3  and  C_10
REMARK    4  A    between atoms: N_6  and  C_9
REMARK    5  A    between atoms: N_6  and  C_11
REMARK    6  A    between atoms: N_8  and  C_16
REMARK    7  A    between atoms: C_12  and  C_16
REMARK                            x       y       z     vdW  Elec       q    Type
REMARK                         _______ _______ _______ _____ _____    ______ ____
ROOT
ATOM      2  O   UNL     1      16.469   5.678  18.715  0.00  0.00    -0.371 OA
ATOM      9  C   UNL     1      18.118   6.141  20.360  0.00  0.00    +0.111 C 
ATOM     10  C   UNL     1      16.898   7.004  20.625  0.00  0.00    +0.164 C 
ATOM     12  C   UNL     1      15.823   6.232  19.873  0.00  0.00    +0.164 C 
ATOM     13  C   UNL     1      17.892   5.739  18.912  0.00  0.00    +0.181 C 
ENDROOT
BRANCH  10   3
ATOM      3  O   UNL     1      16.599   7.118  22.003  0.00  0.00    -0.388 OA
ATOM     27  H   UNL     1      16.914   6.316  22.452  0.00  0.00    +0.210 HD
ENDBRANCH  10   3
BRANCH   9   6
ATOM      6  N   UNL     1      19.379   6.834  20.565  0.00  0.00    -0.306 NA
ATOM     25  H   UNL     1      19.207   7.798  20.849  0.00  0.00    +0.123 HD
BRANCH   6  11
ATOM      7  N   UNL     1      22.813   5.313  22.563  0.00  0.00    -0.316 NA
ATOM     11  C   UNL     1      20.185   6.157  21.577  0.00  0.00    +0.056 C 
ATOM     14  C   UNL     1      21.159   7.134  22.247  0.00  0.00    +0.034 C 
ATOM     15  C   UNL     1      20.957   4.991  20.950  0.00  0.00    +0.034 C 
ATOM     17  C   UNL     1      22.083   6.400  23.219  0.00  0.00    +0.082 C 
ATOM     18  C   UNL     1      21.889   4.341  21.973  0.00  0.00    +0.082 C 
ATOM     26  H   UNL     1      23.403   4.843  23.248  0.00  0.00    +0.122 HD
ENDBRANCH   6  11
ENDBRANCH   9   6
BRANCH  12  16
ATOM     16  C   UNL     1      14.651   7.096  19.444  0.00  0.00    +0.140 C 
BRANCH  16   8
ATOM      8  N   UNL     1      13.680   7.198  20.550  0.00  0.00    -0.187 NA
ATOM     28  H   UNL     1      13.931   6.699  21.412  0.00  0.00    +0.148 HD
BRANCH   8   1
ATOM      1  S   UNL     1      12.032   7.454  20.216  0.00  0.00    +0.058 S 
ATOM      4  O   UNL     1      11.242   6.436  20.882  0.00  0.00    -0.153 OA
ATOM      5  O   UNL     1      11.869   7.688  18.793  0.00  0.00    -0.153 OA
BRANCH   1  19
ATOM     19  C   UNL     1      11.731   8.995  21.029  0.00  0.00    +0.105 A 
ATOM     20  C   UNL     1      10.957   9.032  22.188  0.00  0.00    +0.028 A 
ATOM     21  C   UNL     1      12.264  10.174  20.509  0.00  0.00    +0.028 A 
ATOM     22  C   UNL     1      10.716  10.249  22.828  0.00  0.00    +0.002 A 
ATOM     23  C   UNL     1      12.025  11.390  21.148  0.00  0.00    +0.002 A 
ATOM     24  C   UNL     1      11.250  11.427  22.308  0.00  0.00    +0.000 A 
ENDBRANCH   1  19
ENDBRANCH   8   1
ENDBRANCH  16   8
ENDBRANCH  12  16
TORSDOF 7
ENDMDL
MODEL 2
REMARK VINA RESULT:      -6.4     27.341     30.749
REMARK  Name = 75536678
REMARK  7 active torsions:
REMARK  status: ('A' for Active; 'I' for Inactive)
REMARK    1  A    between atoms: S_1  and  N_8
REMARK    2  A    between atoms: S_1  and  C_19
REMARK    3  A    between atoms: O_3  and  C_10
REMARK    4  A    between atoms: N_6  and  C_9
REMARK    5  A    between atoms: N_6  and  C_11
REMARK    6  A    between atoms: N_8  and  C_16
REMARK    7  A    between atoms: C_12  and  C_16
REMARK                            x       y       z     vdW  Elec       q    Type
REMARK                         _______ _______ _______ _____ _____    ______ ____
ROOT
ATOM      2  O   UNL     1     -15.298   6.778  21.099  0.00  0.00    -0.371 OA
ATOM      9  C   UNL     1     -12.952   6.796  20.724  0.00  0.00    +0.111 C 
ATOM     10  C   UNL     1     -13.246   6.001  21.982  0.00  0.00    +0.164 C 
ATOM     12  C   UNL     1     -14.713   5.651  21.773  0.00  0.00    +0.164 C 
ATOM     13  C   UNL     1     -14.239   7.590  20.564  0.00  0.00    +0.181 C 
ENDROOT
BRANCH  10   3
ATOM      3  O   UNL     1     -12.440   4.844  22.098  0.00  0.00    -0.388 OA
ATOM     27  H   UNL     1     -13.000   4.110  22.401  0.00  0.00    +0.210 HD
ENDBRANCH  10   3
BRANCH   9   6
ATOM      6  N   UNL     1     -11.775   7.642  20.829  0.00  0.00    -0.306 NA
ATOM     25  H   UNL     1     -10.960   7.079  21.068  0.00  0.00    +0.123 HD
BRANCH   6  11
ATOM      7  N   UNL     1      -9.680   9.212  17.476  0.00  0.00    -0.316 NA
ATOM     11  C   UNL     1     -11.534   8.355  19.578  0.00  0.00    +0.056 C 
ATOM     14  C   UNL     1     -11.036   7.399  18.488  0.00  0.00    +0.034 C 
ATOM     15  C   UNL     1     -10.519   9.482  19.794  0.00  0.00    +0.034 C 
ATOM     17  C   UNL     1     -10.671   8.165  17.216  0.00  0.00    +0.082 C 
ATOM     18  C   UNL     1     -10.174  10.167  18.472  0.00  0.00    +0.082 C 
ATOM     26  H   UNL     1      -9.478   9.706  16.608  0.00  0.00    +0.122 HD
ENDBRANCH   6  11
ENDBRANCH   9   6
BRANCH  12  16
ATOM     16  C   UNL     1     -15.458   5.383  23.068  0.00  0.00    +0.140 C 
BRANCH  16   8
ATOM      8  N   UNL     1     -15.385   3.945  23.394  0.00  0.00    -0.187 NA
ATOM     28  H   UNL     1     -14.561   3.448  23.033  0.00  0.00    +0.148 HD
BRANCH   8   1
ATOM      1  S   UNL     1     -16.812   3.059  23.662  0.00  0.00    +0.058 S 
ATOM      4  O   UNL     1     -16.790   1.856  22.851  0.00  0.00    -0.153 OA
ATOM      5  O   UNL     1     -17.947   3.961  23.597  0.00  0.00    -0.153 OA
BRANCH   1  19
ATOM     19  C   UNL     1     -16.629   2.580  25.353  0.00  0.00    +0.105 A 
ATOM     20  C   UNL     1     -16.197   3.509  26.299  0.00  0.00    +0.028 A 
ATOM     21  C   UNL     1     -16.912   1.270  25.741  0.00  0.00    +0.028 A 
ATOM     22  C   UNL     1     -16.048   3.130  27.633  0.00  0.00    +0.002 A 
ATOM     23  C   UNL     1     -16.765   0.891  27.075  0.00  0.00    +0.002 A 
ATOM     24  C   UNL     1     -16.332   1.821  28.021  0.00  0.00    +0.000 A 
ENDBRANCH   1  19
ENDBRANCH   8   1
ENDBRANCH  16   8
ENDBRANCH  12  16
TORSDOF 7
ENDMDL
MODEL 3
REMARK VINA RESULT:      -6.3     26.771     29.148
REMARK  Name = 75536678
REMARK  7 active torsions:
REMARK  status: ('A' for Active; 'I' for Inactive)
REMARK    1  A    between atoms: S_1  and  N_8
REMARK    2  A    between atoms: S_1  and  C_19
REMARK    3  A    between atoms: O_3  and  C_10
REMARK    4  A    between atoms: N_6  and  C_9
REMARK    5  A    between atoms: N_6  and  C_11
REMARK    6  A    between atoms: N_8  and  C_16
REMARK    7  A    between atoms: C_12  and  C_16
REMARK                            x       y       z     vdW  Elec       q    Type
REMARK                         _______ _______ _______ _____ _____    ______ ____
ROOT
ATOM      2  O   UNL     1      -1.569 -11.284  14.841  0.00  0.00    -0.371 OA
ATOM      9  C   UNL     1      -3.697 -10.880  15.815  0.00  0.00    +0.111 C 
ATOM     10  C   UNL     1      -3.798 -10.697  14.312  0.00  0.00    +0.164 C 
ATOM     12  C   UNL     1      -2.581 -11.479  13.838  0.00  0.00    +0.164 C 
ATOM     13  C   UNL     1      -2.196 -10.774  16.030  0.00  0.00    +0.181 C 
ENDROOT
BRANCH  10   3
ATOM      3  O   UNL     1      -5.000 -11.218  13.778  0.00  0.00    -0.388 OA
ATOM     27  H   UNL     1      -5.496 -11.643  14.497  0.00  0.00    +0.210 HD
ENDBRANCH  10   3
BRANCH   9   6
ATOM      6  N   UNL     1      -4.448  -9.895  16.575  0.00  0.00    -0.306 NA
ATOM     25  H   UNL     1      -4.829  -9.185  15.949  0.00  0.00    +0.123 HD
BRANCH   6  11
ATOM      7  N   UNL     1      -7.424 -10.483  19.558  0.00  0.00    -0.316 NA
ATOM     11  C   UNL     1      -5.533 -10.529  17.319  0.00  0.00    +0.056 C 
ATOM     14  C   UNL     1      -6.792  -9.655  17.308  0.00  0.00    +0.034 C 
ATOM     15  C   UNL     1      -5.097 -10.806  18.762  0.00  0.00    +0.034 C 
ATOM     17  C   UNL     1      -7.886 -10.263  18.186  0.00  0.00    +0.082 C 
ATOM     18  C   UNL     1      -6.257 -11.370  19.583  0.00  0.00    +0.082 C 
ATOM     26  H   UNL     1      -8.176 -10.903  20.103  0.00  0.00    +0.122 HD
ENDBRANCH   6  11
ENDBRANCH   9   6
BRANCH  12  16
ATOM     16  C   UNL     1      -2.061 -11.022  12.487  0.00  0.00    +0.140 C 
BRANCH  16   8
ATOM      8  N   UNL     1      -3.097 -11.237  11.459  0.00  0.00    -0.187 NA
ATOM     28  H   UNL     1      -3.088 -12.158  11.002  0.00  0.00    +0.148 HD
BRANCH   8   1
ATOM      1  S   UNL     1      -3.732  -9.914  10.599  0.00  0.00    +0.058 S 
ATOM      4  O   UNL     1      -2.656  -9.008  10.248  0.00  0.00    -0.153 OA
ATOM      5  O   UNL     1      -4.905  -9.418  11.295  0.00  0.00    -0.153 OA
BRANCH   1  19
ATOM     19  C   UNL     1      -4.301 -10.685   9.114  0.00  0.00    +0.105 A 
ATOM     20  C   UNL     1      -4.175 -12.065   8.952  0.00  0.00    +0.028 A 
ATOM     21  C   UNL     1      -4.871  -9.914   8.102  0.00  0.00    +0.028 A 
ATOM     22  C   UNL     1      -4.620 -12.673   7.778  0.00  0.00    +0.002 A 
ATOM     23  C   UNL     1      -5.317 -10.521   6.928  0.00  0.00    +0.002 A 
ATOM     24  C   UNL     1      -5.191 -11.902   6.767  0.00  0.00    +0.000 A 
ENDBRANCH   1  19
ENDBRANCH   8   1
ENDBRANCH  16   8
ENDBRANCH  12  16
TORSDOF 7
ENDMDL
MODEL 4
REMARK VINA RESULT:      -6.2     26.984     29.695
REMARK  Name = 75536678
REMARK  7 active torsions:
REMARK  status: ('A' for Active; 'I' for Inactive)
REMARK    1  A    between atoms: S_1  and  N_8
REMARK    2  A    between atoms: S_1  and  C_19
REMARK    3  A    between atoms: O_3  and  C_10
REMARK    4  A    between atoms: N_6  and  C_9
REMARK    5  A    between atoms: N_6  and  C_11
REMARK    6  A    between atoms: N_8  and  C_16
REMARK    7  A    between atoms: C_12  and  C_16
REMARK                            x       y       z     vdW  Elec       q    Type
REMARK                         _______ _______ _______ _____ _____    ______ ____
ROOT
ATOM      2  O   UNL     1      -5.617 -11.224  18.381  0.00  0.00    -0.371 OA
ATOM      9  C   UNL     1      -7.426  -9.965  17.497  0.00  0.00    +0.111 C 
ATOM     10  C   UNL     1      -6.174  -9.661  16.696  0.00  0.00    +0.164 C 
ATOM     12  C   UNL     1      -5.316 -10.877  17.019  0.00  0.00    +0.164 C 
ATOM     13  C   UNL     1      -6.835 -10.563  18.764  0.00  0.00    +0.181 C 
ENDROOT
BRANCH  10   3
ATOM      3  O   UNL     1      -6.427  -9.548  15.309  0.00  0.00    -0.388 OA
ATOM     27  H   UNL     1      -6.461  -8.604  15.080  0.00  0.00    +0.210 HD
ENDBRANCH  10   3
BRANCH   9   6
ATOM      6  N   UNL     1      -8.252  -8.798  17.755  0.00  0.00    -0.306 NA
ATOM     25  H   UNL     1      -7.747  -7.949  17.504  0.00  0.00    +0.123 HD
BRANCH   6  11
ATOM      7  N   UNL     1     -12.167  -7.794  16.425  0.00  0.00    -0.316 NA
ATOM     11  C   UNL     1      -9.503  -8.870  17.004  0.00  0.00    +0.056 C 
ATOM     14  C   UNL     1      -9.708  -7.607  16.159  0.00  0.00    +0.034 C 
ATOM     15  C   UNL     1     -10.686  -9.064  17.957  0.00  0.00    +0.034 C 
ATOM     17  C   UNL     1     -11.072  -7.631  15.467  0.00  0.00    +0.082 C 
ATOM     18  C   UNL     1     -12.011  -9.032  17.195  0.00  0.00    +0.082 C 
ATOM     26  H   UNL     1     -13.053  -7.820  15.922  0.00  0.00    +0.122 HD
ENDBRANCH   6  11
ENDBRANCH   9   6
BRANCH  12  16
ATOM     16  C   UNL     1      -3.828 -10.619  16.871  0.00  0.00    +0.140 C 
BRANCH  16   8
ATOM      8  N   UNL     1      -3.520 -10.289  15.465  0.00  0.00    -0.187 NA
ATOM     28  H   UNL     1      -4.035  -9.493  15.071  0.00  0.00    +0.148 HD
BRANCH   8   1
ATOM      1  S   UNL     1      -2.973 -11.503  14.406  0.00  0.00    +0.058 S 
ATOM      4  O   UNL     1      -3.952 -12.571  14.352  0.00  0.00    -0.153 OA
ATOM      5  O   UNL     1      -1.585 -11.801  14.706  0.00  0.00    -0.153 OA
BRANCH   1  19
ATOM     19  C   UNL     1      -2.996 -10.664  12.850  0.00  0.00    +0.105 A 
ATOM     20  C   UNL     1      -1.804 -10.215  12.283  0.00  0.00    +0.028 A 
ATOM     21  C   UNL     1      -4.206 -10.446  12.193  0.00  0.00    +0.028 A 
ATOM     22  C   UNL     1      -1.822  -9.549  11.056  0.00  0.00    +0.002 A 
ATOM     23  C   UNL     1      -4.225  -9.782  10.967  0.00  0.00    +0.002 A 
ATOM     24  C   UNL     1      -3.032  -9.332  10.399  0.00  0.00    +0.000 A 
ENDBRANCH   1  19
ENDBRANCH   8   1
ENDBRANCH  16   8
ENDBRANCH  12  16
TORSDOF 7
ENDMDL
MODEL 5
REMARK VINA RESULT:      -6.1     27.178     29.090
REMARK  Name = 75536678
REMARK  7 active torsions:
REMARK  status: ('A' for Active; 'I' for Inactive)
REMARK    1  A    between atoms: S_1  and  N_8
REMARK    2  A    between atoms: S_1  and  C_19
REMARK    3  A    between atoms: O_3  and  C_10
REMARK    4  A    between atoms: N_6  and  C_9
REMARK    5  A    between atoms: N_6  and  C_11
REMARK    6  A    between atoms: N_8  and  C_16
REMARK    7  A    between atoms: C_12  and  C_16
REMARK                            x       y       z     vdW  Elec       q    Type
REMARK                         _______ _______ _______ _____ _____    ______ ____
ROOT
ATOM      2  O   UNL     1      -6.383 -10.660  16.628  0.00  0.00    -0.371 OA
ATOM      9  C   UNL     1      -4.077 -10.899  16.112  0.00  0.00    +0.111 C 
ATOM     10  C   UNL     1      -4.255 -10.955  17.617  0.00  0.00    +0.164 C 
ATOM     12  C   UNL     1      -5.729 -11.320  17.725  0.00  0.00    +0.164 C 
ATOM     13  C   UNL     1      -5.383 -10.253  15.679  0.00  0.00    +0.181 C 
ENDROOT
BRANCH  10   3
ATOM      3  O   UNL     1      -3.426 -11.924  18.230  0.00  0.00    -0.388 OA
ATOM     27  H   UNL     1      -3.289 -12.651  17.600  0.00  0.00    +0.210 HD
ENDBRANCH  10   3
BRANCH   9   6
ATOM      6  N   UNL     1      -2.907 -10.147  15.689  0.00  0.00    -0.306 NA
ATOM     25  H   UNL     1      -2.292  -9.980  16.485  0.00  0.00    +0.123 HD
BRANCH   6  11
ATOM      7  N   UNL     1      -2.206 -12.637  12.311  0.00  0.00    -0.316 NA
ATOM     11  C   UNL     1      -2.180 -10.862  14.644  0.00  0.00    +0.056 C 
ATOM     14  C   UNL     1      -2.600 -10.376  13.252  0.00  0.00    +0.034 C 
ATOM     15  C   UNL     1      -2.416 -12.371  14.768  0.00  0.00    +0.034 C 
ATOM     17  C   UNL     1      -1.928 -11.207  12.159  0.00  0.00    +0.082 C 
ATOM     18  C   UNL     1      -1.750 -13.124  13.616  0.00  0.00    +0.082 C 
ATOM     26  H   UNL     1      -1.728 -13.153  11.574  0.00  0.00    +0.122 HD
ENDBRANCH   6  11
ENDBRANCH   9   6
BRANCH  12  16
ATOM     16  C   UNL     1      -6.361 -10.886  19.036  0.00  0.00    +0.140 C 
BRANCH  16   8
ATOM      8  N   UNL     1      -7.548 -10.052  18.761  0.00  0.00    -0.187 NA
ATOM     28  H   UNL     1      -7.438  -9.047  18.941  0.00  0.00    +0.148 HD
BRANCH   8   1
ATOM      1  S   UNL     1      -9.106 -10.727  18.866  0.00  0.00    +0.058 S 
ATOM      4  O   UNL     1      -9.542 -10.715  20.249  0.00  0.00    -0.153 OA
ATOM      5  O   UNL     1      -9.139 -11.960  18.103  0.00  0.00    -0.153 OA
BRANCH   1  19
ATOM     19  C   UNL     1     -10.075  -9.545  17.979  0.00  0.00    +0.105 A 
ATOM     20  C   UNL     1     -11.459  -9.693  17.904  0.00  0.00    +0.028 A 
ATOM     21  C   UNL     1      -9.454  -8.467  17.349  0.00  0.00    +0.028 A 
ATOM     22  C   UNL     1     -12.224  -8.762  17.200  0.00  0.00    +0.002 A 
ATOM     23  C   UNL     1     -10.217  -7.535  16.645  0.00  0.00    +0.002 A 
ATOM     24  C   UNL     1     -11.603  -7.684  16.571  0.00  0.00    +0.000 A 
ENDBRANCH   1  19
ENDBRANCH   8   1
ENDBRANCH  16   8
ENDBRANCH  12  16
TORSDOF 7
ENDMDL
MODEL 6
REMARK VINA RESULT:      -6.1     29.587     32.420
REMARK  Name = 75536678
REMARK  7 active torsions:
REMARK  status: ('A' for Active; 'I' for Inactive)
REMARK    1  A    between atoms: S_1  and  N_8
REMARK    2  A    between atoms: S_1  and  C_19
REMARK    3  A    between atoms: O_3  and  C_10
REMARK    4  A    between atoms: N_6  and  C_9
REMARK    5  A    between atoms: N_6  and  C_11
REMARK    6  A    between atoms: N_8  and  C_16
REMARK    7  A    between atoms: C_12  and  C_16
REMARK                            x       y       z     vdW  Elec       q    Type
REMARK                         _______ _______ _______ _____ _____    ______ ____
ROOT
ATOM      2  O   UNL     1     -17.980   5.949  27.385  0.00  0.00    -0.371 OA
ATOM      9  C   UNL     1     -16.973   4.103  28.487  0.00  0.00    +0.111 C 
ATOM     10  C   UNL     1     -16.833   3.920  26.988  0.00  0.00    +0.164 C 
ATOM     12  C   UNL     1     -17.020   5.350  26.499  0.00  0.00    +0.164 C 
ATOM     13  C   UNL     1     -18.090   5.131  28.562  0.00  0.00    +0.181 C 
ENDROOT
BRANCH  10   3
ATOM      3  O   UNL     1     -15.572   3.398  26.617  0.00  0.00    -0.388 OA
ATOM     27  H   UNL     1     -14.917   3.681  27.276  0.00  0.00    +0.210 HD
ENDBRANCH  10   3
BRANCH   9   6
ATOM      6  N   UNL     1     -17.285   2.875  29.199  0.00  0.00    -0.306 NA
ATOM     25  H   UNL     1     -17.595   2.159  28.542  0.00  0.00    +0.123 HD
BRANCH   6  11
ATOM      7  N   UNL     1     -13.281   1.681  30.000  0.00  0.00    -0.316 NA
ATOM     11  C   UNL     1     -16.123   2.395  29.942  0.00  0.00    +0.056 C 
ATOM     14  C   UNL     1     -15.015   3.454  29.972  0.00  0.00    +0.034 C 
ATOM     15  C   UNL     1     -15.595   1.097  29.322  0.00  0.00    +0.034 C 
ATOM     17  C   UNL     1     -13.757   2.906  30.646  0.00  0.00    +0.082 C 
ATOM     18  C   UNL     1     -14.314   0.641  30.021  0.00  0.00    +0.082 C 
ATOM     26  H   UNL     1     -12.453   1.342  30.488  0.00  0.00    +0.122 HD
ENDBRANCH   6  11
ENDBRANCH   9   6
BRANCH  12  16
ATOM     16  C   UNL     1     -17.519   5.435  25.067  0.00  0.00    +0.140 C 
BRANCH  16   8
ATOM      8  N   UNL     1     -16.438   5.934  24.195  0.00  0.00    -0.187 NA
ATOM     28  H   UNL     1     -16.542   6.902  23.865  0.00  0.00    +0.148 HD
BRANCH   8   1
ATOM      1  S   UNL     1     -15.541   4.847  23.243  0.00  0.00    +0.058 S 
ATOM      4  O   UNL     1     -16.411   4.249  22.249  0.00  0.00    -0.153 OA
ATOM      5  O   UNL     1     -14.742   4.005  24.114  0.00  0.00    -0.153 OA
BRANCH   1  19
ATOM     19  C   UNL     1     -14.424   5.932  22.407  0.00  0.00    +0.105 A 
ATOM     20  C   UNL     1     -13.211   5.445  21.921  0.00  0.00    +0.028 A 
ATOM     21  C   UNL     1     -14.752   7.277  22.240  0.00  0.00    +0.028 A 
ATOM     22  C   UNL     1     -12.327   6.303  21.265  0.00  0.00    +0.002 A 
ATOM     23  C   UNL     1     -13.870   8.135  21.584  0.00  0.00    +0.002 A 
ATOM     24  C   UNL     1     -12.656   7.647  21.097  0.00  0.00    +0.000 A 
ENDBRANCH   1  19
ENDBRANCH   8   1
ENDBRANCH  16   8
ENDBRANCH  12  16
TORSDOF 7
ENDMDL
MODEL 7
REMARK VINA RESULT:      -6.0     27.436     29.103
REMARK  Name = 75536678
REMARK  7 active torsions:
REMARK  status: ('A' for Active; 'I' for Inactive)
REMARK    1  A    between atoms: S_1  and  N_8
REMARK    2  A    between atoms: S_1  and  C_19
REMARK    3  A    between atoms: O_3  and  C_10
REMARK    4  A    between atoms: N_6  and  C_9
REMARK    5  A    between atoms: N_6  and  C_11
REMARK    6  A    between atoms: N_8  and  C_16
REMARK    7  A    between atoms: C_12  and  C_16
REMARK                            x       y       z     vdW  Elec       q    Type
REMARK                         _______ _______ _______ _____ _____    ______ ____
ROOT
ATOM      2  O   UNL     1      -5.383 -13.227  13.072  0.00  0.00    -0.371 OA
ATOM      9  C   UNL     1      -3.970 -13.341  11.166  0.00  0.00    +0.111 C 
ATOM     10  C   UNL     1      -3.116 -13.392  12.420  0.00  0.00    +0.164 C 
ATOM     12  C   UNL     1      -4.140 -13.838  13.455  0.00  0.00    +0.164 C 
ATOM     13  C   UNL     1      -5.270 -12.773  11.712  0.00  0.00    +0.181 C 
ENDROOT
BRANCH  10   3
ATOM      3  O   UNL     1      -2.043 -14.307  12.313  0.00  0.00    -0.388 OA
ATOM     27  H   UNL     1      -1.480 -14.033  11.570  0.00  0.00    +0.210 HD
ENDBRANCH  10   3
BRANCH   9   6
ATOM      6  N   UNL     1      -3.400 -12.530  10.104  0.00  0.00    -0.306 NA
ATOM     25  H   UNL     1      -3.398 -13.051   9.228  0.00  0.00    +0.123 HD
BRANCH   6  11
ATOM      7  N   UNL     1      -4.400  -8.628   8.733  0.00  0.00    -0.316 NA
ATOM     11  C   UNL     1      -4.151 -11.287   9.940  0.00  0.00    +0.056 C 
ATOM     14  C   UNL     1      -4.570 -11.089   8.478  0.00  0.00    +0.034 C 
ATOM     15  C   UNL     1      -3.316 -10.095  10.415  0.00  0.00    +0.034 C 
ATOM     17  C   UNL     1      -5.250  -9.733   8.286  0.00  0.00    +0.082 C 
ATOM     18  C   UNL     1      -4.045  -8.778  10.148  0.00  0.00    +0.082 C 
ATOM     26  H   UNL     1      -4.896  -7.748   8.603  0.00  0.00    +0.122 HD
ENDBRANCH   6  11
ENDBRANCH   9   6
BRANCH  12  16
ATOM     16  C   UNL     1      -3.781 -13.428  14.871  0.00  0.00    +0.140 C 
BRANCH  16   8
ATOM      8  N   UNL     1      -2.494 -12.704  14.866  0.00  0.00    -0.187 NA
ATOM     28  H   UNL     1      -1.667 -13.264  15.105  0.00  0.00    +0.148 HD
BRANCH   8   1
ATOM      1  S   UNL     1      -2.456 -11.032  15.174  0.00  0.00    +0.058 S 
ATOM      4  O   UNL     1      -2.746 -10.311  13.950  0.00  0.00    -0.153 OA
ATOM      5  O   UNL     1      -1.263 -10.720  15.938  0.00  0.00    -0.153 OA
BRANCH   1  19
ATOM     19  C   UNL     1      -3.833 -10.832  16.264  0.00  0.00    +0.105 A 
ATOM     20  C   UNL     1      -3.758 -11.300  17.575  0.00  0.00    +0.028 A 
ATOM     21  C   UNL     1      -4.997 -10.211  15.810  0.00  0.00    +0.028 A 
ATOM     22  C   UNL     1      -4.847 -11.147  18.435  0.00  0.00    +0.002 A 
ATOM     23  C   UNL     1      -6.085 -10.057  16.669  0.00  0.00    +0.002 A 
ATOM     24  C   UNL     1      -6.010 -10.525  17.981  0.00  0.00    +0.000 A 
ENDBRANCH   1  19
ENDBRANCH   8   1
ENDBRANCH  16   8
ENDBRANCH  12  16
TORSDOF 7
ENDMDL
MODEL 8
REMARK VINA RESULT:      -5.9     26.846     30.012
REMARK  Name = 75536678
REMARK  7 active torsions:
REMARK  status: ('A' for Active; 'I' for Inactive)
REMARK    1  A    between atoms: S_1  and  N_8
REMARK    2  A    between atoms: S_1  and  C_19
REMARK    3  A    between atoms: O_3  and  C_10
REMARK    4  A    between atoms: N_6  and  C_9
REMARK    5  A    between atoms: N_6  and  C_11
REMARK    6  A    between atoms: N_8  and  C_16
REMARK    7  A    between atoms: C_12  and  C_16
REMARK                            x       y       z     vdW  Elec       q    Type
REMARK                         _______ _______ _______ _____ _____    ______ ____
ROOT
ATOM      2  O   UNL     1      -5.715 -12.489  17.830  0.00  0.00    -0.371 OA
ATOM      9  C   UNL     1      -7.550 -10.998  18.051  0.00  0.00    +0.111 C 
ATOM     10  C   UNL     1      -6.339 -10.224  17.566  0.00  0.00    +0.164 C 
ATOM     12  C   UNL     1      -5.484 -11.345  16.991  0.00  0.00    +0.164 C 
ATOM     13  C   UNL     1      -6.899 -12.253  18.610  0.00  0.00    +0.181 C 
ENDROOT
BRANCH  10   3
ATOM      3  O   UNL     1      -6.666  -9.256  16.588  0.00  0.00    -0.388 OA
ATOM     27  H   UNL     1      -7.584  -8.973  16.732  0.00  0.00    +0.210 HD
ENDBRANCH  10   3
BRANCH   9   6
ATOM      6  N   UNL     1      -8.342 -10.285  19.039  0.00  0.00    -0.306 NA
ATOM     25  H   UNL     1      -8.144  -9.285  18.991  0.00  0.00    +0.123 HD
BRANCH   6  11
ATOM      7  N   UNL     1     -12.534  -9.560  18.988  0.00  0.00    -0.316 NA
ATOM     11  C   UNL     1      -9.769 -10.517  18.828  0.00  0.00    +0.056 C 
ATOM     14  C   UNL     1     -10.345  -9.512  17.824  0.00  0.00    +0.034 C 
ATOM     15  C   UNL     1     -10.525 -10.427  20.157  0.00  0.00    +0.034 C 
ATOM     17  C   UNL     1     -11.859  -9.679  17.694  0.00  0.00    +0.082 C 
ATOM     18  C   UNL     1     -12.032 -10.559  19.936  0.00  0.00    +0.082 C 
ATOM     26  H   UNL     1     -13.536  -9.693  18.859  0.00  0.00    +0.122 HD
ENDBRANCH   6  11
ENDBRANCH   9   6
BRANCH  12  16
ATOM     16  C   UNL     1      -4.002 -11.017  16.965  0.00  0.00    +0.140 C 
BRANCH  16   8
ATOM      8  N   UNL     1      -3.672 -10.319  15.707  0.00  0.00    -0.187 NA
ATOM     28  H   UNL     1      -4.451  -9.828  15.251  0.00  0.00    +0.148 HD
BRANCH   8   1
ATOM      1  S   UNL     1      -2.388 -10.872  14.738  0.00  0.00    +0.058 S 
ATOM      4  O   UNL     1      -2.315 -12.318  14.815  0.00  0.00    -0.153 OA
ATOM      5  O   UNL     1      -1.211 -10.068  15.009  0.00  0.00    -0.153 OA
BRANCH   1  19
ATOM     19  C   UNL     1      -2.944 -10.441  13.116  0.00  0.00    +0.105 A 
ATOM     20  C   UNL     1      -2.018 -10.145  12.117  0.00  0.00    +0.028 A 
ATOM     21  C   UNL     1      -4.310 -10.390  12.838  0.00  0.00    +0.028 A 
ATOM     22  C   UNL     1      -2.457  -9.800  10.838  0.00  0.00    +0.002 A 
ATOM     23  C   UNL     1      -4.750 -10.047  11.560  0.00  0.00    +0.002 A 
ATOM     24  C   UNL     1      -3.823  -9.751  10.560  0.00  0.00    +0.000 A 
ENDBRANCH   1  19
ENDBRANCH   8   1
ENDBRANCH  16   8
ENDBRANCH  12  16
TORSDOF 7
ENDMDL
MODEL 9
REMARK VINA RESULT:      -5.9     16.672     19.260
REMARK  Name = 75536678
REMARK  7 active torsions:
REMARK  status: ('A' for Active; 'I' for Inactive)
REMARK    1  A    between atoms: S_1  and  N_8
REMARK    2  A    between atoms: S_1  and  C_19
REMARK    3  A    between atoms: O_3  and  C_10
REMARK    4  A    between atoms: N_6  and  C_9
REMARK    5  A    between atoms: N_6  and  C_11
REMARK    6  A    between atoms: N_8  and  C_16
REMARK    7  A    between atoms: C_12  and  C_16
REMARK                            x       y       z     vdW  Elec       q    Type
REMARK                         _______ _______ _______ _____ _____    ______ ____
ROOT
ATOM      2  O   UNL     1      12.705   8.023   1.955  0.00  0.00    -0.371 OA
ATOM      9  C   UNL     1      11.715   7.448   4.035  0.00  0.00    +0.111 C 
ATOM     10  C   UNL     1      13.102   6.839   3.963  0.00  0.00    +0.164 C 
ATOM     12  C   UNL     1      13.749   7.707   2.891  0.00  0.00    +0.164 C 
ATOM     13  C   UNL     1      11.437   7.737   2.569  0.00  0.00    +0.181 C 
ENDROOT
BRANCH  10   3
ATOM      3  O   UNL     1      13.797   6.915   5.192  0.00  0.00    -0.388 OA
ATOM     27  H   UNL     1      13.879   6.017   5.554  0.00  0.00    +0.210 HD
ENDBRANCH  10   3
BRANCH   9   6
ATOM      6  N   UNL     1      10.723   6.572   4.636  0.00  0.00    -0.306 NA
ATOM     25  H   UNL     1      11.037   5.602   4.588  0.00  0.00    +0.123 HD
BRANCH   6  11
ATOM      7  N   UNL     1       8.586   7.497   8.197  0.00  0.00    -0.316 NA
ATOM     11  C   UNL     1      10.477   6.943   6.028  0.00  0.00    +0.056 C 
ATOM     14  C   UNL     1       9.736   5.825   6.771  0.00  0.00    +0.034 C 
ATOM     15  C   UNL     1       9.673   8.245   6.096  0.00  0.00    +0.034 C 
ATOM     17  C   UNL     1       9.374   6.262   8.190  0.00  0.00    +0.082 C 
ATOM     18  C   UNL     1       9.314   8.588   7.542  0.00  0.00    +0.082 C 
ATOM     26  H   UNL     1       8.381   7.760   9.160  0.00  0.00    +0.122 HD
ENDBRANCH   6  11
ENDBRANCH   9   6
BRANCH  12  16
ATOM     16  C   UNL     1      14.895   7.019   2.171  0.00  0.00    +0.140 C 
BRANCH  16   8
ATOM      8  N   UNL     1      14.933   5.593   2.551  0.00  0.00    -0.187 NA
ATOM     28  H   UNL     1      15.527   5.362   3.357  0.00  0.00    +0.148 HD
BRANCH   8   1
ATOM      1  S   UNL     1      14.656   4.392   1.379  0.00  0.00    +0.058 S 
ATOM      4  O   UNL     1      14.948   3.090   1.947  0.00  0.00    -0.153 OA
ATOM      5  O   UNL     1      15.275   4.798   0.131  0.00  0.00    -0.153 OA
BRANCH   1  19
ATOM     19  C   UNL     1      12.907   4.505   1.148  0.00  0.00    +0.105 A 
ATOM     20  C   UNL     1      12.042   3.991   2.113  0.00  0.00    +0.028 A 
ATOM     21  C   UNL     1      12.393   5.104  -0.001  0.00  0.00    +0.028 A 
ATOM     22  C   UNL     1      10.661   4.077   1.930  0.00  0.00    +0.002 A 
ATOM     23  C   UNL     1      11.013   5.191  -0.185  0.00  0.00    +0.002 A 
ATOM     24  C   UNL     1      10.147   4.677   0.781  0.00  0.00    +0.000 A 
ENDBRANCH   1  19
ENDBRANCH   8   1
ENDBRANCH  16   8
ENDBRANCH  12  16
TORSDOF 7
ENDMDL
MODEL 10
REMARK VINA RESULT:      -5.9     17.766     20.520
REMARK  Name = 75536678
REMARK  7 active torsions:
REMARK  status: ('A' for Active; 'I' for Inactive)
REMARK    1  A    between atoms: S_1  and  N_8
REMARK    2  A    between atoms: S_1  and  C_19
REMARK    3  A    between atoms: O_3  and  C_10
REMARK    4  A    between atoms: N_6  and  C_9
REMARK    5  A    between atoms: N_6  and  C_11
REMARK    6  A    between atoms: N_8  and  C_16
REMARK    7  A    between atoms: C_12  and  C_16
REMARK                            x       y       z     vdW  Elec       q    Type
REMARK                         _______ _______ _______ _____ _____    ______ ____
ROOT
ATOM      2  O   UNL     1      10.915   5.025   1.600  0.00  0.00    -0.371 OA
ATOM      9  C   UNL     1      10.899   5.799   3.845  0.00  0.00    +0.111 C 
ATOM     10  C   UNL     1      12.125   6.348   3.142  0.00  0.00    +0.164 C 
ATOM     12  C   UNL     1      11.709   6.220   1.683  0.00  0.00    +0.164 C 
ATOM     13  C   UNL     1      10.517   4.647   2.929  0.00  0.00    +0.181 C 
ENDROOT
BRANCH  10   3
ATOM      3  O   UNL     1      12.403   7.689   3.494  0.00  0.00    -0.388 OA
ATOM     27  H   UNL     1      12.260   8.247   2.712  0.00  0.00    +0.210 HD
ENDBRANCH  10   3
BRANCH   9   6
ATOM      6  N   UNL     1      11.150   5.374   5.212  0.00  0.00    -0.306 NA
ATOM     25  H   UNL     1      11.983   5.839   5.576  0.00  0.00    +0.123 HD
BRANCH   6  11
ATOM      7  N   UNL     1       8.683   7.446   7.991  0.00  0.00    -0.316 NA
ATOM     11  C   UNL     1      10.005   5.672   6.068  0.00  0.00    +0.056 C 
ATOM     14  C   UNL     1       9.326   6.979   5.642  0.00  0.00    +0.034 C 
ATOM     15  C   UNL     1      10.444   5.760   7.533  0.00  0.00    +0.034 C 
ATOM     17  C   UNL     1       8.203   7.351   6.610  0.00  0.00    +0.082 C 
ATOM     18  C   UNL     1       9.277   6.179   8.428  0.00  0.00    +0.082 C 
ATOM     26  H   UNL     1       7.902   7.679   8.603  0.00  0.00    +0.122 HD
ENDBRANCH   6  11
ENDBRANCH   9   6
BRANCH  12  16
ATOM     16  C   UNL     1      12.886   6.121   0.728  0.00  0.00    +0.140 C 
BRANCH  16   8
ATOM      8  N   UNL     1      14.002   5.418   1.390  0.00  0.00    -0.187 NA
ATOM     28  H   UNL     1      14.779   6.012   1.706  0.00  0.00    +0.148 HD
BRANCH   8   1
ATOM      1  S   UNL     1      14.329   3.793   1.010  0.00  0.00    +0.058 S 
ATOM      4  O   UNL     1      13.482   2.932   1.814  0.00  0.00    -0.153 OA
ATOM      5  O   UNL     1      15.766   3.591   0.994  0.00  0.00    -0.153 OA
BRANCH   1  19
ATOM     19  C   UNL     1      13.775   3.692  -0.665  0.00  0.00    +0.105 A 
ATOM     20  C   UNL     1      14.503   4.315  -1.679  0.00  0.00    +0.028 A 
ATOM     21  C   UNL     1      12.607   2.996  -0.973  0.00  0.00    +0.028 A 
ATOM     22  C   UNL     1      14.063   4.240  -3.001  0.00  0.00    +0.002 A 
ATOM     23  C   UNL     1      12.167   2.920  -2.294  0.00  0.00    +0.002 A 
ATOM     24  C   UNL     1      12.896   3.542  -3.308  0.00  0.00    +0.000 A 
ENDBRANCH   1  19
ENDBRANCH   8   1
ENDBRANCH  16   8
ENDBRANCH  12  16
TORSDOF 7
ENDMDL
