MODEL 1
REMARK VINA RESULT:      -7.1      0.000      0.000
REMARK  Name = 44716360
REMARK  11 active torsions:
REMARK  status: ('A' for Active; 'I' for Inactive)
REMARK    1  A    between atoms: O_1  and  C_26
REMARK    2  A    between atoms: O_1  and  C_32
REMARK    3  A    between atoms: O_2  and  C_28
REMARK    4  A    between atoms: O_2  and  C_33
REMARK    5  A    between atoms: N_4  and  C_20
REMARK    6  A    between atoms: N_5  and  C_15
REMARK    7  A    between atoms: N_5  and  C_19
REMARK    8  A    between atoms: C_9  and  C_16
REMARK    9  A    between atoms: C_10  and  C_15
REMARK   10  A    between atoms: C_18  and  C_21
REMARK   11  A    between atoms: C_19  and  C_22
REMARK                            x       y       z     vdW  Elec       q    Type
REMARK                         _______ _______ _______ _____ _____    ______ ____
ROOT
ATOM      3  N   UNL     1      -5.433 -12.716  17.143  0.00  0.00    -0.298 NA
ATOM      8  C   UNL     1      -5.769 -10.633  18.668  0.00  0.00    +0.002 C 
ATOM      9  C   UNL     1      -7.113 -11.390  18.477  0.00  0.00    +0.055 C 
ATOM     10  C   UNL     1      -4.837 -11.516  16.501  0.00  0.00    +0.071 C 
ATOM     11  C   UNL     1      -5.204 -10.239  17.287  0.00  0.00    +0.024 C 
ATOM     12  C   UNL     1      -4.778 -11.637  19.294  0.00  0.00    +0.019 C 
ATOM     13  C   UNL     1      -6.876 -12.491  17.403  0.00  0.00    +0.094 C 
ATOM     14  C   UNL     1      -4.754 -12.921  18.445  0.00  0.00    +0.085 C 
ENDROOT
BRANCH   9  16
ATOM      4  N   UNL     1      -9.516 -10.704  18.916  0.00  0.00    -0.270 N 
ATOM      6  N   UNL     1     -10.507  -9.891  18.511  0.00  0.00    -0.171 NA
ATOM     16  C   UNL     1      -8.365 -10.570  18.198  0.00  0.00    +0.044 A 
ATOM     17  C   UNL     1      -8.620  -9.604  17.256  0.00  0.00    +0.053 A 
ATOM     18  C   UNL     1      -9.954  -9.220  17.497  0.00  0.00    +0.093 A 
ATOM     20  C   UNL     1      -9.750 -11.604  20.022  0.00  0.00    +0.172 C 
BRANCH  18  21
ATOM     21  C   UNL     1     -10.708  -8.229  16.777  0.00  0.00    +0.006 A 
ATOM     23  C   UNL     1     -12.099  -8.326  16.708  0.00  0.00    +0.059 A 
ATOM     24  C   UNL     1     -10.051  -7.172  16.148  0.00  0.00    +0.014 A 
ATOM     26  C   UNL     1     -12.831  -7.365  16.009  0.00  0.00    +0.162 A 
ATOM     27  C   UNL     1     -10.783  -6.212  15.449  0.00  0.00    +0.050 A 
ATOM     28  C   UNL     1     -12.173  -6.308  15.381  0.00  0.00    +0.162 A 
BRANCH  26   1
ATOM      1  O   UNL     1     -14.188  -7.469  15.949  0.00  0.00    -0.491 OA
ATOM     32  C   UNL     1     -14.721  -8.523  15.149  0.00  0.00    +0.277 C 
ENDBRANCH  26   1
BRANCH  28   2
ATOM      2  O   UNL     1     -12.876  -5.364  14.696  0.00  0.00    -0.491 OA
ATOM     33  C   UNL     1     -12.305  -4.885  13.480  0.00  0.00    +0.277 C 
ENDBRANCH  28   2
ENDBRANCH  18  21
ENDBRANCH   9  16
BRANCH  10  15
ATOM     15  C   UNL     1      -5.207 -11.401  15.020  0.00  0.00    +0.100 C 
BRANCH  15   5
ATOM      5  N   UNL     1      -4.446 -10.343  14.379  0.00  0.00    -0.309 NA
ATOM     34  H   UNL     1      -3.788  -9.942  15.048  0.00  0.00    +0.122 HD
BRANCH   5  19
ATOM     19  C   UNL     1      -3.719 -10.849  13.221  0.00  0.00    +0.136 C 
BRANCH  19  22
ATOM      7  N   UNL     1      -5.254  -9.493  11.907  0.00  0.00    -0.259 NA
ATOM     22  C   UNL     1      -4.029 -10.061  11.976  0.00  0.00    +0.055 A 
ATOM     25  C   UNL     1      -3.069  -9.955  10.983  0.00  0.00    +0.024 A 
ATOM     29  C   UNL     1      -3.386  -9.220   9.846  0.00  0.00    +0.003 A 
ATOM     30  C   UNL     1      -5.526  -8.785  10.788  0.00  0.00    +0.111 A 
ATOM     31  C   UNL     1      -4.636  -8.620   9.739  0.00  0.00    +0.020 A 
ENDBRANCH  19  22
ENDBRANCH   5  19
ENDBRANCH  15   5
ENDBRANCH  10  15
TORSDOF 8
ENDMDL
MODEL 2
REMARK VINA RESULT:      -7.0      4.053      7.908
REMARK  Name = 44716360
REMARK  11 active torsions:
REMARK  status: ('A' for Active; 'I' for Inactive)
REMARK    1  A    between atoms: O_1  and  C_26
REMARK    2  A    between atoms: O_1  and  C_32
REMARK    3  A    between atoms: O_2  and  C_28
REMARK    4  A    between atoms: O_2  and  C_33
REMARK    5  A    between atoms: N_4  and  C_20
REMARK    6  A    between atoms: N_5  and  C_15
REMARK    7  A    between atoms: N_5  and  C_19
REMARK    8  A    between atoms: C_9  and  C_16
REMARK    9  A    between atoms: C_10  and  C_15
REMARK   10  A    between atoms: C_18  and  C_21
REMARK   11  A    between atoms: C_19  and  C_22
REMARK                            x       y       z     vdW  Elec       q    Type
REMARK                         _______ _______ _______ _____ _____    ______ ____
ROOT
ATOM      3  N   UNL     1      -5.882 -10.685   9.306  0.00  0.00    -0.298 NA
ATOM      8  C   UNL     1      -4.508  -8.889  10.597  0.00  0.00    +0.002 C 
ATOM      9  C   UNL     1      -4.325 -10.287  11.250  0.00  0.00    +0.055 C 
ATOM     10  C   UNL     1      -6.744  -9.516   9.620  0.00  0.00    +0.071 C 
ATOM     11  C   UNL     1      -6.010  -8.535  10.561  0.00  0.00    +0.024 C 
ATOM     12  C   UNL     1      -4.037  -9.017   9.133  0.00  0.00    +0.019 C 
ATOM     13  C   UNL     1      -5.324 -11.257  10.556  0.00  0.00    +0.094 C 
ATOM     14  C   UNL     1      -4.754 -10.207   8.471  0.00  0.00    +0.085 C 
ENDROOT
BRANCH   9  16
ATOM      4  N   UNL     1      -3.273 -10.468  13.552  0.00  0.00    -0.270 N 
ATOM      6  N   UNL     1      -3.541 -10.547  14.867  0.00  0.00    -0.171 NA
ATOM     16  C   UNL     1      -4.386 -10.385  12.768  0.00  0.00    +0.044 A 
ATOM     17  C   UNL     1      -5.455 -10.414  13.628  0.00  0.00    +0.053 A 
ATOM     18  C   UNL     1      -4.875 -10.514  14.908  0.00  0.00    +0.093 A 
ATOM     20  C   UNL     1      -1.898 -10.477  13.110  0.00  0.00    +0.172 C 
BRANCH  18  21
ATOM     21  C   UNL     1      -5.570 -10.580  16.166  0.00  0.00    +0.006 A 
ATOM     23  C   UNL     1      -4.931 -11.107  17.289  0.00  0.00    +0.059 A 
ATOM     24  C   UNL     1      -6.882 -10.117  16.264  0.00  0.00    +0.014 A 
ATOM     26  C   UNL     1      -5.605 -11.171  18.509  0.00  0.00    +0.162 A 
ATOM     27  C   UNL     1      -7.557 -10.183  17.483  0.00  0.00    +0.050 A 
ATOM     28  C   UNL     1      -6.917 -10.708  18.606  0.00  0.00    +0.162 A 
BRANCH  26   1
ATOM      1  O   UNL     1      -4.971 -11.686  19.599  0.00  0.00    -0.491 OA
ATOM     32  C   UNL     1      -3.653 -12.196  19.400  0.00  0.00    +0.277 C 
ENDBRANCH  26   1
BRANCH  28   2
ATOM      2  O   UNL     1      -7.586 -10.766  19.792  0.00  0.00    -0.491 OA
ATOM     33  C   UNL     1      -8.976 -11.078  19.737  0.00  0.00    +0.277 C 
ENDBRANCH  28   2
ENDBRANCH  18  21
ENDBRANCH   9  16
BRANCH  10  15
ATOM     15  C   UNL     1      -8.108  -9.929  10.179  0.00  0.00    +0.100 C 
BRANCH  15   5
ATOM      5  N   UNL     1      -9.174  -9.565   9.262  0.00  0.00    -0.309 NA
ATOM     34  H   UNL     1      -9.996  -9.277   9.792  0.00  0.00    +0.122 HD
BRANCH   5  19
ATOM     19  C   UNL     1      -8.757  -8.483   8.379  0.00  0.00    +0.136 C 
BRANCH  19  22
ATOM      7  N   UNL     1     -10.687  -7.311   9.286  0.00  0.00    -0.259 NA
ATOM     22  C   UNL     1      -9.481  -7.199   8.684  0.00  0.00    +0.055 A 
ATOM     25  C   UNL     1      -8.895  -5.991   8.343  0.00  0.00    +0.024 A 
ATOM     29  C   UNL     1      -9.589  -4.823   8.639  0.00  0.00    +0.003 A 
ATOM     30  C   UNL     1     -11.332  -6.155   9.558  0.00  0.00    +0.111 A 
ATOM     31  C   UNL     1     -10.832  -4.899   9.259  0.00  0.00    +0.020 A 
ENDBRANCH  19  22
ENDBRANCH   5  19
ENDBRANCH  15   5
ENDBRANCH  10  15
TORSDOF 8
ENDMDL
MODEL 3
REMARK VINA RESULT:      -6.9      2.971      7.361
REMARK  Name = 44716360
REMARK  11 active torsions:
REMARK  status: ('A' for Active; 'I' for Inactive)
REMARK    1  A    between atoms: O_1  and  C_26
REMARK    2  A    between atoms: O_1  and  C_32
REMARK    3  A    between atoms: O_2  and  C_28
REMARK    4  A    between atoms: O_2  and  C_33
REMARK    5  A    between atoms: N_4  and  C_20
REMARK    6  A    between atoms: N_5  and  C_15
REMARK    7  A    between atoms: N_5  and  C_19
REMARK    8  A    between atoms: C_9  and  C_16
REMARK    9  A    between atoms: C_10  and  C_15
REMARK   10  A    between atoms: C_18  and  C_21
REMARK   11  A    between atoms: C_19  and  C_22
REMARK                            x       y       z     vdW  Elec       q    Type
REMARK                         _______ _______ _______ _____ _____    ______ ____
ROOT
ATOM      3  N   UNL     1      -6.578 -11.109  18.434  0.00  0.00    -0.298 NA
ATOM      8  C   UNL     1      -4.328 -12.202  17.711  0.00  0.00    +0.002 C 
ATOM      9  C   UNL     1      -4.479 -10.794  17.072  0.00  0.00    +0.055 C 
ATOM     10  C   UNL     1      -6.820 -12.488  17.935  0.00  0.00    +0.071 C 
ATOM     11  C   UNL     1      -5.536 -13.076  17.312  0.00  0.00    +0.024 C 
ATOM     12  C   UNL     1      -4.396 -12.006  19.241  0.00  0.00    +0.019 C 
ATOM     13  C   UNL     1      -5.920 -10.296  17.382  0.00  0.00    +0.094 C 
ATOM     14  C   UNL     1      -5.658 -11.200  19.593  0.00  0.00    +0.085 C 
ENDROOT
BRANCH   9  16
ATOM      4  N   UNL     1      -2.826 -10.621  15.154  0.00  0.00    -0.270 N 
ATOM      6  N   UNL     1      -2.716 -10.462  13.824  0.00  0.00    -0.171 NA
ATOM     16  C   UNL     1      -4.113 -10.628  15.604  0.00  0.00    +0.044 A 
ATOM     17  C   UNL     1      -4.900 -10.461  14.491  0.00  0.00    +0.053 A 
ATOM     18  C   UNL     1      -3.986 -10.365  13.424  0.00  0.00    +0.093 A 
ATOM     20  C   UNL     1      -1.628 -10.763  15.949  0.00  0.00    +0.172 C 
BRANCH  18  21
ATOM     21  C   UNL     1      -4.303 -10.180  12.032  0.00  0.00    +0.006 A 
ATOM     23  C   UNL     1      -5.633 -10.198  11.612  0.00  0.00    +0.059 A 
ATOM     24  C   UNL     1      -3.281  -9.984  11.104  0.00  0.00    +0.014 A 
ATOM     26  C   UNL     1      -5.941 -10.019  10.263  0.00  0.00    +0.162 A 
ATOM     27  C   UNL     1      -3.588  -9.807   9.755  0.00  0.00    +0.050 A 
ATOM     28  C   UNL     1      -4.919  -9.823   9.335  0.00  0.00    +0.162 A 
BRANCH  26   1
ATOM      1  O   UNL     1      -7.243 -10.037   9.864  0.00  0.00    -0.491 OA
ATOM     32  C   UNL     1      -7.977  -8.820   9.993  0.00  0.00    +0.277 C 
ENDBRANCH  26   1
BRANCH  28   2
ATOM      2  O   UNL     1      -5.206  -9.648   8.015  0.00  0.00    -0.491 OA
ATOM     33  C   UNL     1      -5.088 -10.790   7.169  0.00  0.00    +0.277 C 
ENDBRANCH  28   2
ENDBRANCH  18  21
ENDBRANCH   9  16
BRANCH  10  15
ATOM     15  C   UNL     1      -8.007 -12.560  16.971  0.00  0.00    +0.100 C 
BRANCH  15   5
ATOM      5  N   UNL     1      -9.229 -12.117  17.621  0.00  0.00    -0.309 NA
ATOM     34  H   UNL     1      -9.011 -11.375  18.286  0.00  0.00    +0.122 HD
BRANCH   5  19
ATOM     19  C   UNL     1     -10.196 -11.634  16.644  0.00  0.00    +0.136 C 
BRANCH  19  22
ATOM      7  N   UNL     1     -10.317  -9.661  15.224  0.00  0.00    -0.259 NA
ATOM     22  C   UNL     1     -10.123 -10.140  16.474  0.00  0.00    +0.055 A 
ATOM     25  C   UNL     1      -9.867  -9.342  17.578  0.00  0.00    +0.024 A 
ATOM     29  C   UNL     1      -9.806  -7.966  17.388  0.00  0.00    +0.003 A 
ATOM     30  C   UNL     1     -10.251  -8.319  15.078  0.00  0.00    +0.111 A 
ATOM     31  C   UNL     1     -10.001  -7.437  16.117  0.00  0.00    +0.020 A 
ENDBRANCH  19  22
ENDBRANCH   5  19
ENDBRANCH  15   5
ENDBRANCH  10  15
TORSDOF 8
ENDMDL
MODEL 4
REMARK VINA RESULT:      -6.7      4.643      7.386
REMARK  Name = 44716360
REMARK  11 active torsions:
REMARK  status: ('A' for Active; 'I' for Inactive)
REMARK    1  A    between atoms: O_1  and  C_26
REMARK    2  A    between atoms: O_1  and  C_32
REMARK    3  A    between atoms: O_2  and  C_28
REMARK    4  A    between atoms: O_2  and  C_33
REMARK    5  A    between atoms: N_4  and  C_20
REMARK    6  A    between atoms: N_5  and  C_15
REMARK    7  A    between atoms: N_5  and  C_19
REMARK    8  A    between atoms: C_9  and  C_16
REMARK    9  A    between atoms: C_10  and  C_15
REMARK   10  A    between atoms: C_18  and  C_21
REMARK   11  A    between atoms: C_19  and  C_22
REMARK                            x       y       z     vdW  Elec       q    Type
REMARK                         _______ _______ _______ _____ _____    ______ ____
ROOT
ATOM      3  N   UNL     1      -6.466 -10.606  17.907  0.00  0.00    -0.298 NA
ATOM      8  C   UNL     1      -4.327 -11.990  17.370  0.00  0.00    +0.002 C 
ATOM      9  C   UNL     1      -4.292 -10.625  16.628  0.00  0.00    +0.055 C 
ATOM     10  C   UNL     1      -6.842 -11.984  17.495  0.00  0.00    +0.071 C 
ATOM     11  C   UNL     1      -5.609 -12.753  16.976  0.00  0.00    +0.024 C 
ATOM     12  C   UNL     1      -4.432 -11.674  18.877  0.00  0.00    +0.019 C 
ATOM     13  C   UNL     1      -5.679  -9.951  16.833  0.00  0.00    +0.094 C 
ATOM     14  C   UNL     1      -5.608 -10.710  19.112  0.00  0.00    +0.085 C 
ENDROOT
BRANCH   9  16
ATOM      4  N   UNL     1      -2.546 -10.536  14.788  0.00  0.00    -0.270 N 
ATOM      6  N   UNL     1      -2.369 -10.535  13.456  0.00  0.00    -0.171 NA
ATOM     16  C   UNL     1      -3.853 -10.611  15.170  0.00  0.00    +0.044 A 
ATOM     17  C   UNL     1      -4.582 -10.661  14.008  0.00  0.00    +0.053 A 
ATOM     18  C   UNL     1      -3.616 -10.612  12.984  0.00  0.00    +0.093 A 
ATOM     20  C   UNL     1      -1.392 -10.461  15.653  0.00  0.00    +0.172 C 
BRANCH  18  21
ATOM     21  C   UNL     1      -3.861 -10.635  11.566  0.00  0.00    +0.006 A 
ATOM     23  C   UNL     1      -3.860 -11.849  10.878  0.00  0.00    +0.059 A 
ATOM     24  C   UNL     1      -4.100  -9.445  10.880  0.00  0.00    +0.014 A 
ATOM     26  C   UNL     1      -4.098 -11.872   9.503  0.00  0.00    +0.162 A 
ATOM     27  C   UNL     1      -4.337  -9.468   9.505  0.00  0.00    +0.050 A 
ATOM     28  C   UNL     1      -4.337 -10.681   8.817  0.00  0.00    +0.162 A 
BRANCH  26   1
ATOM      1  O   UNL     1      -4.095 -13.063   8.842  0.00  0.00    -0.491 OA
ATOM     32  C   UNL     1      -5.272 -13.863   8.944  0.00  0.00    +0.277 C 
ENDBRANCH  26   1
BRANCH  28   2
ATOM      2  O   UNL     1      -4.570 -10.690   7.475  0.00  0.00    -0.491 OA
ATOM     33  C   UNL     1      -5.811 -10.148   7.030  0.00  0.00    +0.277 C 
ENDBRANCH  28   2
ENDBRANCH  18  21
ENDBRANCH   9  16
BRANCH  10  15
ATOM     15  C   UNL     1      -7.990 -11.997  16.483  0.00  0.00    +0.100 C 
BRANCH  15   5
ATOM      5  N   UNL     1      -7.604 -12.705  15.274  0.00  0.00    -0.309 NA
ATOM     34  H   UNL     1      -7.374 -13.671  15.504  0.00  0.00    +0.122 HD
BRANCH   5  19
ATOM     19  C   UNL     1      -8.677 -12.678  14.287  0.00  0.00    +0.136 C 
BRANCH  19  22
ATOM      7  N   UNL     1      -8.486 -10.495  13.227  0.00  0.00    -0.259 NA
ATOM     22  C   UNL     1      -8.319 -11.831  13.094  0.00  0.00    +0.055 A 
ATOM     25  C   UNL     1      -7.847 -12.442  11.944  0.00  0.00    +0.024 A 
ATOM     29  C   UNL     1      -7.525 -11.632  10.861  0.00  0.00    +0.003 A 
ATOM     30  C   UNL     1      -8.163  -9.740  12.154  0.00  0.00    +0.111 A 
ATOM     31  C   UNL     1      -7.683 -10.254  10.960  0.00  0.00    +0.020 A 
ENDBRANCH  19  22
ENDBRANCH   5  19
ENDBRANCH  15   5
ENDBRANCH  10  15
TORSDOF 8
ENDMDL
MODEL 5
REMARK VINA RESULT:      -6.7     20.718     23.552
REMARK  Name = 44716360
REMARK  11 active torsions:
REMARK  status: ('A' for Active; 'I' for Inactive)
REMARK    1  A    between atoms: O_1  and  C_26
REMARK    2  A    between atoms: O_1  and  C_32
REMARK    3  A    between atoms: O_2  and  C_28
REMARK    4  A    between atoms: O_2  and  C_33
REMARK    5  A    between atoms: N_4  and  C_20
REMARK    6  A    between atoms: N_5  and  C_15
REMARK    7  A    between atoms: N_5  and  C_19
REMARK    8  A    between atoms: C_9  and  C_16
REMARK    9  A    between atoms: C_10  and  C_15
REMARK   10  A    between atoms: C_18  and  C_21
REMARK   11  A    between atoms: C_19  and  C_22
REMARK                            x       y       z     vdW  Elec       q    Type
REMARK                         _______ _______ _______ _____ _____    ______ ____
ROOT
ATOM      3  N   UNL     1     -12.706   9.299  33.669  0.00  0.00    -0.298 NA
ATOM      8  C   UNL     1     -15.175   8.623  33.192  0.00  0.00    +0.002 C 
ATOM      9  C   UNL     1     -14.409   7.448  33.860  0.00  0.00    +0.055 C 
ATOM     10  C   UNL     1     -13.058   9.620  32.261  0.00  0.00    +0.071 C 
ATOM     11  C   UNL     1     -14.443   9.041  31.900  0.00  0.00    +0.024 C 
ATOM     12  C   UNL     1     -15.094   9.817  34.167  0.00  0.00    +0.019 C 
ATOM     13  C   UNL     1     -12.908   7.852  33.926  0.00  0.00    +0.094 C 
ATOM     14  C   UNL     1     -13.624  10.058  34.552  0.00  0.00    +0.085 C 
ENDROOT
BRANCH   9  16
ATOM      4  N   UNL     1     -14.490   4.918  34.049  0.00  0.00    -0.270 N 
ATOM      6  N   UNL     1     -14.700   3.782  33.362  0.00  0.00    -0.171 NA
ATOM     16  C   UNL     1     -14.606   6.048  33.294  0.00  0.00    +0.044 A 
ATOM     17  C   UNL     1     -14.911   5.622  32.025  0.00  0.00    +0.053 A 
ATOM     18  C   UNL     1     -14.957   4.218  32.126  0.00  0.00    +0.093 A 
ATOM     20  C   UNL     1     -14.175   4.843  35.457  0.00  0.00    +0.172 C 
BRANCH  18  21
ATOM     21  C   UNL     1     -15.240   3.287  31.066  0.00  0.00    +0.006 A 
ATOM     23  C   UNL     1     -14.876   1.947  31.199  0.00  0.00    +0.059 A 
ATOM     24  C   UNL     1     -15.878   3.724  29.905  0.00  0.00    +0.014 A 
ATOM     26  C   UNL     1     -15.150   1.044  30.171  0.00  0.00    +0.162 A 
ATOM     27  C   UNL     1     -16.151   2.821  28.877  0.00  0.00    +0.050 A 
ATOM     28  C   UNL     1     -15.788   1.481  29.011  0.00  0.00    +0.162 A 
BRANCH  26   1
ATOM      1  O   UNL     1     -14.790  -0.262  30.313  0.00  0.00    -0.491 OA
ATOM     32  C   UNL     1     -13.527  -0.648  29.774  0.00  0.00    +0.277 C 
ENDBRANCH  26   1
BRANCH  28   2
ATOM      2  O   UNL     1     -16.061   0.609  28.000  0.00  0.00    -0.491 OA
ATOM     33  C   UNL     1     -16.770   1.123  26.875  0.00  0.00    +0.277 C 
ENDBRANCH  28   2
ENDBRANCH  18  21
ENDBRANCH   9  16
BRANCH  10  15
ATOM     15  C   UNL     1     -11.978   9.173  31.273  0.00  0.00    +0.100 C 
BRANCH  15   5
ATOM      5  N   UNL     1     -11.473  10.305  30.514  0.00  0.00    -0.309 NA
ATOM     34  H   UNL     1     -10.674  10.010  29.952  0.00  0.00    +0.122 HD
BRANCH   5  19
ATOM     19  C   UNL     1     -12.506  10.855  29.645  0.00  0.00    +0.136 C 
BRANCH  19  22
ATOM      7  N   UNL     1     -12.828  11.602  27.352  0.00  0.00    -0.259 NA
ATOM     22  C   UNL     1     -12.080  10.863  28.202  0.00  0.00    +0.055 A 
ATOM     25  C   UNL     1     -10.967  10.131  27.818  0.00  0.00    +0.024 A 
ATOM     29  C   UNL     1     -10.599  10.159  26.478  0.00  0.00    +0.003 A 
ATOM     30  C   UNL     1     -12.440  11.606  26.057  0.00  0.00    +0.111 A 
ATOM     31  C   UNL     1     -11.345  10.909  25.574  0.00  0.00    +0.020 A 
ENDBRANCH  19  22
ENDBRANCH   5  19
ENDBRANCH  15   5
ENDBRANCH  10  15
TORSDOF 8
ENDMDL
MODEL 6
REMARK VINA RESULT:      -6.5      3.972      6.999
REMARK  Name = 44716360
REMARK  11 active torsions:
REMARK  status: ('A' for Active; 'I' for Inactive)
REMARK    1  A    between atoms: O_1  and  C_26
REMARK    2  A    between atoms: O_1  and  C_32
REMARK    3  A    between atoms: O_2  and  C_28
REMARK    4  A    between atoms: O_2  and  C_33
REMARK    5  A    between atoms: N_4  and  C_20
REMARK    6  A    between atoms: N_5  and  C_15
REMARK    7  A    between atoms: N_5  and  C_19
REMARK    8  A    between atoms: C_9  and  C_16
REMARK    9  A    between atoms: C_10  and  C_15
REMARK   10  A    between atoms: C_18  and  C_21
REMARK   11  A    between atoms: C_19  and  C_22
REMARK                            x       y       z     vdW  Elec       q    Type
REMARK                         _______ _______ _______ _____ _____    ______ ____
ROOT
ATOM      3  N   UNL     1      -3.994  -8.953   9.905  0.00  0.00    -0.298 NA
ATOM      8  C   UNL     1      -5.759 -10.865   9.992  0.00  0.00    +0.002 C 
ATOM      9  C   UNL     1      -6.274  -9.615  10.757  0.00  0.00    +0.055 C 
ATOM     10  C   UNL     1      -3.349 -10.220  10.336  0.00  0.00    +0.071 C 
ATOM     11  C   UNL     1      -4.410 -11.312  10.594  0.00  0.00    +0.024 C 
ATOM     12  C   UNL     1      -5.483 -10.417   8.541  0.00  0.00    +0.019 C 
ATOM     13  C   UNL     1      -5.097  -8.601  10.833  0.00  0.00    +0.094 C 
ATOM     14  C   UNL     1      -4.576  -9.174   8.559  0.00  0.00    +0.085 C 
ENDROOT
BRANCH   9  16
ATOM      4  N   UNL     1      -8.298  -9.847  12.270  0.00  0.00    -0.270 N 
ATOM      6  N   UNL     1      -8.690 -10.043  13.541  0.00  0.00    -0.171 NA
ATOM     16  C   UNL     1      -6.945  -9.824  12.108  0.00  0.00    +0.044 A 
ATOM     17  C   UNL     1      -6.413 -10.017  13.359  0.00  0.00    +0.053 A 
ATOM     18  C   UNL     1      -7.534 -10.147  14.202  0.00  0.00    +0.093 A 
ATOM     20  C   UNL     1      -9.299  -9.684  11.241  0.00  0.00    +0.172 C 
BRANCH  18  21
ATOM     21  C   UNL     1      -7.521 -10.365  15.624  0.00  0.00    +0.006 A 
ATOM     23  C   UNL     1      -8.032 -11.551  16.151  0.00  0.00    +0.059 A 
ATOM     24  C   UNL     1      -6.999  -9.392  16.475  0.00  0.00    +0.014 A 
ATOM     26  C   UNL     1      -8.021 -11.764  17.531  0.00  0.00    +0.162 A 
ATOM     27  C   UNL     1      -6.988  -9.604  17.854  0.00  0.00    +0.050 A 
ATOM     28  C   UNL     1      -7.498 -10.790  18.382  0.00  0.00    +0.162 A 
BRANCH  26   1
ATOM      1  O   UNL     1      -8.521 -12.926  18.034  0.00  0.00    -0.491 OA
ATOM     32  C   UNL     1      -7.950 -14.141  17.551  0.00  0.00    +0.277 C 
ENDBRANCH  26   1
BRANCH  28   2
ATOM      2  O   UNL     1      -7.481 -10.986  19.729  0.00  0.00    -0.491 OA
ATOM     33  C   UNL     1      -6.237 -11.366  20.313  0.00  0.00    +0.277 C 
ENDBRANCH  28   2
ENDBRANCH  18  21
ENDBRANCH   9  16
BRANCH  10  15
ATOM     15  C   UNL     1      -2.428 -10.024  11.543  0.00  0.00    +0.100 C 
BRANCH  15   5
ATOM      5  N   UNL     1      -2.603 -11.098  12.505  0.00  0.00    -0.309 NA
ATOM     34  H   UNL     1      -2.080 -11.919  12.199  0.00  0.00    +0.122 HD
BRANCH   5  19
ATOM     19  C   UNL     1      -2.148 -10.693  13.830  0.00  0.00    +0.136 C 
BRANCH  19  22
ATOM      7  N   UNL     1      -2.943 -10.680  16.130  0.00  0.00    -0.259 NA
ATOM     22  C   UNL     1      -3.003 -11.282  14.920  0.00  0.00    +0.055 A 
ATOM     25  C   UNL     1      -3.793 -12.386  14.643  0.00  0.00    +0.024 A 
ATOM     29  C   UNL     1      -4.571 -12.906  15.671  0.00  0.00    +0.003 A 
ATOM     30  C   UNL     1      -3.714 -11.212  17.105  0.00  0.00    +0.111 A 
ATOM     31  C   UNL     1      -4.537 -12.313  16.929  0.00  0.00    +0.020 A 
ENDBRANCH  19  22
ENDBRANCH   5  19
ENDBRANCH  15   5
ENDBRANCH  10  15
TORSDOF 8
ENDMDL
MODEL 7
REMARK VINA RESULT:      -6.5      3.431      7.802
REMARK  Name = 44716360
REMARK  11 active torsions:
REMARK  status: ('A' for Active; 'I' for Inactive)
REMARK    1  A    between atoms: O_1  and  C_26
REMARK    2  A    between atoms: O_1  and  C_32
REMARK    3  A    between atoms: O_2  and  C_28
REMARK    4  A    between atoms: O_2  and  C_33
REMARK    5  A    between atoms: N_4  and  C_20
REMARK    6  A    between atoms: N_5  and  C_15
REMARK    7  A    between atoms: N_5  and  C_19
REMARK    8  A    between atoms: C_9  and  C_16
REMARK    9  A    between atoms: C_10  and  C_15
REMARK   10  A    between atoms: C_18  and  C_21
REMARK   11  A    between atoms: C_19  and  C_22
REMARK                            x       y       z     vdW  Elec       q    Type
REMARK                         _______ _______ _______ _____ _____    ______ ____
ROOT
ATOM      3  N   UNL     1      -6.158 -10.182   9.146  0.00  0.00    -0.298 NA
ATOM      8  C   UNL     1      -4.388  -8.740  10.397  0.00  0.00    +0.002 C 
ATOM      9  C   UNL     1      -4.432 -10.178  10.984  0.00  0.00    +0.055 C 
ATOM     10  C   UNL     1      -6.760  -8.889   9.564  0.00  0.00    +0.071 C 
ATOM     11  C   UNL     1      -5.794  -8.111  10.483  0.00  0.00    +0.024 C 
ATOM     12  C   UNL     1      -4.045  -8.882   8.899  0.00  0.00    +0.019 C 
ATOM     13  C   UNL     1      -5.639 -10.909  10.330  0.00  0.00    +0.094 C 
ATOM     14  C   UNL     1      -5.016  -9.883   8.249  0.00  0.00    +0.085 C 
ENDROOT
BRANCH   9  16
ATOM      4  N   UNL     1      -3.261 -10.487  13.214  0.00  0.00    -0.270 N 
ATOM      6  N   UNL     1      -3.457 -10.613  14.538  0.00  0.00    -0.171 NA
ATOM     16  C   UNL     1      -4.411 -10.337  12.498  0.00  0.00    +0.044 A 
ATOM     17  C   UNL     1      -5.432 -10.368  13.416  0.00  0.00    +0.053 A 
ATOM     18  C   UNL     1      -4.785 -10.539  14.656  0.00  0.00    +0.093 A 
ATOM     20  C   UNL     1      -1.913 -10.521  12.695  0.00  0.00    +0.172 C 
BRANCH  18  21
ATOM     21  C   UNL     1      -5.412 -10.636  15.948  0.00  0.00    +0.006 A 
ATOM     23  C   UNL     1      -6.781 -10.400  16.078  0.00  0.00    +0.059 A 
ATOM     24  C   UNL     1      -4.651 -10.963  17.069  0.00  0.00    +0.014 A 
ATOM     26  C   UNL     1      -7.388 -10.493  17.331  0.00  0.00    +0.162 A 
ATOM     27  C   UNL     1      -5.258 -11.056  18.322  0.00  0.00    +0.050 A 
ATOM     28  C   UNL     1      -6.627 -10.821  18.452  0.00  0.00    +0.162 A 
BRANCH  26   1
ATOM      1  O   UNL     1      -8.726 -10.262  17.446  0.00  0.00    -0.491 OA
ATOM     32  C   UNL     1      -9.297  -9.304  16.556  0.00  0.00    +0.277 C 
ENDBRANCH  26   1
BRANCH  28   2
ATOM      2  O   UNL     1      -7.209 -10.915  19.681  0.00  0.00    -0.491 OA
ATOM     33  C   UNL     1      -7.681 -12.201  20.078  0.00  0.00    +0.277 C 
ENDBRANCH  28   2
ENDBRANCH  18  21
ENDBRANCH   9  16
BRANCH  10  15
ATOM     15  C   UNL     1      -8.138  -9.067  10.205  0.00  0.00    +0.100 C 
BRANCH  15   5
ATOM      5  N   UNL     1      -9.185  -9.032   9.198  0.00  0.00    -0.309 NA
ATOM     34  H   UNL     1      -9.361  -9.977   8.856  0.00  0.00    +0.122 HD
BRANCH   5  19
ATOM     19  C   UNL     1     -10.415  -8.470   9.741  0.00  0.00    +0.136 C 
BRANCH  19  22
ATOM      7  N   UNL     1     -11.511  -6.333  10.133  0.00  0.00    -0.259 NA
ATOM     22  C   UNL     1     -10.502  -6.985   9.511  0.00  0.00    +0.055 A 
ATOM     25  C   UNL     1      -9.568  -6.368   8.695  0.00  0.00    +0.024 A 
ATOM     29  C   UNL     1      -9.675  -4.995   8.504  0.00  0.00    +0.003 A 
ATOM     30  C   UNL     1     -11.584  -5.000   9.924  0.00  0.00    +0.111 A 
ATOM     31  C   UNL     1     -10.700  -4.291   9.126  0.00  0.00    +0.020 A 
ENDBRANCH  19  22
ENDBRANCH   5  19
ENDBRANCH  15   5
ENDBRANCH  10  15
TORSDOF 8
ENDMDL
MODEL 8
REMARK VINA RESULT:      -6.4     25.717     29.481
REMARK  Name = 44716360
REMARK  11 active torsions:
REMARK  status: ('A' for Active; 'I' for Inactive)
REMARK    1  A    between atoms: O_1  and  C_26
REMARK    2  A    between atoms: O_1  and  C_32
REMARK    3  A    between atoms: O_2  and  C_28
REMARK    4  A    between atoms: O_2  and  C_33
REMARK    5  A    between atoms: N_4  and  C_20
REMARK    6  A    between atoms: N_5  and  C_15
REMARK    7  A    between atoms: N_5  and  C_19
REMARK    8  A    between atoms: C_9  and  C_16
REMARK    9  A    between atoms: C_10  and  C_15
REMARK   10  A    between atoms: C_18  and  C_21
REMARK   11  A    between atoms: C_19  and  C_22
REMARK                            x       y       z     vdW  Elec       q    Type
REMARK                         _______ _______ _______ _____ _____    ______ ____
ROOT
ATOM      3  N   UNL     1      15.503   6.778  -1.043  0.00  0.00    -0.298 NA
ATOM      8  C   UNL     1      14.732   4.357  -0.473  0.00  0.00    +0.002 C 
ATOM      9  C   UNL     1      13.503   5.281  -0.698  0.00  0.00    +0.055 C 
ATOM     10  C   UNL     1      16.207   6.294   0.173  0.00  0.00    +0.071 C 
ATOM     11  C   UNL     1      15.616   4.948   0.646  0.00  0.00    +0.024 C 
ATOM     12  C   UNL     1      15.561   4.395  -1.774  0.00  0.00    +0.019 C 
ATOM     13  C   UNL     1      14.035   6.737  -0.831  0.00  0.00    +0.094 C 
ATOM     14  C   UNL     1      15.836   5.860  -2.158  0.00  0.00    +0.085 C 
ENDROOT
BRANCH   9  16
ATOM      4  N   UNL     1      11.208   4.464   0.012  0.00  0.00    -0.270 N 
ATOM      6  N   UNL     1      10.298   4.501   1.001  0.00  0.00    -0.171 NA
ATOM     16  C   UNL     1      12.339   5.178   0.277  0.00  0.00    +0.044 A 
ATOM     17  C   UNL     1      12.156   5.721   1.525  0.00  0.00    +0.053 A 
ATOM     18  C   UNL     1      10.883   5.269   1.923  0.00  0.00    +0.093 A 
ATOM     20  C   UNL     1      10.918   3.708  -1.185  0.00  0.00    +0.172 C 
BRANCH  18  21
ATOM     21  C   UNL     1      10.215   5.560   3.164  0.00  0.00    +0.006 A 
ATOM     23  C   UNL     1       9.381   6.674   3.263  0.00  0.00    +0.059 A 
ATOM     24  C   UNL     1      10.402   4.729   4.268  0.00  0.00    +0.014 A 
ATOM     26  C   UNL     1       8.733   6.956   4.466  0.00  0.00    +0.162 A 
ATOM     27  C   UNL     1       9.755   5.011   5.472  0.00  0.00    +0.050 A 
ATOM     28  C   UNL     1       8.920   6.125   5.570  0.00  0.00    +0.162 A 
BRANCH  26   1
ATOM      1  O   UNL     1       7.921   8.046   4.551  0.00  0.00    -0.491 OA
ATOM     32  C   UNL     1       8.551   9.310   4.754  0.00  0.00    +0.277 C 
ENDBRANCH  26   1
BRANCH  28   2
ATOM      2  O   UNL     1       8.293   6.389   6.750  0.00  0.00    -0.491 OA
ATOM     33  C   UNL     1       9.063   7.036   7.762  0.00  0.00    +0.277 C 
ENDBRANCH  28   2
ENDBRANCH  18  21
ENDBRANCH   9  16
BRANCH  10  15
ATOM     15  C   UNL     1      16.221   7.336   1.294  0.00  0.00    +0.100 C 
BRANCH  15   5
ATOM      5  N   UNL     1      15.625   6.798   2.505  0.00  0.00    -0.309 NA
ATOM     34  H   UNL     1      16.039   5.890   2.716  0.00  0.00    +0.122 HD
BRANCH   5  19
ATOM     19  C   UNL     1      15.825   7.701   3.632  0.00  0.00    +0.136 C 
BRANCH  19  22
ATOM      7  N   UNL     1      15.037   7.331   5.905  0.00  0.00    -0.259 NA
ATOM     22  C   UNL     1      14.698   7.615   4.627  0.00  0.00    +0.055 A 
ATOM     25  C   UNL     1      13.397   7.826   4.199  0.00  0.00    +0.024 A 
ATOM     29  C   UNL     1      12.379   7.739   5.143  0.00  0.00    +0.003 A 
ATOM     30  C   UNL     1      14.021   7.255   6.794  0.00  0.00    +0.111 A 
ATOM     31  C   UNL     1      12.689   7.449   6.467  0.00  0.00    +0.020 A 
ENDBRANCH  19  22
ENDBRANCH   5  19
ENDBRANCH  15   5
ENDBRANCH  10  15
TORSDOF 8
ENDMDL
MODEL 9
REMARK VINA RESULT:      -6.3     25.071     28.809
REMARK  Name = 44716360
REMARK  11 active torsions:
REMARK  status: ('A' for Active; 'I' for Inactive)
REMARK    1  A    between atoms: O_1  and  C_26
REMARK    2  A    between atoms: O_1  and  C_32
REMARK    3  A    between atoms: O_2  and  C_28
REMARK    4  A    between atoms: O_2  and  C_33
REMARK    5  A    between atoms: N_4  and  C_20
REMARK    6  A    between atoms: N_5  and  C_15
REMARK    7  A    between atoms: N_5  and  C_19
REMARK    8  A    between atoms: C_9  and  C_16
REMARK    9  A    between atoms: C_10  and  C_15
REMARK   10  A    between atoms: C_18  and  C_21
REMARK   11  A    between atoms: C_19  and  C_22
REMARK                            x       y       z     vdW  Elec       q    Type
REMARK                         _______ _______ _______ _____ _____    ______ ____
ROOT
ATOM      3  N   UNL     1       9.306   6.324  -2.443  0.00  0.00    -0.298 NA
ATOM      8  C   UNL     1      11.788   6.122  -1.679  0.00  0.00    +0.002 C 
ATOM      9  C   UNL     1      10.898   5.102  -0.916  0.00  0.00    +0.055 C 
ATOM     10  C   UNL     1       9.844   7.667  -2.101  0.00  0.00    +0.071 C 
ATOM     11  C   UNL     1      11.239   7.547  -1.452  0.00  0.00    +0.024 C 
ATOM     12  C   UNL     1      11.632   5.810  -3.183  0.00  0.00    +0.019 C 
ATOM     13  C   UNL     1       9.418   5.419  -1.273  0.00  0.00    +0.094 C 
ATOM     14  C   UNL     1      10.136   5.768  -3.539  0.00  0.00    +0.085 C 
ENDROOT
BRANCH   9  16
ATOM      4  N   UNL     1      12.022   4.085   1.120  0.00  0.00    -0.270 N 
ATOM      6  N   UNL     1      12.053   4.095   2.464  0.00  0.00    -0.171 NA
ATOM     16  C   UNL     1      11.110   4.945   0.584  0.00  0.00    +0.044 A 
ATOM     17  C   UNL     1      10.501   5.559   1.650  0.00  0.00    +0.053 A 
ATOM     18  C   UNL     1      11.122   4.998   2.782  0.00  0.00    +0.093 A 
ATOM     20  C   UNL     1      12.914   3.206   0.400  0.00  0.00    +0.172 C 
BRANCH  18  21
ATOM     21  C   UNL     1      10.843   5.305   4.160  0.00  0.00    +0.006 A 
ATOM     23  C   UNL     1      11.647   6.214   4.849  0.00  0.00    +0.059 A 
ATOM     24  C   UNL     1       9.768   4.696   4.807  0.00  0.00    +0.014 A 
ATOM     26  C   UNL     1      11.376   6.512   6.185  0.00  0.00    +0.162 A 
ATOM     27  C   UNL     1       9.498   4.993   6.143  0.00  0.00    +0.050 A 
ATOM     28  C   UNL     1      10.302   5.902   6.832  0.00  0.00    +0.162 A 
BRANCH  26   1
ATOM      1  O   UNL     1      12.168   7.401   6.847  0.00  0.00    -0.491 OA
ATOM     32  C   UNL     1      13.552   7.074   6.964  0.00  0.00    +0.277 C 
ENDBRANCH  26   1
BRANCH  28   2
ATOM      2  O   UNL     1      10.027   6.185   8.135  0.00  0.00    -0.491 OA
ATOM     33  C   UNL     1       9.792   5.078   9.003  0.00  0.00    +0.277 C 
ENDBRANCH  28   2
ENDBRANCH  18  21
ENDBRANCH   9  16
BRANCH  10  15
ATOM     15  C   UNL     1       8.879   8.478  -1.233  0.00  0.00    +0.100 C 
BRANCH  15   5
ATOM      5  N   UNL     1       9.424   8.674   0.100  0.00  0.00    -0.309 NA
ATOM     34  H   UNL     1      10.389   8.998   0.029  0.00  0.00    +0.122 HD
BRANCH   5  19
ATOM     19  C   UNL     1       8.636   9.644   0.850  0.00  0.00    +0.136 C 
BRANCH  19  22
ATOM      7  N   UNL     1       9.222  10.376   3.096  0.00  0.00    -0.259 NA
ATOM     22  C   UNL     1       8.699   9.390   2.333  0.00  0.00    +0.055 A 
ATOM     25  C   UNL     1       8.228   8.188   2.836  0.00  0.00    +0.024 A 
ATOM     29  C   UNL     1       8.300   7.984   4.210  0.00  0.00    +0.003 A 
ATOM     30  C   UNL     1       9.275  10.143   4.426  0.00  0.00    +0.111 A 
ATOM     31  C   UNL     1       8.831   8.976   5.027  0.00  0.00    +0.020 A 
ENDBRANCH  19  22
ENDBRANCH   5  19
ENDBRANCH  15   5
ENDBRANCH  10  15
TORSDOF 8
ENDMDL
MODEL 10
REMARK VINA RESULT:      -6.2     22.016     25.090
REMARK  Name = 44716360
REMARK  11 active torsions:
REMARK  status: ('A' for Active; 'I' for Inactive)
REMARK    1  A    between atoms: O_1  and  C_26
REMARK    2  A    between atoms: O_1  and  C_32
REMARK    3  A    between atoms: O_2  and  C_28
REMARK    4  A    between atoms: O_2  and  C_33
REMARK    5  A    between atoms: N_4  and  C_20
REMARK    6  A    between atoms: N_5  and  C_15
REMARK    7  A    between atoms: N_5  and  C_19
REMARK    8  A    between atoms: C_9  and  C_16
REMARK    9  A    between atoms: C_10  and  C_15
REMARK   10  A    between atoms: C_18  and  C_21
REMARK   11  A    between atoms: C_19  and  C_22
REMARK                            x       y       z     vdW  Elec       q    Type
REMARK                         _______ _______ _______ _____ _____    ______ ____
ROOT
ATOM      3  N   UNL     1     -16.357   4.376  31.693  0.00  0.00    -0.298 NA
ATOM      8  C   UNL     1     -17.148   6.787  32.279  0.00  0.00    +0.002 C 
ATOM      9  C   UNL     1     -15.848   6.832  31.429  0.00  0.00    +0.055 C 
ATOM     10  C   UNL     1     -16.629   4.482  33.150  0.00  0.00    +0.071 C 
ATOM     11  C   UNL     1     -16.898   5.948  33.550  0.00  0.00    +0.024 C 
ATOM     12  C   UNL     1     -18.203   6.034  31.439  0.00  0.00    +0.019 C 
ATOM     13  C   UNL     1     -15.332   5.371  31.293  0.00  0.00    +0.094 C 
ATOM     14  C   UNL     1     -17.614   4.691  30.972  0.00  0.00    +0.085 C 
ENDROOT
BRANCH   9  16
ATOM      4  N   UNL     1     -14.728   9.109  31.477  0.00  0.00    -0.270 N 
ATOM      6  N   UNL     1     -13.671   9.791  31.951  0.00  0.00    -0.171 NA
ATOM     16  C   UNL     1     -14.748   7.797  31.849  0.00  0.00    +0.044 A 
ATOM     17  C   UNL     1     -13.627   7.608  32.619  0.00  0.00    +0.053 A 
ATOM     18  C   UNL     1     -13.002   8.869  32.648  0.00  0.00    +0.093 A 
ATOM     20  C   UNL     1     -15.699   9.793  30.654  0.00  0.00    +0.172 C 
BRANCH  18  21
ATOM     21  C   UNL     1     -11.780   9.210  33.326  0.00  0.00    +0.006 A 
ATOM     23  C   UNL     1     -11.706   9.122  34.717  0.00  0.00    +0.059 A 
ATOM     24  C   UNL     1     -10.669   9.628  32.595  0.00  0.00    +0.014 A 
ATOM     26  C   UNL     1     -10.521   9.453  35.375  0.00  0.00    +0.162 A 
ATOM     27  C   UNL     1      -9.484   9.959  33.253  0.00  0.00    +0.050 A 
ATOM     28  C   UNL     1      -9.410   9.870  34.643  0.00  0.00    +0.162 A 
BRANCH  26   1
ATOM      1  O   UNL     1     -10.461   9.362  36.733  0.00  0.00    -0.491 OA
ATOM     32  C   UNL     1     -10.339   8.055  37.291  0.00  0.00    +0.277 C 
ENDBRANCH  26   1
BRANCH  28   2
ATOM      2  O   UNL     1      -8.248  10.195  35.274  0.00  0.00    -0.491 OA
ATOM     33  C   UNL     1      -7.949  11.583  35.408  0.00  0.00    +0.277 C 
ENDBRANCH  28   2
ENDBRANCH  18  21
ENDBRANCH   9  16
BRANCH  10  15
ATOM     15  C   UNL     1     -15.519   3.854  33.998  0.00  0.00    +0.100 C 
BRANCH  15   5
ATOM      5  N   UNL     1     -15.569   2.404  33.922  0.00  0.00    -0.309 NA
ATOM     34  H   UNL     1     -16.310   2.121  33.280  0.00  0.00    +0.122 HD
BRANCH   5  19
ATOM     19  C   UNL     1     -14.295   1.859  33.471  0.00  0.00    +0.136 C 
BRANCH  19  22
ATOM      7  N   UNL     1     -13.863   2.021  31.082  0.00  0.00    -0.259 NA
ATOM     22  C   UNL     1     -14.391   1.282  32.084  0.00  0.00    +0.055 A 
ATOM     25  C   UNL     1     -14.998   0.050  31.901  0.00  0.00    +0.024 A 
ATOM     29  C   UNL     1     -15.071  -0.455  30.608  0.00  0.00    +0.003 A 
ATOM     30  C   UNL     1     -13.951   1.498  29.839  0.00  0.00    +0.111 A 
ATOM     31  C   UNL     1     -14.539   0.276  29.552  0.00  0.00    +0.020 A 
ENDBRANCH  19  22
ENDBRANCH   5  19
ENDBRANCH  15   5
ENDBRANCH  10  15
TORSDOF 8
ENDMDL
