MODEL 1
REMARK VINA RESULT:      -6.6      0.000      0.000
REMARK  Name = 11882524
REMARK  11 active torsions:
REMARK  status: ('A' for Active; 'I' for Inactive)
REMARK    1  A    between atoms: S_1  and  N_10
REMARK    2  A    between atoms: S_1  and  C_22
REMARK    3  A    between atoms: O_3  and  C_13
REMARK    4  A    between atoms: O_4  and  C_15
REMARK    5  A    between atoms: O_9  and  C_32
REMARK    6  A    between atoms: N_10  and  C_14
REMARK    7  A    between atoms: N_11  and  C_20
REMARK    8  A    between atoms: C_17  and  C_19
REMARK    9  A    between atoms: C_20  and  C_21
REMARK   10  A    between atoms: C_20  and  C_24
REMARK   11  A    between atoms: C_21  and  C_23
REMARK                            x       y       z     vdW  Elec       q    Type
REMARK                         _______ _______ _______ _____ _____    ______ ____
ROOT
ATOM     13  C   UNL     1      15.404  12.172  23.500  0.00  0.00    +0.166 C 
ATOM     14  C   UNL     1      15.739  10.992  22.570  0.00  0.00    +0.131 C 
ATOM     15  C   UNL     1      14.222  11.842  24.419  0.00  0.00    +0.149 C 
ATOM     16  C   UNL     1      12.974  11.418  23.626  0.00  0.00    +0.074 C 
ATOM     17  C   UNL     1      13.288  10.565  22.429  0.00  0.00    +0.015 C 
ATOM     18  C   UNL     1      14.523  10.360  21.950  0.00  0.00    +0.004 C 
ENDROOT
BRANCH  17  19
ATOM      5  O   UNL     1      11.056  10.404  21.711  0.00  0.00    -0.271 OA
ATOM     11  N   UNL     1      12.539   8.683  21.186  0.00  0.00    -0.300 N 
ATOM     19  C   UNL     1      12.177   9.895  21.747  0.00  0.00    +0.241 C 
ATOM     36  H   UNL     1      13.473   8.321  21.355  0.00  0.00    +0.150 HD
BRANCH  11  20
ATOM     20  C   UNL     1      11.613   7.839  20.465  0.00  0.00    +0.163 C 
BRANCH  20  24
ATOM      8  O   UNL     1      11.442   5.787  21.756  0.00  0.00    -0.274 OA
ATOM     12  N   UNL     1       9.875   7.434  22.093  0.00  0.00    -0.328 N 
ATOM     24  C   UNL     1      10.985   6.894  21.479  0.00  0.00    +0.231 C 
ATOM     37  H   UNL     1       9.369   6.914  22.802  0.00  0.00    +0.145 HD
ATOM     38  H   UNL     1       9.511   8.351  21.857  0.00  0.00    +0.145 HD
ENDBRANCH  20  24
BRANCH  20  21
ATOM     21  C   UNL     1      12.304   7.045  19.350  0.00  0.00    +0.067 C 
BRANCH  21  23
ATOM     23  C   UNL     1      12.603   7.886  18.133  0.00  0.00    -0.045 A 
ATOM     26  C   UNL     1      13.923   8.082  17.728  0.00  0.00    +0.007 A 
ATOM     27  C   UNL     1      11.559   8.469  17.415  0.00  0.00    +0.007 A 
ATOM     30  C   UNL     1      14.199   8.860  16.603  0.00  0.00    +0.045 A 
ATOM     31  C   UNL     1      11.835   9.247  16.291  0.00  0.00    +0.045 A 
ATOM     32  C   UNL     1      13.155   9.441  15.885  0.00  0.00    +0.117 A 
BRANCH  32   9
ATOM      9  O   UNL     1      13.425  10.200  14.788  0.00  0.00    -0.507 OA
ATOM     39  H   UNL     1      13.134  11.113  14.957  0.00  0.00    +0.292 HD
ENDBRANCH  32   9
ENDBRANCH  21  23
ENDBRANCH  20  21
ENDBRANCH  11  20
ENDBRANCH  17  19
BRANCH  13   3
ATOM      3  O   UNL     1      15.071  13.323  22.722  0.00  0.00    -0.387 OA
ATOM     34  H   UNL     1      14.278  13.724  23.116  0.00  0.00    +0.210 HD
ENDBRANCH  13   3
BRANCH  15   4
ATOM      4  O   UNL     1      14.586  10.816  25.341  0.00  0.00    -0.389 OA
ATOM     35  H   UNL     1      14.055  10.029  25.131  0.00  0.00    +0.210 HD
ENDBRANCH  15   4
BRANCH  14  10
ATOM     10  N   UNL     1      16.658  11.444  21.495  0.00  0.00    -0.180 NA
ATOM     33  H   UNL     1      16.599  12.442  21.258  0.00  0.00    +0.149 HD
BRANCH  10   1
ATOM      1  S   UNL     1      18.180  10.674  21.373  0.00  0.00    +0.065 S 
ATOM      6  O   UNL     1      18.840  10.702  22.663  0.00  0.00    -0.153 OA
ATOM      7  O   UNL     1      18.845  11.144  20.175  0.00  0.00    -0.153 OA
BRANCH   1  22
ATOM      2  S   UNL     1      19.091   7.873  21.583  0.00  0.00    -0.077 S 
ATOM     22  C   UNL     1      17.871   8.941  21.032  0.00  0.00    +0.142 A 
ATOM     25  C   UNL     1      16.841   8.272  20.407  0.00  0.00    +0.036 A 
ATOM     28  C   UNL     1      17.056   6.864  20.381  0.00  0.00    +0.010 A 
ATOM     29  C   UNL     1      18.242   6.510  20.986  0.00  0.00    +0.047 A 
ENDBRANCH   1  22
ENDBRANCH  10   1
ENDBRANCH  14  10
TORSDOF 11
ENDMDL
MODEL 2
REMARK VINA RESULT:      -6.5      3.486      7.568
REMARK  Name = 11882524
REMARK  11 active torsions:
REMARK  status: ('A' for Active; 'I' for Inactive)
REMARK    1  A    between atoms: S_1  and  N_10
REMARK    2  A    between atoms: S_1  and  C_22
REMARK    3  A    between atoms: O_3  and  C_13
REMARK    4  A    between atoms: O_4  and  C_15
REMARK    5  A    between atoms: O_9  and  C_32
REMARK    6  A    between atoms: N_10  and  C_14
REMARK    7  A    between atoms: N_11  and  C_20
REMARK    8  A    between atoms: C_17  and  C_19
REMARK    9  A    between atoms: C_20  and  C_21
REMARK   10  A    between atoms: C_20  and  C_24
REMARK   11  A    between atoms: C_21  and  C_23
REMARK                            x       y       z     vdW  Elec       q    Type
REMARK                         _______ _______ _______ _____ _____    ______ ____
ROOT
ATOM     13  C   UNL     1      10.771   7.723  21.181  0.00  0.00    +0.166 C 
ATOM     14  C   UNL     1      11.628   8.594  22.119  0.00  0.00    +0.131 C 
ATOM     15  C   UNL     1      11.518   6.451  20.763  0.00  0.00    +0.149 C 
ATOM     16  C   UNL     1      12.874   6.763  20.109  0.00  0.00    +0.074 C 
ATOM     17  C   UNL     1      13.599   7.910  20.756  0.00  0.00    +0.015 C 
ATOM     18  C   UNL     1      13.055   8.734  21.663  0.00  0.00    +0.004 C 
ENDROOT
BRANCH  17  19
ATOM      5  O   UNL     1      15.431   9.279  20.216  0.00  0.00    -0.271 OA
ATOM     11  N   UNL     1      15.724   6.966  20.267  0.00  0.00    -0.300 N 
ATOM     19  C   UNL     1      15.000   8.139  20.389  0.00  0.00    +0.241 C 
ATOM     36  H   UNL     1      15.241   6.076  20.347  0.00  0.00    +0.150 HD
BRANCH  11  20
ATOM     20  C   UNL     1      17.125   6.937  19.911  0.00  0.00    +0.163 C 
BRANCH  20  24
ATOM      8  O   UNL     1      16.495   5.581  17.995  0.00  0.00    -0.274 OA
ATOM     12  N   UNL     1      18.497   5.150  19.037  0.00  0.00    -0.328 N 
ATOM     24  C   UNL     1      17.303   5.825  18.888  0.00  0.00    +0.231 C 
ATOM     37  H   UNL     1      18.748   4.393  18.410  0.00  0.00    +0.145 HD
ATOM     38  H   UNL     1      19.157   5.365  19.777  0.00  0.00    +0.145 HD
ENDBRANCH  20  24
BRANCH  20  21
ATOM     21  C   UNL     1      18.026   6.695  21.127  0.00  0.00    +0.067 C 
BRANCH  21  23
ATOM     23  C   UNL     1      19.045   7.790  21.326  0.00  0.00    -0.045 A 
ATOM     26  C   UNL     1      18.625   9.096  21.581  0.00  0.00    +0.007 A 
ATOM     27  C   UNL     1      20.407   7.497  21.253  0.00  0.00    +0.007 A 
ATOM     30  C   UNL     1      19.568  10.107  21.765  0.00  0.00    +0.045 A 
ATOM     31  C   UNL     1      21.349   8.509  21.436  0.00  0.00    +0.045 A 
ATOM     32  C   UNL     1      20.929   9.814  21.693  0.00  0.00    +0.117 A 
BRANCH  32   9
ATOM      9  O   UNL     1      21.848  10.802  21.872  0.00  0.00    -0.507 OA
ATOM     39  H   UNL     1      21.825  11.396  21.102  0.00  0.00    +0.292 HD
ENDBRANCH  32   9
ENDBRANCH  21  23
ENDBRANCH  20  21
ENDBRANCH  11  20
ENDBRANCH  17  19
BRANCH  13   3
ATOM      3  O   UNL     1      10.436   8.463  20.006  0.00  0.00    -0.387 OA
ATOM     34  H   UNL     1      10.415   7.838  19.262  0.00  0.00    +0.210 HD
ENDBRANCH  13   3
BRANCH  15   4
ATOM      4  O   UNL     1      11.705   5.597  21.890  0.00  0.00    -0.389 OA
ATOM     35  H   UNL     1      11.019   5.817  22.543  0.00  0.00    +0.210 HD
ENDBRANCH  15   4
BRANCH  14  10
ATOM     10  N   UNL     1      11.020   9.942  22.248  0.00  0.00    -0.180 NA
ATOM     33  H   UNL     1      10.024  10.000  22.004  0.00  0.00    +0.149 HD
BRANCH  10   1
ATOM      1  S   UNL     1      11.609  10.965  23.484  0.00  0.00    +0.065 S 
ATOM      6  O   UNL     1      13.034  11.165  23.309  0.00  0.00    -0.153 OA
ATOM      7  O   UNL     1      11.059  10.527  24.752  0.00  0.00    -0.153 OA
BRANCH   1  22
ATOM      2  S   UNL     1      11.112  13.250  21.682  0.00  0.00    -0.077 S 
ATOM     22  C   UNL     1      10.866  12.578  23.237  0.00  0.00    +0.142 A 
ATOM     25  C   UNL     1      10.125  13.409  24.049  0.00  0.00    +0.036 A 
ATOM     28  C   UNL     1       9.754  14.613  23.385  0.00  0.00    +0.010 A 
ATOM     29  C   UNL     1      10.225  14.658  22.091  0.00  0.00    +0.047 A 
ENDBRANCH   1  22
ENDBRANCH  10   1
ENDBRANCH  14  10
TORSDOF 11
ENDMDL
MODEL 3
REMARK VINA RESULT:      -6.4      4.418      8.735
REMARK  Name = 11882524
REMARK  11 active torsions:
REMARK  status: ('A' for Active; 'I' for Inactive)
REMARK    1  A    between atoms: S_1  and  N_10
REMARK    2  A    between atoms: S_1  and  C_22
REMARK    3  A    between atoms: O_3  and  C_13
REMARK    4  A    between atoms: O_4  and  C_15
REMARK    5  A    between atoms: O_9  and  C_32
REMARK    6  A    between atoms: N_10  and  C_14
REMARK    7  A    between atoms: N_11  and  C_20
REMARK    8  A    between atoms: C_17  and  C_19
REMARK    9  A    between atoms: C_20  and  C_21
REMARK   10  A    between atoms: C_20  and  C_24
REMARK   11  A    between atoms: C_21  and  C_23
REMARK                            x       y       z     vdW  Elec       q    Type
REMARK                         _______ _______ _______ _____ _____    ______ ____
ROOT
ATOM     13  C   UNL     1      14.737   8.787  21.305  0.00  0.00    +0.166 C 
ATOM     14  C   UNL     1      14.820   7.461  20.526  0.00  0.00    +0.131 C 
ATOM     15  C   UNL     1      16.012   9.620  21.127  0.00  0.00    +0.149 C 
ATOM     16  C   UNL     1      17.275   8.842  21.533  0.00  0.00    +0.074 C 
ATOM     17  C   UNL     1      17.235   7.392  21.139  0.00  0.00    +0.015 C 
ATOM     18  C   UNL     1      16.144   6.763  20.679  0.00  0.00    +0.004 C 
ENDROOT
BRANCH  17  19
ATOM      5  O   UNL     1      18.766   5.774  20.392  0.00  0.00    -0.271 OA
ATOM     11  N   UNL     1      19.217   6.931  22.365  0.00  0.00    -0.300 N 
ATOM     19  C   UNL     1      18.472   6.613  21.243  0.00  0.00    +0.241 C 
ATOM     36  H   UNL     1      18.833   7.579  23.046  0.00  0.00    +0.150 HD
BRANCH  11  20
ATOM     20  C   UNL     1      20.475   6.293  22.684  0.00  0.00    +0.163 C 
BRANCH  20  24
ATOM      8  O   UNL     1      21.977   6.519  24.581  0.00  0.00    -0.274 OA
ATOM     12  N   UNL     1      20.083   7.819  24.516  0.00  0.00    -0.328 N 
ATOM     24  C   UNL     1      20.935   6.854  24.021  0.00  0.00    +0.231 C 
ATOM     37  H   UNL     1      20.281   8.286  25.395  0.00  0.00    +0.145 HD
ATOM     38  H   UNL     1      19.228   8.089  24.041  0.00  0.00    +0.145 HD
ENDBRANCH  20  24
BRANCH  20  21
ATOM     21  C   UNL     1      21.537   6.538  21.607  0.00  0.00    +0.067 C 
BRANCH  21  23
ATOM     23  C   UNL     1      22.314   5.292  21.258  0.00  0.00    -0.045 A 
ATOM     26  C   UNL     1      23.546   5.395  20.612  0.00  0.00    +0.007 A 
ATOM     27  C   UNL     1      21.799   4.036  21.581  0.00  0.00    +0.007 A 
ATOM     30  C   UNL     1      24.263   4.243  20.291  0.00  0.00    +0.045 A 
ATOM     31  C   UNL     1      22.516   2.885  21.258  0.00  0.00    +0.045 A 
ATOM     32  C   UNL     1      23.748   2.988  20.614  0.00  0.00    +0.117 A 
BRANCH  32   9
ATOM      9  O   UNL     1      24.448   1.864  20.300  0.00  0.00    -0.507 OA
ATOM     39  H   UNL     1      25.400   2.064  20.343  0.00  0.00    +0.292 HD
ENDBRANCH  32   9
ENDBRANCH  21  23
ENDBRANCH  20  21
ENDBRANCH  11  20
ENDBRANCH  17  19
BRANCH  13   3
ATOM      3  O   UNL     1      14.557   8.520  22.698  0.00  0.00    -0.387 OA
ATOM     34  H   UNL     1      14.928   9.271  23.190  0.00  0.00    +0.210 HD
ENDBRANCH  13   3
BRANCH  15   4
ATOM      4  O   UNL     1      16.125  10.063  19.776  0.00  0.00    -0.389 OA
ATOM     35  H   UNL     1      17.000  10.473  19.672  0.00  0.00    +0.210 HD
ENDBRANCH  15   4
BRANCH  14  10
ATOM     10  N   UNL     1      13.733   6.551  20.966  0.00  0.00    -0.180 NA
ATOM     33  H   UNL     1      13.837   6.168  21.913  0.00  0.00    +0.149 HD
BRANCH  10   1
ATOM      1  S   UNL     1      12.153   6.863  20.391  0.00  0.00    +0.065 S 
ATOM      6  O   UNL     1      11.235   5.890  20.947  0.00  0.00    -0.153 OA
ATOM      7  O   UNL     1      12.217   7.110  18.964  0.00  0.00    -0.153 OA
BRANCH   1  22
ATOM      2  S   UNL     1      10.866   8.353  22.592  0.00  0.00    -0.077 S 
ATOM     22  C   UNL     1      11.644   8.443  21.070  0.00  0.00    +0.142 A 
ATOM     25  C   UNL     1      11.747   9.741  20.617  0.00  0.00    +0.036 A 
ATOM     28  C   UNL     1      11.181  10.673  21.533  0.00  0.00    +0.010 A 
ATOM     29  C   UNL     1      10.665  10.053  22.650  0.00  0.00    +0.047 A 
ENDBRANCH   1  22
ENDBRANCH  10   1
ENDBRANCH  14  10
TORSDOF 11
ENDMDL
MODEL 4
REMARK VINA RESULT:      -6.4     14.532     18.104
REMARK  Name = 11882524
REMARK  11 active torsions:
REMARK  status: ('A' for Active; 'I' for Inactive)
REMARK    1  A    between atoms: S_1  and  N_10
REMARK    2  A    between atoms: S_1  and  C_22
REMARK    3  A    between atoms: O_3  and  C_13
REMARK    4  A    between atoms: O_4  and  C_15
REMARK    5  A    between atoms: O_9  and  C_32
REMARK    6  A    between atoms: N_10  and  C_14
REMARK    7  A    between atoms: N_11  and  C_20
REMARK    8  A    between atoms: C_17  and  C_19
REMARK    9  A    between atoms: C_20  and  C_21
REMARK   10  A    between atoms: C_20  and  C_24
REMARK   11  A    between atoms: C_21  and  C_23
REMARK                            x       y       z     vdW  Elec       q    Type
REMARK                         _______ _______ _______ _____ _____    ______ ____
ROOT
ATOM     13  C   UNL     1      13.447   7.010   2.513  0.00  0.00    +0.166 C 
ATOM     14  C   UNL     1      12.416   5.983   3.016  0.00  0.00    +0.131 C 
ATOM     15  C   UNL     1      14.464   7.362   3.606  0.00  0.00    +0.149 C 
ATOM     16  C   UNL     1      13.785   7.873   4.887  0.00  0.00    +0.074 C 
ATOM     17  C   UNL     1      12.511   7.147   5.218  0.00  0.00    +0.015 C 
ATOM     18  C   UNL     1      11.891   6.291   4.392  0.00  0.00    +0.004 C 
ENDROOT
BRANCH  17  19
ATOM      5  O   UNL     1      12.241   8.333   7.228  0.00  0.00    -0.271 OA
ATOM     11  N   UNL     1      10.982   6.401   6.878  0.00  0.00    -0.300 N 
ATOM     19  C   UNL     1      11.911   7.368   6.537  0.00  0.00    +0.241 C 
ATOM     36  H   UNL     1      10.855   5.601   6.265  0.00  0.00    +0.150 HD
BRANCH  11  20
ATOM     20  C   UNL     1      10.261   6.406   8.131  0.00  0.00    +0.163 C 
BRANCH  20  24
ATOM      8  O   UNL     1      10.115   4.644   9.798  0.00  0.00    -0.274 OA
ATOM     12  N   UNL     1      10.182   4.055   7.578  0.00  0.00    -0.328 N 
ATOM     24  C   UNL     1      10.194   4.965   8.614  0.00  0.00    +0.231 C 
ATOM     37  H   UNL     1      10.124   3.058   7.761  0.00  0.00    +0.145 HD
ATOM     38  H   UNL     1      10.245   4.334   6.604  0.00  0.00    +0.145 HD
ENDBRANCH  20  24
BRANCH  20  21
ATOM     21  C   UNL     1       8.851   6.987   7.984  0.00  0.00    +0.067 C 
BRANCH  21  23
ATOM     23  C   UNL     1       8.606   7.589   6.621  0.00  0.00    -0.045 A 
ATOM     26  C   UNL     1       8.290   6.765   5.541  0.00  0.00    +0.007 A 
ATOM     27  C   UNL     1       8.697   8.969   6.443  0.00  0.00    +0.007 A 
ATOM     30  C   UNL     1       8.065   7.322   4.282  0.00  0.00    +0.045 A 
ATOM     31  C   UNL     1       8.472   9.526   5.184  0.00  0.00    +0.045 A 
ATOM     32  C   UNL     1       8.155   8.703   4.104  0.00  0.00    +0.117 A 
BRANCH  32   9
ATOM      9  O   UNL     1       7.934   9.246   2.876  0.00  0.00    -0.507 OA
ATOM     39  H   UNL     1       7.530  10.123   2.988  0.00  0.00    +0.292 HD
ENDBRANCH  32   9
ENDBRANCH  21  23
ENDBRANCH  20  21
ENDBRANCH  11  20
ENDBRANCH  17  19
BRANCH  13   3
ATOM      3  O   UNL     1      12.780   8.207   2.107  0.00  0.00    -0.387 OA
ATOM     34  H   UNL     1      12.762   8.806   2.873  0.00  0.00    +0.210 HD
ENDBRANCH  13   3
BRANCH  15   4
ATOM      4  O   UNL     1      15.278   6.228   3.903  0.00  0.00    -0.389 OA
ATOM     35  H   UNL     1      15.408   6.204   4.866  0.00  0.00    +0.210 HD
ENDBRANCH  15   4
BRANCH  14  10
ATOM     10  N   UNL     1      11.279   5.905   2.065  0.00  0.00    -0.180 NA
ATOM     33  H   UNL     1      11.120   6.749   1.500  0.00  0.00    +0.149 HD
BRANCH  10   1
ATOM      1  S   UNL     1      10.935   4.386   1.360  0.00  0.00    +0.065 S 
ATOM      6  O   UNL     1       9.650   4.444   0.691  0.00  0.00    -0.153 OA
ATOM      7  O   UNL     1      11.237   3.346   2.323  0.00  0.00    -0.153 OA
BRANCH   1  22
ATOM      2  S   UNL     1      11.471   3.864  -1.497  0.00  0.00    -0.077 S 
ATOM     22  C   UNL     1      12.139   4.119   0.059  0.00  0.00    +0.142 A 
ATOM     25  C   UNL     1      13.517   4.074   0.045  0.00  0.00    +0.036 A 
ATOM     28  C   UNL     1      14.030   3.827  -1.261  0.00  0.00    +0.010 A 
ATOM     29  C   UNL     1      13.026   3.692  -2.195  0.00  0.00    +0.047 A 
ENDBRANCH   1  22
ENDBRANCH  10   1
ENDBRANCH  14  10
TORSDOF 11
ENDMDL
MODEL 5
REMARK VINA RESULT:      -6.3     13.747     15.776
REMARK  Name = 11882524
REMARK  11 active torsions:
REMARK  status: ('A' for Active; 'I' for Inactive)
REMARK    1  A    between atoms: S_1  and  N_10
REMARK    2  A    between atoms: S_1  and  C_22
REMARK    3  A    between atoms: O_3  and  C_13
REMARK    4  A    between atoms: O_4  and  C_15
REMARK    5  A    between atoms: O_9  and  C_32
REMARK    6  A    between atoms: N_10  and  C_14
REMARK    7  A    between atoms: N_11  and  C_20
REMARK    8  A    between atoms: C_17  and  C_19
REMARK    9  A    between atoms: C_20  and  C_21
REMARK   10  A    between atoms: C_20  and  C_24
REMARK   11  A    between atoms: C_21  and  C_23
REMARK                            x       y       z     vdW  Elec       q    Type
REMARK                         _______ _______ _______ _____ _____    ______ ____
ROOT
ATOM     13  C   UNL     1      15.918  10.290   5.384  0.00  0.00    +0.166 C 
ATOM     14  C   UNL     1      16.430   8.974   5.997  0.00  0.00    +0.131 C 
ATOM     15  C   UNL     1      14.571  10.703   5.990  0.00  0.00    +0.149 C 
ATOM     16  C   UNL     1      13.509   9.601   5.848  0.00  0.00    +0.074 C 
ATOM     17  C   UNL     1      14.056   8.215   6.046  0.00  0.00    +0.015 C 
ATOM     18  C   UNL     1      15.362   7.921   6.123  0.00  0.00    +0.004 C 
ENDROOT
BRANCH  17  19
ATOM      5  O   UNL     1      13.035   6.461   7.230  0.00  0.00    -0.271 OA
ATOM     11  N   UNL     1      12.342   6.906   5.049  0.00  0.00    -0.300 N 
ATOM     19  C   UNL     1      13.104   7.109   6.186  0.00  0.00    +0.241 C 
ATOM     36  H   UNL     1      12.547   7.447   4.213  0.00  0.00    +0.150 HD
BRANCH  11  20
ATOM     20  C   UNL     1      11.338   5.871   4.946  0.00  0.00    +0.163 C 
BRANCH  20  24
ATOM      8  O   UNL     1      10.172   5.376   2.871  0.00  0.00    -0.274 OA
ATOM     12  N   UNL     1      12.470   5.334   2.879  0.00  0.00    -0.328 N 
ATOM     24  C   UNL     1      11.236   5.490   3.476  0.00  0.00    +0.231 C 
ATOM     37  H   UNL     1      12.545   5.094   1.896  0.00  0.00    +0.145 HD
ATOM     38  H   UNL     1      13.341   5.435   3.390  0.00  0.00    +0.145 HD
ENDBRANCH  20  24
BRANCH  20  21
ATOM     21  C   UNL     1       9.975   6.333   5.474  0.00  0.00    +0.067 C 
BRANCH  21  23
ATOM     23  C   UNL     1       9.700   5.855   6.879  0.00  0.00    -0.045 A 
ATOM     26  C   UNL     1       9.943   4.525   7.223  0.00  0.00    +0.007 A 
ATOM     27  C   UNL     1       9.201   6.742   7.832  0.00  0.00    +0.007 A 
ATOM     30  C   UNL     1       9.689   4.084   8.522  0.00  0.00    +0.045 A 
ATOM     31  C   UNL     1       8.946   6.301   9.130  0.00  0.00    +0.045 A 
ATOM     32  C   UNL     1       9.191   4.972   9.475  0.00  0.00    +0.117 A 
BRANCH  32   9
ATOM      9  O   UNL     1       8.943   4.541  10.741  0.00  0.00    -0.507 OA
ATOM     39  H   UNL     1       9.780   4.521  11.237  0.00  0.00    +0.292 HD
ENDBRANCH  32   9
ENDBRANCH  21  23
ENDBRANCH  20  21
ENDBRANCH  11  20
ENDBRANCH  17  19
BRANCH  13   3
ATOM      3  O   UNL     1      15.755  10.135   3.972  0.00  0.00    -0.387 OA
ATOM     34  H   UNL     1      16.610  10.333   3.555  0.00  0.00    +0.210 HD
ENDBRANCH  13   3
BRANCH  15   4
ATOM      4  O   UNL     1      14.736  11.048   7.364  0.00  0.00    -0.389 OA
ATOM     35  H   UNL     1      14.753  12.018   7.425  0.00  0.00    +0.210 HD
ENDBRANCH  15   4
BRANCH  14  10
ATOM     10  N   UNL     1      17.549   8.441   5.182  0.00  0.00    -0.180 NA
ATOM     33  H   UNL     1      17.357   8.352   4.176  0.00  0.00    +0.149 HD
BRANCH  10   1
ATOM      1  S   UNL     1      19.142   8.830   5.668  0.00  0.00    +0.065 S 
ATOM      6  O   UNL     1      19.350   8.394   7.034  0.00  0.00    -0.153 OA
ATOM      7  O   UNL     1      19.436  10.188   5.256  0.00  0.00    -0.153 OA
BRANCH   1  22
ATOM      2  S   UNL     1      20.281   8.235   3.009  0.00  0.00    -0.077 S 
ATOM     22  C   UNL     1      20.257   7.837   4.674  0.00  0.00    +0.142 A 
ATOM     25  C   UNL     1      21.115   6.801   4.972  0.00  0.00    +0.036 A 
ATOM     28  C   UNL     1      21.802   6.328   3.817  0.00  0.00    +0.010 A 
ATOM     29  C   UNL     1      21.443   7.019   2.681  0.00  0.00    +0.047 A 
ENDBRANCH   1  22
ENDBRANCH  10   1
ENDBRANCH  14  10
TORSDOF 11
ENDMDL
MODEL 6
REMARK VINA RESULT:      -6.3      2.761      6.802
REMARK  Name = 11882524
REMARK  11 active torsions:
REMARK  status: ('A' for Active; 'I' for Inactive)
REMARK    1  A    between atoms: S_1  and  N_10
REMARK    2  A    between atoms: S_1  and  C_22
REMARK    3  A    between atoms: O_3  and  C_13
REMARK    4  A    between atoms: O_4  and  C_15
REMARK    5  A    between atoms: O_9  and  C_32
REMARK    6  A    between atoms: N_10  and  C_14
REMARK    7  A    between atoms: N_11  and  C_20
REMARK    8  A    between atoms: C_17  and  C_19
REMARK    9  A    between atoms: C_20  and  C_21
REMARK   10  A    between atoms: C_20  and  C_24
REMARK   11  A    between atoms: C_21  and  C_23
REMARK                            x       y       z     vdW  Elec       q    Type
REMARK                         _______ _______ _______ _____ _____    ______ ____
ROOT
ATOM     13  C   UNL     1      10.980  10.616  23.263  0.00  0.00    +0.166 C 
ATOM     14  C   UNL     1      11.858   9.880  22.234  0.00  0.00    +0.131 C 
ATOM     15  C   UNL     1      11.386  12.089  23.393  0.00  0.00    +0.149 C 
ATOM     16  C   UNL     1      12.873  12.251  23.749  0.00  0.00    +0.074 C 
ATOM     17  C   UNL     1      13.765  11.259  23.056  0.00  0.00    +0.015 C 
ATOM     18  C   UNL     1      13.322  10.196  22.367  0.00  0.00    +0.004 C 
ENDROOT
BRANCH  17  19
ATOM      5  O   UNL     1      15.726  12.081  24.055  0.00  0.00    -0.271 OA
ATOM     11  N   UNL     1      15.885  10.927  22.035  0.00  0.00    -0.300 N 
ATOM     19  C   UNL     1      15.214  11.471  23.116  0.00  0.00    +0.241 C 
ATOM     36  H   UNL     1      15.348  10.521  21.274  0.00  0.00    +0.150 HD
BRANCH  11  20
ATOM     20  C   UNL     1      17.319  11.011  21.873  0.00  0.00    +0.163 C 
BRANCH  20  24
ATOM      8  O   UNL     1      17.340  12.866  20.302  0.00  0.00    -0.274 OA
ATOM     12  N   UNL     1      18.244  13.183  22.391  0.00  0.00    -0.328 N 
ATOM     24  C   UNL     1      17.634  12.426  21.412  0.00  0.00    +0.231 C 
ATOM     37  H   UNL     1      18.495  14.151  22.219  0.00  0.00    +0.145 HD
ATOM     38  H   UNL     1      18.477  12.808  23.304  0.00  0.00    +0.145 HD
ENDBRANCH  20  24
BRANCH  20  21
ATOM     21  C   UNL     1      17.847   9.989  20.861  0.00  0.00    +0.067 C 
BRANCH  21  23
ATOM     23  C   UNL     1      18.611   8.863  21.513  0.00  0.00    -0.045 A 
ATOM     26  C   UNL     1      18.457   7.555  21.052  0.00  0.00    +0.007 A 
ATOM     27  C   UNL     1      19.471   9.129  22.579  0.00  0.00    +0.007 A 
ATOM     30  C   UNL     1      19.164   6.515  21.656  0.00  0.00    +0.045 A 
ATOM     31  C   UNL     1      20.177   8.089  23.182  0.00  0.00    +0.045 A 
ATOM     32  C   UNL     1      20.024   6.783  22.720  0.00  0.00    +0.117 A 
BRANCH  32   9
ATOM      9  O   UNL     1      20.713   5.767  23.309  0.00  0.00    -0.507 OA
ATOM     39  H   UNL     1      21.601   5.719  22.914  0.00  0.00    +0.292 HD
ENDBRANCH  32   9
ENDBRANCH  21  23
ENDBRANCH  20  21
ENDBRANCH  11  20
ENDBRANCH  17  19
BRANCH  13   3
ATOM      3  O   UNL     1      11.108   9.992  24.542  0.00  0.00    -0.387 OA
ATOM     34  H   UNL     1      10.220   9.708  24.820  0.00  0.00    +0.210 HD
ENDBRANCH  13   3
BRANCH  15   4
ATOM      4  O   UNL     1      11.095  12.788  22.184  0.00  0.00    -0.389 OA
ATOM     35  H   UNL     1      10.224  12.488  21.873  0.00  0.00    +0.210 HD
ENDBRANCH  15   4
BRANCH  14  10
ATOM     10  N   UNL     1      11.659   8.415  22.360  0.00  0.00    -0.180 NA
ATOM     33  H   UNL     1      11.195   8.107  23.224  0.00  0.00    +0.149 HD
BRANCH  10   1
ATOM      1  S   UNL     1      11.373   7.524  20.929  0.00  0.00    +0.065 S 
ATOM      6  O   UNL     1      10.531   8.298  20.039  0.00  0.00    -0.153 OA
ATOM      7  O   UNL     1      11.039   6.161  21.288  0.00  0.00    -0.153 OA
BRANCH   1  22
ATOM      2  S   UNL     1      12.905   7.759  18.415  0.00  0.00    -0.077 S 
ATOM     22  C   UNL     1      12.945   7.364  20.081  0.00  0.00    +0.142 A 
ATOM     25  C   UNL     1      14.203   6.982  20.493  0.00  0.00    +0.036 A 
ATOM     28  C   UNL     1      15.147   7.015  19.426  0.00  0.00    +0.010 A 
ATOM     29  C   UNL     1      14.575   7.419  18.240  0.00  0.00    +0.047 A 
ENDBRANCH   1  22
ENDBRANCH  10   1
ENDBRANCH  14  10
TORSDOF 11
ENDMDL
MODEL 7
REMARK VINA RESULT:      -6.2     14.620     17.426
REMARK  Name = 11882524
REMARK  11 active torsions:
REMARK  status: ('A' for Active; 'I' for Inactive)
REMARK    1  A    between atoms: S_1  and  N_10
REMARK    2  A    between atoms: S_1  and  C_22
REMARK    3  A    between atoms: O_3  and  C_13
REMARK    4  A    between atoms: O_4  and  C_15
REMARK    5  A    between atoms: O_9  and  C_32
REMARK    6  A    between atoms: N_10  and  C_14
REMARK    7  A    between atoms: N_11  and  C_20
REMARK    8  A    between atoms: C_17  and  C_19
REMARK    9  A    between atoms: C_20  and  C_21
REMARK   10  A    between atoms: C_20  and  C_24
REMARK   11  A    between atoms: C_21  and  C_23
REMARK                            x       y       z     vdW  Elec       q    Type
REMARK                         _______ _______ _______ _____ _____    ______ ____
ROOT
ATOM     13  C   UNL     1      14.100   8.069   3.352  0.00  0.00    +0.166 C 
ATOM     14  C   UNL     1      12.895   7.112   3.299  0.00  0.00    +0.131 C 
ATOM     15  C   UNL     1      15.104   7.643   4.431  0.00  0.00    +0.149 C 
ATOM     16  C   UNL     1      14.451   7.532   5.818  0.00  0.00    +0.074 C 
ATOM     17  C   UNL     1      13.063   6.956   5.781  0.00  0.00    +0.015 C 
ATOM     18  C   UNL     1      12.357   6.756   4.658  0.00  0.00    +0.004 C 
ENDROOT
BRANCH  17  19
ATOM      5  O   UNL     1      13.128   6.285   8.031  0.00  0.00    -0.271 OA
ATOM     11  N   UNL     1      11.058   6.561   6.993  0.00  0.00    -0.300 N 
ATOM     19  C   UNL     1      12.441   6.568   7.050  0.00  0.00    +0.241 C 
ATOM     36  H   UNL     1      10.599   6.727   6.103  0.00  0.00    +0.150 HD
BRANCH  11  20
ATOM     20  C   UNL     1      10.224   6.208   8.120  0.00  0.00    +0.163 C 
BRANCH  20  24
ATOM      8  O   UNL     1       9.865   4.008   9.090  0.00  0.00    -0.274 OA
ATOM     12  N   UNL     1      10.048   4.188   6.806  0.00  0.00    -0.328 N 
ATOM     24  C   UNL     1      10.043   4.698   8.088  0.00  0.00    +0.231 C 
ATOM     37  H   UNL     1       9.921   3.194   6.641  0.00  0.00    +0.145 HD
ATOM     38  H   UNL     1      10.192   4.769   5.987  0.00  0.00    +0.145 HD
ENDBRANCH  20  24
BRANCH  20  21
ATOM     21  C   UNL     1       8.863   6.911   8.075  0.00  0.00    +0.067 C 
BRANCH  21  23
ATOM     23  C   UNL     1       8.635   7.658   6.783  0.00  0.00    -0.045 A 
ATOM     26  C   UNL     1       8.197   6.974   5.650  0.00  0.00    +0.007 A 
ATOM     27  C   UNL     1       8.864   9.033   6.724  0.00  0.00    +0.007 A 
ATOM     30  C   UNL     1       7.986   7.665   4.457  0.00  0.00    +0.045 A 
ATOM     31  C   UNL     1       8.653   9.723   5.530  0.00  0.00    +0.045 A 
ATOM     32  C   UNL     1       8.214   9.040   4.397  0.00  0.00    +0.117 A 
BRANCH  32   9
ATOM      9  O   UNL     1       8.008   9.713   3.233  0.00  0.00    -0.507 OA
ATOM     39  H   UNL     1       8.452  10.577   3.286  0.00  0.00    +0.292 HD
ENDBRANCH  32   9
ENDBRANCH  21  23
ENDBRANCH  20  21
ENDBRANCH  11  20
ENDBRANCH  17  19
BRANCH  13   3
ATOM      3  O   UNL     1      13.654   9.395   3.642  0.00  0.00    -0.387 OA
ATOM     34  H   UNL     1      13.559   9.468   4.606  0.00  0.00    +0.210 HD
ENDBRANCH  13   3
BRANCH  15   4
ATOM      4  O   UNL     1      15.711   6.402   4.075  0.00  0.00    -0.389 OA
ATOM     35  H   UNL     1      16.482   6.276   4.653  0.00  0.00    +0.210 HD
ENDBRANCH  15   4
BRANCH  14  10
ATOM     10  N   UNL     1      11.810   7.717   2.486  0.00  0.00    -0.180 NA
ATOM     33  H   UNL     1      11.915   8.719   2.288  0.00  0.00    +0.149 HD
BRANCH  10   1
ATOM      1  S   UNL     1      11.061   6.735   1.303  0.00  0.00    +0.065 S 
ATOM      6  O   UNL     1      11.194   7.359   0.002  0.00  0.00    -0.153 OA
ATOM      7  O   UNL     1       9.771   6.304   1.805  0.00  0.00    -0.153 OA
BRANCH   1  22
ATOM      2  S   UNL     1      13.211   5.196  -0.010  0.00  0.00    -0.077 S 
ATOM     22  C   UNL     1      12.003   5.213   1.203  0.00  0.00    +0.142 A 
ATOM     25  C   UNL     1      11.961   4.030   1.908  0.00  0.00    +0.036 A 
ATOM     28  C   UNL     1      12.934   3.097   1.446  0.00  0.00    +0.010 A 
ATOM     29  C   UNL     1      13.682   3.602   0.405  0.00  0.00    +0.047 A 
ENDBRANCH   1  22
ENDBRANCH  10   1
ENDBRANCH  14  10
TORSDOF 11
ENDMDL
MODEL 8
REMARK VINA RESULT:      -6.2     27.834     30.075
REMARK  Name = 11882524
REMARK  11 active torsions:
REMARK  status: ('A' for Active; 'I' for Inactive)
REMARK    1  A    between atoms: S_1  and  N_10
REMARK    2  A    between atoms: S_1  and  C_22
REMARK    3  A    between atoms: O_3  and  C_13
REMARK    4  A    between atoms: O_4  and  C_15
REMARK    5  A    between atoms: O_9  and  C_32
REMARK    6  A    between atoms: N_10  and  C_14
REMARK    7  A    between atoms: N_11  and  C_20
REMARK    8  A    between atoms: C_17  and  C_19
REMARK    9  A    between atoms: C_20  and  C_21
REMARK   10  A    between atoms: C_20  and  C_24
REMARK   11  A    between atoms: C_21  and  C_23
REMARK                            x       y       z     vdW  Elec       q    Type
REMARK                         _______ _______ _______ _____ _____    ______ ____
ROOT
ATOM     13  C   UNL     1      -4.250 -11.046  15.920  0.00  0.00    +0.166 C 
ATOM     14  C   UNL     1      -5.750 -10.891  15.610  0.00  0.00    +0.131 C 
ATOM     15  C   UNL     1      -4.019 -11.987  17.109  0.00  0.00    +0.149 C 
ATOM     16  C   UNL     1      -4.778 -11.530  18.366  0.00  0.00    +0.074 C 
ATOM     17  C   UNL     1      -6.144 -10.975  18.070  0.00  0.00    +0.015 C 
ATOM     18  C   UNL     1      -6.594 -10.692  16.839  0.00  0.00    +0.004 C 
ENDROOT
BRANCH  17  19
ATOM      5  O   UNL     1      -6.634 -10.330  20.275  0.00  0.00    -0.271 OA
ATOM     11  N   UNL     1      -8.372 -11.042  18.892  0.00  0.00    -0.300 N 
ATOM     19  C   UNL     1      -7.055 -10.745  19.194  0.00  0.00    +0.241 C 
ATOM     36  H   UNL     1      -8.590 -11.461  17.993  0.00  0.00    +0.150 HD
BRANCH  11  20
ATOM     20  C   UNL     1      -9.452 -10.897  19.842  0.00  0.00    +0.163 C 
BRANCH  20  24
ATOM      8  O   UNL     1      -9.357 -13.325  19.866  0.00  0.00    -0.274 OA
ATOM     12  N   UNL     1     -11.151 -12.284  20.855  0.00  0.00    -0.328 N 
ATOM     24  C   UNL     1      -9.961 -12.295  20.159  0.00  0.00    +0.231 C 
ATOM     37  H   UNL     1     -11.594 -13.151  21.142  0.00  0.00    +0.145 HD
ATOM     38  H   UNL     1     -11.637 -11.426  21.093  0.00  0.00    +0.145 HD
ENDBRANCH  20  24
BRANCH  20  21
ATOM     21  C   UNL     1     -10.588 -10.025  19.297  0.00  0.00    +0.067 C 
BRANCH  21  23
ATOM     23  C   UNL     1     -10.438  -9.723  17.826  0.00  0.00    -0.045 A 
ATOM     26  C   UNL     1      -9.843  -8.530  17.415  0.00  0.00    +0.007 A 
ATOM     27  C   UNL     1     -10.897 -10.636  16.877  0.00  0.00    +0.007 A 
ATOM     30  C   UNL     1      -9.705  -8.252  16.056  0.00  0.00    +0.045 A 
ATOM     31  C   UNL     1     -10.760 -10.357  15.517  0.00  0.00    +0.045 A 
ATOM     32  C   UNL     1     -10.163  -9.166  15.107  0.00  0.00    +0.117 A 
BRANCH  32   9
ATOM      9  O   UNL     1     -10.028  -8.893  13.780  0.00  0.00    -0.507 OA
ATOM     39  H   UNL     1     -10.408  -8.016  13.599  0.00  0.00    +0.292 HD
ENDBRANCH  32   9
ENDBRANCH  21  23
ENDBRANCH  20  21
ENDBRANCH  11  20
ENDBRANCH  17  19
BRANCH  13   3
ATOM      3  O   UNL     1      -3.685  -9.770  16.231  0.00  0.00    -0.387 OA
ATOM     34  H   UNL     1      -2.799  -9.924  16.600  0.00  0.00    +0.210 HD
ENDBRANCH  13   3
BRANCH  15   4
ATOM      4  O   UNL     1      -4.401 -13.317  16.764  0.00  0.00    -0.389 OA
ATOM     35  H   UNL     1      -3.613 -13.769  16.416  0.00  0.00    +0.210 HD
ENDBRANCH  15   4
BRANCH  14  10
ATOM     10  N   UNL     1      -5.957  -9.750  14.683  0.00  0.00    -0.180 NA
ATOM     33  H   UNL     1      -5.364  -8.930  14.858  0.00  0.00    +0.149 HD
BRANCH  10   1
ATOM      1  S   UNL     1      -6.386 -10.106  13.067  0.00  0.00    +0.065 S 
ATOM      6  O   UNL     1      -7.300  -9.094  12.575  0.00  0.00    -0.153 OA
ATOM      7  O   UNL     1      -6.701 -11.517  12.969  0.00  0.00    -0.153 OA
BRANCH   1  22
ATOM      2  S   UNL     1      -5.082  -8.957  10.680  0.00  0.00    -0.077 S 
ATOM     22  C   UNL     1      -4.903  -9.935  12.074  0.00  0.00    +0.142 A 
ATOM     25  C   UNL     1      -3.624 -10.434  12.196  0.00  0.00    +0.036 A 
ATOM     28  C   UNL     1      -2.780 -10.006  11.131  0.00  0.00    +0.010 A 
ATOM     29  C   UNL     1      -3.445  -9.198  10.235  0.00  0.00    +0.047 A 
ENDBRANCH   1  22
ENDBRANCH  10   1
ENDBRANCH  14  10
TORSDOF 11
ENDMDL
MODEL 9
REMARK VINA RESULT:      -6.2      3.989      8.126
REMARK  Name = 11882524
REMARK  11 active torsions:
REMARK  status: ('A' for Active; 'I' for Inactive)
REMARK    1  A    between atoms: S_1  and  N_10
REMARK    2  A    between atoms: S_1  and  C_22
REMARK    3  A    between atoms: O_3  and  C_13
REMARK    4  A    between atoms: O_4  and  C_15
REMARK    5  A    between atoms: O_9  and  C_32
REMARK    6  A    between atoms: N_10  and  C_14
REMARK    7  A    between atoms: N_11  and  C_20
REMARK    8  A    between atoms: C_17  and  C_19
REMARK    9  A    between atoms: C_20  and  C_21
REMARK   10  A    between atoms: C_20  and  C_24
REMARK   11  A    between atoms: C_21  and  C_23
REMARK                            x       y       z     vdW  Elec       q    Type
REMARK                         _______ _______ _______ _____ _____    ______ ____
ROOT
ATOM     13  C   UNL     1      14.478  10.166  21.299  0.00  0.00    +0.166 C 
ATOM     14  C   UNL     1      14.320   8.899  20.438  0.00  0.00    +0.131 C 
ATOM     15  C   UNL     1      15.906  10.719  21.223  0.00  0.00    +0.149 C 
ATOM     16  C   UNL     1      16.956   9.669  21.624  0.00  0.00    +0.074 C 
ATOM     17  C   UNL     1      16.633   8.285  21.134  0.00  0.00    +0.015 C 
ATOM     18  C   UNL     1      15.459   7.928  20.594  0.00  0.00    +0.004 C 
ENDROOT
BRANCH  17  19
ATOM      5  O   UNL     1      17.612   6.228  20.560  0.00  0.00    -0.271 OA
ATOM     11  N   UNL     1      18.669   7.581  22.137  0.00  0.00    -0.300 N 
ATOM     19  C   UNL     1      17.673   7.256  21.233  0.00  0.00    +0.241 C 
ATOM     36  H   UNL     1      18.570   8.419  22.702  0.00  0.00    +0.150 HD
BRANCH  11  20
ATOM     20  C   UNL     1      19.799   6.722  22.408  0.00  0.00    +0.163 C 
BRANCH  20  24
ATOM      8  O   UNL     1      20.858   6.238  24.541  0.00  0.00    -0.274 OA
ATOM     12  N   UNL     1      20.039   8.353  24.174  0.00  0.00    -0.328 N 
ATOM     24  C   UNL     1      20.279   7.043  23.815  0.00  0.00    +0.231 C 
ATOM     37  H   UNL     1      20.323   8.704  25.083  0.00  0.00    +0.145 HD
ATOM     38  H   UNL     1      19.563   9.009  23.563  0.00  0.00    +0.145 HD
ENDBRANCH  20  24
BRANCH  20  21
ATOM     21  C   UNL     1      20.934   6.922  21.397  0.00  0.00    +0.067 C 
BRANCH  21  23
ATOM     23  C   UNL     1      21.692   5.649  21.109  0.00  0.00    -0.045 A 
ATOM     26  C   UNL     1      21.049   4.416  21.213  0.00  0.00    +0.007 A 
ATOM     27  C   UNL     1      23.036   5.706  20.741  0.00  0.00    +0.007 A 
ATOM     30  C   UNL     1      21.750   3.240  20.947  0.00  0.00    +0.045 A 
ATOM     31  C   UNL     1      23.737   4.530  20.475  0.00  0.00    +0.045 A 
ATOM     32  C   UNL     1      23.094   3.297  20.577  0.00  0.00    +0.117 A 
BRANCH  32   9
ATOM      9  O   UNL     1      23.777   2.149  20.318  0.00  0.00    -0.507 OA
ATOM     39  H   UNL     1      23.545   1.840  19.425  0.00  0.00    +0.292 HD
ENDBRANCH  32   9
ENDBRANCH  21  23
ENDBRANCH  20  21
ENDBRANCH  11  20
ENDBRANCH  17  19
BRANCH  13   3
ATOM      3  O   UNL     1      14.175   9.866  22.663  0.00  0.00    -0.387 OA
ATOM     34  H   UNL     1      15.007   9.912  23.164  0.00  0.00    +0.210 HD
ENDBRANCH  13   3
BRANCH  15   4
ATOM      4  O   UNL     1      16.177  11.203  19.909  0.00  0.00    -0.389 OA
ATOM     35  H   UNL     1      15.403  11.714  19.619  0.00  0.00    +0.210 HD
ENDBRANCH  15   4
BRANCH  14  10
ATOM     10  N   UNL     1      13.046   8.218  20.776  0.00  0.00    -0.180 NA
ATOM     33  H   UNL     1      12.626   8.491  21.673  0.00  0.00    +0.149 HD
BRANCH  10   1
ATOM      1  S   UNL     1      12.000   7.803  19.488  0.00  0.00    +0.065 S 
ATOM      6  O   UNL     1      10.722   8.463  19.672  0.00  0.00    -0.153 OA
ATOM      7  O   UNL     1      12.085   6.374  19.261  0.00  0.00    -0.153 OA
BRANCH   1  22
ATOM      2  S   UNL     1      13.915   7.569  17.253  0.00  0.00    -0.077 S 
ATOM     22  C   UNL     1      12.692   8.511  17.993  0.00  0.00    +0.142 A 
ATOM     25  C   UNL     1      12.444   9.675  17.299  0.00  0.00    +0.036 A 
ATOM     28  C   UNL     1      13.270   9.795  16.144  0.00  0.00    +0.010 A 
ATOM     29  C   UNL     1      14.117   8.718  16.000  0.00  0.00    +0.047 A 
ENDBRANCH   1  22
ENDBRANCH  10   1
ENDBRANCH  14  10
TORSDOF 11
ENDMDL
MODEL 10
REMARK VINA RESULT:      -6.2      2.606      4.043
REMARK  Name = 11882524
REMARK  11 active torsions:
REMARK  status: ('A' for Active; 'I' for Inactive)
REMARK    1  A    between atoms: S_1  and  N_10
REMARK    2  A    between atoms: S_1  and  C_22
REMARK    3  A    between atoms: O_3  and  C_13
REMARK    4  A    between atoms: O_4  and  C_15
REMARK    5  A    between atoms: O_9  and  C_32
REMARK    6  A    between atoms: N_10  and  C_14
REMARK    7  A    between atoms: N_11  and  C_20
REMARK    8  A    between atoms: C_17  and  C_19
REMARK    9  A    between atoms: C_20  and  C_21
REMARK   10  A    between atoms: C_20  and  C_24
REMARK   11  A    between atoms: C_21  and  C_23
REMARK                            x       y       z     vdW  Elec       q    Type
REMARK                         _______ _______ _______ _____ _____    ______ ____
ROOT
ATOM     13  C   UNL     1      18.445   7.018  21.169  0.00  0.00    +0.166 C 
ATOM     14  C   UNL     1      18.254   8.545  21.104  0.00  0.00    +0.131 C 
ATOM     15  C   UNL     1      17.227   6.277  20.607  0.00  0.00    +0.149 C 
ATOM     16  C   UNL     1      15.924   6.681  21.317  0.00  0.00    +0.074 C 
ATOM     17  C   UNL     1      15.855   8.145  21.650  0.00  0.00    +0.015 C 
ATOM     18  C   UNL     1      16.889   8.993  21.552  0.00  0.00    +0.004 C 
ENDROOT
BRANCH  17  19
ATOM      5  O   UNL     1      14.523   9.653  22.864  0.00  0.00    -0.271 OA
ATOM     11  N   UNL     1      13.484   8.021  21.563  0.00  0.00    -0.300 N 
ATOM     19  C   UNL     1      14.570   8.693  22.094  0.00  0.00    +0.241 C 
ATOM     36  H   UNL     1      13.643   7.186  21.007  0.00  0.00    +0.150 HD
BRANCH  11  20
ATOM     20  C   UNL     1      12.114   8.376  21.859  0.00  0.00    +0.163 C 
BRANCH  20  24
ATOM      8  O   UNL     1      11.726   6.054  21.257  0.00  0.00    -0.274 OA
ATOM     12  N   UNL     1       9.935   7.332  21.922  0.00  0.00    -0.328 N 
ATOM     24  C   UNL     1      11.268   7.133  21.626  0.00  0.00    +0.231 C 
ATOM     37  H   UNL     1       9.263   6.578  21.824  0.00  0.00    +0.145 HD
ATOM     38  H   UNL     1       9.572   8.228  22.229  0.00  0.00    +0.145 HD
ENDBRANCH  20  24
BRANCH  20  21
ATOM     21  C   UNL     1      11.616   9.533  20.985  0.00  0.00    +0.067 C 
BRANCH  21  23
ATOM     23  C   UNL     1      11.973   9.361  19.529  0.00  0.00    -0.045 A 
ATOM     26  C   UNL     1      11.182   8.559  18.706  0.00  0.00    +0.007 A 
ATOM     27  C   UNL     1      13.096  10.003  19.006  0.00  0.00    +0.007 A 
ATOM     30  C   UNL     1      11.514   8.401  17.361  0.00  0.00    +0.045 A 
ATOM     31  C   UNL     1      13.427   9.844  17.661  0.00  0.00    +0.045 A 
ATOM     32  C   UNL     1      12.636   9.044  16.838  0.00  0.00    +0.117 A 
BRANCH  32   9
ATOM      9  O   UNL     1      12.958   8.889  15.525  0.00  0.00    -0.507 OA
ATOM     39  H   UNL     1      13.922   8.976  15.425  0.00  0.00    +0.292 HD
ENDBRANCH  32   9
ENDBRANCH  21  23
ENDBRANCH  20  21
ENDBRANCH  11  20
ENDBRANCH  17  19
BRANCH  13   3
ATOM      3  O   UNL     1      18.641   6.613  22.526  0.00  0.00    -0.387 OA
ATOM     34  H   UNL     1      19.042   7.361  23.000  0.00  0.00    +0.210 HD
ENDBRANCH  13   3
BRANCH  15   4
ATOM      4  O   UNL     1      17.112   6.512  19.205  0.00  0.00    -0.389 OA
ATOM     35  H   UNL     1      16.166   6.497  18.980  0.00  0.00    +0.210 HD
ENDBRANCH  15   4
BRANCH  14  10
ATOM     10  N   UNL     1      19.286   9.217  21.930  0.00  0.00    -0.180 NA
ATOM     33  H   UNL     1      19.856   8.593  22.515  0.00  0.00    +0.149 HD
BRANCH  10   1
ATOM      1  S   UNL     1      20.023  10.623  21.295  0.00  0.00    +0.065 S 
ATOM      6  O   UNL     1      20.499  11.454  22.383  0.00  0.00    -0.153 OA
ATOM      7  O   UNL     1      19.173  11.162  20.251  0.00  0.00    -0.153 OA
BRANCH   1  22
ATOM      2  S   UNL     1      22.048   8.530  20.811  0.00  0.00    -0.077 S 
ATOM     22  C   UNL     1      21.494  10.100  20.414  0.00  0.00    +0.142 A 
ATOM     25  C   UNL     1      22.289  10.706  19.465  0.00  0.00    +0.036 A 
ATOM     28  C   UNL     1      23.368   9.868  19.060  0.00  0.00    +0.010 A 
ATOM     29  C   UNL     1      23.357   8.656  19.714  0.00  0.00    +0.047 A 
ENDBRANCH   1  22
ENDBRANCH  10   1
ENDBRANCH  14  10
TORSDOF 11
ENDMDL
