REMARK  Name = 75536982
REMARK  4 active torsions:
REMARK  status: ('A' for Active; 'I' for Inactive)
REMARK    1  A    between atoms: S_1  and  N_6
REMARK    2  A    between atoms: S_1  and  C_16
REMARK    3  A    between atoms: N_7  and  C_15
REMARK    4  A    between atoms: C_15  and  C_17
REMARK                            x       y       z     vdW  Elec       q    Type
REMARK                         _______ _______ _______ _____ _____    ______ ____
ROOT
ATOM      2  O   UNL     1       1.053  -2.593  -0.967  0.00  0.00    -0.252 OA
ATOM      5  N   UNL     1      -0.779  -1.485  -0.000  0.00  0.00    -0.278 N 
ATOM      6  N   UNL     1      -3.156  -0.017   0.114  0.00  0.00    -0.178 NA
ATOM      7  N   UNL     1       1.262  -1.126   0.867  0.00  0.00    -0.278 N 
ATOM      9  C   UNL     1      -1.019  -0.646   1.159  0.00  0.00    +0.111 C 
ATOM     10  C   UNL     1      -1.930   0.520   0.793  0.00  0.00    +0.133 C 
ATOM     11  C   UNL     1       0.382  -0.242   1.611  0.00  0.00    +0.133 C 
ATOM     12  C   UNL     1      -1.900  -1.946  -0.796  0.00  0.00    +0.127 C 
ATOM     13  C   UNL     1      -2.816  -0.774  -1.137  0.00  0.00    +0.128 C 
ATOM     14  C   UNL     1       0.572  -1.833  -0.137  0.00  0.00    +0.306 C 
ENDROOT
BRANCH   6   1
ATOM      1  S   UNL     1      -4.452   1.094  -0.036  0.00  0.00    +0.029 S 
ATOM      3  O   UNL     1      -4.548   1.862   1.185  0.00  0.00    -0.158 OA
ATOM      4  O   UNL     1      -5.593   0.403  -0.593  0.00  0.00    -0.158 OA
ATOM     16  C   UNL     1      -3.778   2.145  -1.296  0.00  0.00    +0.215 C 
ENDBRANCH   6   1
BRANCH   7  15
ATOM     15  C   UNL     1       2.692  -1.141   1.081  0.00  0.00    +0.164 C 
BRANCH  15  17
ATOM      8  N   UNL     1       3.799   1.022   1.079  0.00  0.00    -0.258 NA
ATOM     17  C   UNL     1       3.383  -0.032   0.341  0.00  0.00    +0.059 A 
ATOM     18  C   UNL     1       3.559  -0.138  -1.029  0.00  0.00    +0.025 A 
ATOM     19  C   UNL     1       4.204   0.905  -1.685  0.00  0.00    +0.003 A 
ATOM     20  C   UNL     1       4.421   2.016   0.407  0.00  0.00    +0.111 A 
ATOM     21  C   UNL     1       4.646   2.006  -0.960  0.00  0.00    +0.020 A 
ENDBRANCH  15  17
ENDBRANCH   7  15
TORSDOF 3
