MODEL 1
REMARK VINA RESULT:      -7.2      0.000      0.000
REMARK  Name = 26744351
REMARK  6 active torsions:
REMARK  status: ('A' for Active; 'I' for Inactive)
REMARK    1  A    between atoms: O_1  and  C_13
REMARK    2  A    between atoms: N_5  and  C_15
REMARK    3  A    between atoms: N_10  and  C_24
REMARK    4  A    between atoms: C_11  and  C_16
REMARK    5  A    between atoms: C_15  and  C_17
REMARK    6  A    between atoms: C_18  and  C_19
REMARK                            x       y       z     vdW  Elec       q    Type
REMARK                         _______ _______ _______ _____ _____    ______ ____
ROOT
ATOM      5  N   UNL     1      12.385   8.622  19.812  0.00  0.00    -0.282 NA
ATOM     11  C   UNL     1      13.197   8.215  20.979  0.00  0.00    +0.149 C 
ATOM     12  C   UNL     1      12.266   7.312  21.809  0.00  0.00    +0.061 C 
ATOM     13  C   UNL     1      10.943   7.307  21.053  0.00  0.00    +0.130 C 
ATOM     14  C   UNL     1      10.991   8.591  20.247  0.00  0.00    +0.117 C 
ENDROOT
BRANCH  11  16
ATOM      2  O   UNL     1      14.464   6.836  19.409  0.00  0.00    -0.336 OA
ATOM      6  N   UNL     1      15.633   7.486  21.207  0.00  0.00    -0.190 NA
ATOM      9  N   UNL     1      15.746   6.291  19.258  0.00  0.00    -0.056 NA
ATOM     16  C   UNL     1      14.483   7.523  20.581  0.00  0.00    +0.245 A 
ATOM     18  C   UNL     1      16.376   6.718  20.357  0.00  0.00    +0.202 A 
BRANCH  18  19
ATOM     19  C   UNL     1      17.746   6.398  20.635  0.00  0.00    +0.025 A 
ATOM     22  C   UNL     1      18.385   6.962  21.740  0.00  0.00    +0.044 A 
ATOM     23  C   UNL     1      18.439   5.520  19.801  0.00  0.00    +0.012 A 
ATOM     24  C   UNL     1      19.717   6.649  22.011  0.00  0.00    +0.127 A 
ATOM     25  C   UNL     1      19.772   5.208  20.071  0.00  0.00    +0.003 A 
ATOM     26  C   UNL     1      20.410   5.771  21.177  0.00  0.00    +0.033 A 
BRANCH  24  10
ATOM      3  O   UNL     1      20.983   8.307  22.993  0.00  0.00    -0.126 OA
ATOM      4  O   UNL     1      20.312   6.628  24.239  0.00  0.00    -0.126 OA
ATOM     10  N   UNL     1      20.369   7.222  23.135  0.00  0.00    +0.056 N 
ENDBRANCH  24  10
ENDBRANCH  18  19
ENDBRANCH  11  16
BRANCH  13   1
ATOM      1  O   UNL     1       9.852   7.292  21.953  0.00  0.00    -0.390 OA
ATOM     27  H   UNL     1       9.828   8.155  22.400  0.00  0.00    +0.210 HD
ENDBRANCH  13   1
BRANCH   5  15
ATOM     15  C   UNL     1      12.764   9.922  19.275  0.00  0.00    +0.159 C 
BRANCH  15  17
ATOM      7  N   UNL     1      13.398   8.605  17.239  0.00  0.00    -0.347 N 
ATOM      8  N   UNL     1      13.743  10.796  17.120  0.00  0.00    -0.239 NA
ATOM     17  C   UNL     1      13.307   9.813  17.875  0.00  0.00    +0.121 A 
ATOM     20  C   UNL     1      13.924   8.834  15.999  0.00  0.00    +0.104 A 
ATOM     21  C   UNL     1      14.128  10.192  15.948  0.00  0.00    +0.130 A 
ATOM     28  H   UNL     1      13.125   7.707  17.615  0.00  0.00    +0.167 HD
ENDBRANCH  15  17
ENDBRANCH   5  15
TORSDOF 6
ENDMDL
MODEL 2
REMARK VINA RESULT:      -7.0      2.543      3.954
REMARK  Name = 26744351
REMARK  6 active torsions:
REMARK  status: ('A' for Active; 'I' for Inactive)
REMARK    1  A    between atoms: O_1  and  C_13
REMARK    2  A    between atoms: N_5  and  C_15
REMARK    3  A    between atoms: N_10  and  C_24
REMARK    4  A    between atoms: C_11  and  C_16
REMARK    5  A    between atoms: C_15  and  C_17
REMARK    6  A    between atoms: C_18  and  C_19
REMARK                            x       y       z     vdW  Elec       q    Type
REMARK                         _______ _______ _______ _____ _____    ______ ____
ROOT
ATOM      5  N   UNL     1      14.312   8.520  20.138  0.00  0.00    -0.282 NA
ATOM     11  C   UNL     1      14.550   7.280  19.369  0.00  0.00    +0.149 C 
ATOM     12  C   UNL     1      14.204   7.647  17.915  0.00  0.00    +0.061 C 
ATOM     13  C   UNL     1      13.741   9.097  17.973  0.00  0.00    +0.130 C 
ATOM     14  C   UNL     1      13.290   9.268  19.411  0.00  0.00    +0.117 C 
ENDROOT
BRANCH  11  16
ATOM      2  O   UNL     1      16.392   5.883  18.577  0.00  0.00    -0.336 OA
ATOM      6  N   UNL     1      16.852   7.031  20.444  0.00  0.00    -0.190 NA
ATOM      9  N   UNL     1      17.707   5.549  18.925  0.00  0.00    -0.056 NA
ATOM     16  C   UNL     1      15.963   6.760  19.522  0.00  0.00    +0.245 A 
ATOM     18  C   UNL     1      17.905   6.265  20.036  0.00  0.00    +0.202 A 
BRANCH  18  19
ATOM     19  C   UNL     1      19.143   6.239  20.761  0.00  0.00    +0.025 A 
ATOM     22  C   UNL     1      20.113   5.285  20.452  0.00  0.00    +0.044 A 
ATOM     23  C   UNL     1      19.377   7.169  21.774  0.00  0.00    +0.012 A 
ATOM     24  C   UNL     1      21.317   5.260  21.156  0.00  0.00    +0.127 A 
ATOM     25  C   UNL     1      20.581   7.144  22.479  0.00  0.00    +0.003 A 
ATOM     26  C   UNL     1      21.551   6.190  22.169  0.00  0.00    +0.033 A 
BRANCH  24  10
ATOM      3  O   UNL     1      23.390   4.668  20.337  0.00  0.00    -0.126 OA
ATOM      4  O   UNL     1      22.066   3.081  21.080  0.00  0.00    -0.126 OA
ATOM     10  N   UNL     1      22.305   4.290  20.842  0.00  0.00    +0.056 N 
ENDBRANCH  24  10
ENDBRANCH  18  19
ENDBRANCH  11  16
BRANCH  13   1
ATOM      1  O   UNL     1      12.684   9.323  17.060  0.00  0.00    -0.390 OA
ATOM     27  H   UNL     1      11.882   9.502  17.580  0.00  0.00    +0.210 HD
ENDBRANCH  13   1
BRANCH   5  15
ATOM     15  C   UNL     1      13.932   8.273  21.523  0.00  0.00    +0.159 C 
BRANCH  15  17
ATOM      7  N   UNL     1      12.473   6.241  21.375  0.00  0.00    -0.347 N 
ATOM      8  N   UNL     1      11.447   8.129  21.937  0.00  0.00    -0.239 NA
ATOM     17  C   UNL     1      12.599   7.580  21.623  0.00  0.00    +0.121 A 
ATOM     20  C   UNL     1      11.157   5.916  21.544  0.00  0.00    +0.104 A 
ATOM     21  C   UNL     1      10.544   7.096  21.891  0.00  0.00    +0.130 A 
ATOM     28  H   UNL     1      13.216   5.605  21.117  0.00  0.00    +0.167 HD
ENDBRANCH  15  17
ENDBRANCH   5  15
TORSDOF 6
ENDMDL
MODEL 3
REMARK VINA RESULT:      -7.0      1.947      3.447
REMARK  Name = 26744351
REMARK  6 active torsions:
REMARK  status: ('A' for Active; 'I' for Inactive)
REMARK    1  A    between atoms: O_1  and  C_13
REMARK    2  A    between atoms: N_5  and  C_15
REMARK    3  A    between atoms: N_10  and  C_24
REMARK    4  A    between atoms: C_11  and  C_16
REMARK    5  A    between atoms: C_15  and  C_17
REMARK    6  A    between atoms: C_18  and  C_19
REMARK                            x       y       z     vdW  Elec       q    Type
REMARK                         _______ _______ _______ _____ _____    ______ ____
ROOT
ATOM      5  N   UNL     1      14.348   8.742  20.034  0.00  0.00    -0.282 NA
ATOM     11  C   UNL     1      14.485   7.485  19.268  0.00  0.00    +0.149 C 
ATOM     12  C   UNL     1      14.158   7.872  17.815  0.00  0.00    +0.061 C 
ATOM     13  C   UNL     1      13.807   9.353  17.871  0.00  0.00    +0.130 C 
ATOM     14  C   UNL     1      13.381   9.563  19.311  0.00  0.00    +0.117 C 
ENDROOT
BRANCH  11  16
ATOM      2  O   UNL     1      16.269   6.061  18.394  0.00  0.00    -0.336 OA
ATOM      6  N   UNL     1      16.721   6.972  20.391  0.00  0.00    -0.190 NA
ATOM      9  N   UNL     1      17.545   5.605  18.751  0.00  0.00    -0.056 NA
ATOM     16  C   UNL     1      15.856   6.859  19.414  0.00  0.00    +0.245 A 
ATOM     18  C   UNL     1      17.740   6.185  19.939  0.00  0.00    +0.202 A 
BRANCH  18  19
ATOM     19  C   UNL     1      18.942   6.000  20.700  0.00  0.00    +0.025 A 
ATOM     22  C   UNL     1      19.118   6.681  21.905  0.00  0.00    +0.044 A 
ATOM     23  C   UNL     1      19.936   5.138  20.234  0.00  0.00    +0.012 A 
ATOM     24  C   UNL     1      20.286   6.499  22.645  0.00  0.00    +0.127 A 
ATOM     25  C   UNL     1      21.105   4.958  20.973  0.00  0.00    +0.003 A 
ATOM     26  C   UNL     1      21.280   5.637  22.179  0.00  0.00    +0.033 A 
BRANCH  24  10
ATOM      3  O   UNL     1      20.524   8.445  23.861  0.00  0.00    -0.126 OA
ATOM      4  O   UNL     1      20.564   6.530  24.934  0.00  0.00    -0.126 OA
ATOM     10  N   UNL     1      20.467   7.191  23.872  0.00  0.00    +0.056 N 
ENDBRANCH  24  10
ENDBRANCH  18  19
ENDBRANCH  11  16
BRANCH  13   1
ATOM      1  O   UNL     1      12.764   9.657  16.964  0.00  0.00    -0.390 OA
ATOM     27  H   UNL     1      12.582   8.853  16.448  0.00  0.00    +0.210 HD
ENDBRANCH  13   1
BRANCH   5  15
ATOM     15  C   UNL     1      13.960   8.529  21.422  0.00  0.00    +0.159 C 
BRANCH  15  17
ATOM      7  N   UNL     1      12.615   6.415  21.395  0.00  0.00    -0.347 N 
ATOM      8  N   UNL     1      11.471   8.284  21.755  0.00  0.00    -0.239 NA
ATOM     17  C   UNL     1      12.661   7.775  21.532  0.00  0.00    +0.121 A 
ATOM     20  C   UNL     1      11.312   6.034  21.543  0.00  0.00    +0.104 A 
ATOM     21  C   UNL     1      10.625   7.203  21.765  0.00  0.00    +0.130 A 
ATOM     28  H   UNL     1      13.400   5.802  21.220  0.00  0.00    +0.167 HD
ENDBRANCH  15  17
ENDBRANCH   5  15
TORSDOF 6
ENDMDL
MODEL 4
REMARK VINA RESULT:      -6.8      2.110      3.830
REMARK  Name = 26744351
REMARK  6 active torsions:
REMARK  status: ('A' for Active; 'I' for Inactive)
REMARK    1  A    between atoms: O_1  and  C_13
REMARK    2  A    between atoms: N_5  and  C_15
REMARK    3  A    between atoms: N_10  and  C_24
REMARK    4  A    between atoms: C_11  and  C_16
REMARK    5  A    between atoms: C_15  and  C_17
REMARK    6  A    between atoms: C_18  and  C_19
REMARK                            x       y       z     vdW  Elec       q    Type
REMARK                         _______ _______ _______ _____ _____    ______ ____
ROOT
ATOM      5  N   UNL     1      12.467   8.595  18.740  0.00  0.00    -0.282 NA
ATOM     11  C   UNL     1      13.342   7.440  18.447  0.00  0.00    +0.149 C 
ATOM     12  C   UNL     1      13.880   7.705  17.029  0.00  0.00    +0.061 C 
ATOM     13  C   UNL     1      13.218   9.006  16.592  0.00  0.00    +0.130 C 
ATOM     14  C   UNL     1      11.971   9.076  17.453  0.00  0.00    +0.117 C 
ENDROOT
BRANCH  11  16
ATOM      2  O   UNL     1      14.120   6.595  20.604  0.00  0.00    -0.336 OA
ATOM      6  N   UNL     1      15.687   7.681  19.428  0.00  0.00    -0.190 NA
ATOM      9  N   UNL     1      15.282   6.566  21.385  0.00  0.00    -0.056 NA
ATOM     16  C   UNL     1      14.445   7.270  19.470  0.00  0.00    +0.245 A 
ATOM     18  C   UNL     1      16.161   7.226  20.624  0.00  0.00    +0.202 A 
BRANCH  18  19
ATOM     19  C   UNL     1      17.519   7.447  21.029  0.00  0.00    +0.025 A 
ATOM     22  C   UNL     1      18.415   6.379  21.081  0.00  0.00    +0.044 A 
ATOM     23  C   UNL     1      17.944   8.732  21.370  0.00  0.00    +0.012 A 
ATOM     24  C   UNL     1      19.736   6.595  21.473  0.00  0.00    +0.127 A 
ATOM     25  C   UNL     1      19.265   8.947  21.764  0.00  0.00    +0.003 A 
ATOM     26  C   UNL     1      20.161   7.879  21.815  0.00  0.00    +0.033 A 
BRANCH  24  10
ATOM      3  O   UNL     1      21.155   5.193  22.631  0.00  0.00    -0.126 OA
ATOM      4  O   UNL     1      20.926   4.895  20.468  0.00  0.00    -0.126 OA
ATOM     10  N   UNL     1      20.650   5.509  21.527  0.00  0.00    +0.056 N 
ENDBRANCH  24  10
ENDBRANCH  18  19
ENDBRANCH  11  16
BRANCH  13   1
ATOM      1  O   UNL     1      12.903   8.971  15.213  0.00  0.00    -0.390 OA
ATOM     27  H   UNL     1      12.431   9.793  15.000  0.00  0.00    +0.210 HD
ENDBRANCH  13   1
BRANCH   5  15
ATOM     15  C   UNL     1      11.384   8.275  19.661  0.00  0.00    +0.159 C 
BRANCH  15  17
ATOM      7  N   UNL     1      10.614   8.883  21.967  0.00  0.00    -0.347 N 
ATOM      8  N   UNL     1      12.192  10.182  21.101  0.00  0.00    -0.239 NA
ATOM     17  C   UNL     1      11.425   9.136  20.895  0.00  0.00    +0.121 A 
ATOM     20  C   UNL     1      10.883   9.827  22.916  0.00  0.00    +0.104 A 
ATOM     21  C   UNL     1      11.860  10.617  22.360  0.00  0.00    +0.130 A 
ATOM     28  H   UNL     1       9.940   8.132  22.046  0.00  0.00    +0.167 HD
ENDBRANCH  15  17
ENDBRANCH   5  15
TORSDOF 6
ENDMDL
MODEL 5
REMARK VINA RESULT:      -6.8      2.080      3.482
REMARK  Name = 26744351
REMARK  6 active torsions:
REMARK  status: ('A' for Active; 'I' for Inactive)
REMARK    1  A    between atoms: O_1  and  C_13
REMARK    2  A    between atoms: N_5  and  C_15
REMARK    3  A    between atoms: N_10  and  C_24
REMARK    4  A    between atoms: C_11  and  C_16
REMARK    5  A    between atoms: C_15  and  C_17
REMARK    6  A    between atoms: C_18  and  C_19
REMARK                            x       y       z     vdW  Elec       q    Type
REMARK                         _______ _______ _______ _____ _____    ______ ____
ROOT
ATOM      5  N   UNL     1      12.181   8.357  20.167  0.00  0.00    -0.282 NA
ATOM     11  C   UNL     1      12.996   7.247  19.631  0.00  0.00    +0.149 C 
ATOM     12  C   UNL     1      12.729   7.260  18.115  0.00  0.00    +0.061 C 
ATOM     13  C   UNL     1      11.719   8.380  17.902  0.00  0.00    +0.130 C 
ATOM     14  C   UNL     1      11.051   8.518  19.256  0.00  0.00    +0.117 C 
ENDROOT
BRANCH  11  16
ATOM      2  O   UNL     1      14.908   8.643  20.238  0.00  0.00    -0.336 OA
ATOM      6  N   UNL     1      15.392   6.464  20.041  0.00  0.00    -0.190 NA
ATOM      9  N   UNL     1      16.276   8.521  20.516  0.00  0.00    -0.056 NA
ATOM     16  C   UNL     1      14.466   7.387  19.969  0.00  0.00    +0.245 A 
ATOM     18  C   UNL     1      16.485   7.208  20.380  0.00  0.00    +0.202 A 
BRANCH  18  19
ATOM     19  C   UNL     1      17.773   6.607  20.576  0.00  0.00    +0.025 A 
ATOM     22  C   UNL     1      18.549   6.963  21.679  0.00  0.00    +0.044 A 
ATOM     23  C   UNL     1      18.249   5.666  19.662  0.00  0.00    +0.012 A 
ATOM     24  C   UNL     1      19.800   6.377  21.870  0.00  0.00    +0.127 A 
ATOM     25  C   UNL     1      19.501   5.081  19.853  0.00  0.00    +0.003 A 
ATOM     26  C   UNL     1      20.276   5.436  20.957  0.00  0.00    +0.033 A 
BRANCH  24  10
ATOM      3  O   UNL     1      21.265   5.853  23.573  0.00  0.00    -0.126 OA
ATOM      4  O   UNL     1      20.595   7.934  23.375  0.00  0.00    -0.126 OA
ATOM     10  N   UNL     1      20.592   6.738  22.994  0.00  0.00    +0.056 N 
ENDBRANCH  24  10
ENDBRANCH  18  19
ENDBRANCH  11  16
BRANCH  13   1
ATOM      1  O   UNL     1      10.792   8.035  16.891  0.00  0.00    -0.390 OA
ATOM     27  H   UNL     1       9.900   8.157  17.257  0.00  0.00    +0.210 HD
ENDBRANCH  13   1
BRANCH   5  15
ATOM     15  C   UNL     1      11.751   8.141  21.543  0.00  0.00    +0.159 C 
BRANCH  15  17
ATOM      7  N   UNL     1      10.935   9.561  23.440  0.00  0.00    -0.347 N 
ATOM      8  N   UNL     1      12.397  10.522  22.072  0.00  0.00    -0.239 NA
ATOM     17  C   UNL     1      11.721   9.426  22.329  0.00  0.00    +0.121 A 
ATOM     20  C   UNL     1      11.124  10.825  23.922  0.00  0.00    +0.104 A 
ATOM     21  C   UNL     1      12.030  11.399  23.063  0.00  0.00    +0.130 A 
ATOM     28  H   UNL     1      10.327   8.856  23.835  0.00  0.00    +0.167 HD
ENDBRANCH  15  17
ENDBRANCH   5  15
TORSDOF 6
ENDMDL
MODEL 6
REMARK VINA RESULT:      -6.7      2.176      2.714
REMARK  Name = 26744351
REMARK  6 active torsions:
REMARK  status: ('A' for Active; 'I' for Inactive)
REMARK    1  A    between atoms: O_1  and  C_13
REMARK    2  A    between atoms: N_5  and  C_15
REMARK    3  A    between atoms: N_10  and  C_24
REMARK    4  A    between atoms: C_11  and  C_16
REMARK    5  A    between atoms: C_15  and  C_17
REMARK    6  A    between atoms: C_18  and  C_19
REMARK                            x       y       z     vdW  Elec       q    Type
REMARK                         _______ _______ _______ _____ _____    ______ ____
ROOT
ATOM      5  N   UNL     1      11.791   8.363  22.168  0.00  0.00    -0.282 NA
ATOM     11  C   UNL     1      12.603   9.389  21.481  0.00  0.00    +0.149 C 
ATOM     12  C   UNL     1      12.275  10.704  22.212  0.00  0.00    +0.061 C 
ATOM     13  C   UNL     1      11.238  10.324  23.261  0.00  0.00    +0.130 C 
ATOM     14  C   UNL     1      10.622   9.054  22.708  0.00  0.00    +0.117 C 
ENDROOT
BRANCH  11  16
ATOM      2  O   UNL     1      14.890   9.944  22.142  0.00  0.00    -0.336 OA
ATOM      6  N   UNL     1      14.713   8.049  20.960  0.00  0.00    -0.190 NA
ATOM      9  N   UNL     1      16.191   9.441  22.017  0.00  0.00    -0.056 NA
ATOM     16  C   UNL     1      14.082   9.065  21.492  0.00  0.00    +0.245 A 
ATOM     18  C   UNL     1      16.004   8.323  21.309  0.00  0.00    +0.202 A 
BRANCH  18  19
ATOM     19  C   UNL     1      17.085   7.458  20.934  0.00  0.00    +0.025 A 
ATOM     22  C   UNL     1      18.268   7.456  21.674  0.00  0.00    +0.044 A 
ATOM     23  C   UNL     1      16.953   6.617  19.828  0.00  0.00    +0.012 A 
ATOM     24  C   UNL     1      19.318   6.613  21.309  0.00  0.00    +0.127 A 
ATOM     25  C   UNL     1      18.004   5.775  19.463  0.00  0.00    +0.003 A 
ATOM     26  C   UNL     1      19.186   5.772  20.204  0.00  0.00    +0.033 A 
BRANCH  24  10
ATOM      3  O   UNL     1      21.359   7.527  21.874  0.00  0.00    -0.126 OA
ATOM      4  O   UNL     1      20.717   5.692  22.894  0.00  0.00    -0.126 OA
ATOM     10  N   UNL     1      20.523   6.611  22.062  0.00  0.00    +0.056 N 
ENDBRANCH  24  10
ENDBRANCH  18  19
ENDBRANCH  11  16
BRANCH  13   1
ATOM      1  O   UNL     1      10.278  11.352  23.412  0.00  0.00    -0.390 OA
ATOM     27  H   UNL     1      10.749  12.202  23.368  0.00  0.00    +0.210 HD
ENDBRANCH  13   1
BRANCH   5  15
ATOM     15  C   UNL     1      11.420   7.250  21.303  0.00  0.00    +0.159 C 
BRANCH  15  17
ATOM      7  N   UNL     1      12.553   6.985  19.084  0.00  0.00    -0.347 N 
ATOM      8  N   UNL     1      10.896   8.462  19.153  0.00  0.00    -0.239 NA
ATOM     17  C   UNL     1      11.593   7.591  19.847  0.00  0.00    +0.121 A 
ATOM     20  C   UNL     1      12.460   7.501  17.823  0.00  0.00    +0.104 A 
ATOM     21  C   UNL     1      11.431   8.410  17.889  0.00  0.00    +0.130 A 
ATOM     28  H   UNL     1      13.210   6.281  19.394  0.00  0.00    +0.167 HD
ENDBRANCH  15  17
ENDBRANCH   5  15
TORSDOF 6
ENDMDL
MODEL 7
REMARK VINA RESULT:      -6.4     13.225     16.802
REMARK  Name = 26744351
REMARK  6 active torsions:
REMARK  status: ('A' for Active; 'I' for Inactive)
REMARK    1  A    between atoms: O_1  and  C_13
REMARK    2  A    between atoms: N_5  and  C_15
REMARK    3  A    between atoms: N_10  and  C_24
REMARK    4  A    between atoms: C_11  and  C_16
REMARK    5  A    between atoms: C_15  and  C_17
REMARK    6  A    between atoms: C_18  and  C_19
REMARK                            x       y       z     vdW  Elec       q    Type
REMARK                         _______ _______ _______ _____ _____    ______ ____
ROOT
ATOM      5  N   UNL     1      13.837   6.019   2.594  0.00  0.00    -0.282 NA
ATOM     11  C   UNL     1      12.448   5.657   2.242  0.00  0.00    +0.149 C 
ATOM     12  C   UNL     1      12.578   4.382   1.389  0.00  0.00    +0.061 C 
ATOM     13  C   UNL     1      14.076   4.131   1.281  0.00  0.00    +0.130 C 
ATOM     14  C   UNL     1      14.684   5.499   1.523  0.00  0.00    +0.117 C 
ENDROOT
BRANCH  11  16
ATOM      2  O   UNL     1      10.957   4.254   3.577  0.00  0.00    -0.336 OA
ATOM      6  N   UNL     1      11.304   6.294   4.434  0.00  0.00    -0.190 NA
ATOM      9  N   UNL     1      10.212   4.310   4.761  0.00  0.00    -0.056 NA
ATOM     16  C   UNL     1      11.569   5.461   3.459  0.00  0.00    +0.245 A 
ATOM     18  C   UNL     1      10.467   5.544   5.208  0.00  0.00    +0.202 A 
BRANCH  18  19
ATOM     19  C   UNL     1       9.904   6.056   6.424  0.00  0.00    +0.025 A 
ATOM     22  C   UNL     1       9.893   5.268   7.575  0.00  0.00    +0.044 A 
ATOM     23  C   UNL     1       9.369   7.344   6.455  0.00  0.00    +0.012 A 
ATOM     24  C   UNL     1       9.347   5.767   8.757  0.00  0.00    +0.127 A 
ATOM     25  C   UNL     1       8.821   7.843   7.638  0.00  0.00    +0.003 A 
ATOM     26  C   UNL     1       8.811   7.055   8.789  0.00  0.00    +0.033 A 
BRANCH  24  10
ATOM      3  O   UNL     1      10.425   4.572  10.409  0.00  0.00    -0.126 OA
ATOM      4  O   UNL     1       8.232   4.673  10.454  0.00  0.00    -0.126 OA
ATOM     10  N   UNL     1       9.334   4.966   9.930  0.00  0.00    +0.056 N 
ENDBRANCH  24  10
ENDBRANCH  18  19
ENDBRANCH  11  16
BRANCH  13   1
ATOM      1  O   UNL     1      14.410   3.627   0.002  0.00  0.00    -0.390 OA
ATOM     27  H   UNL     1      14.001   4.211  -0.659  0.00  0.00    +0.210 HD
ENDBRANCH  13   1
BRANCH   5  15
ATOM     15  C   UNL     1      14.024   7.450   2.796  0.00  0.00    +0.159 C 
BRANCH  15  17
ATOM      7  N   UNL     1      14.349   6.837   5.205  0.00  0.00    -0.347 N 
ATOM      8  N   UNL     1      14.948   8.900   4.642  0.00  0.00    -0.239 NA
ATOM     17  C   UNL     1      14.452   7.765   4.205  0.00  0.00    +0.121 A 
ATOM     20  C   UNL     1      14.811   7.418   6.351  0.00  0.00    +0.104 A 
ATOM     21  C   UNL     1      15.176   8.690   5.980  0.00  0.00    +0.130 A 
ATOM     28  H   UNL     1      13.999   5.892   5.113  0.00  0.00    +0.167 HD
ENDBRANCH  15  17
ENDBRANCH   5  15
TORSDOF 6
ENDMDL
MODEL 8
REMARK VINA RESULT:      -6.3      3.414      6.833
REMARK  Name = 26744351
REMARK  6 active torsions:
REMARK  status: ('A' for Active; 'I' for Inactive)
REMARK    1  A    between atoms: O_1  and  C_13
REMARK    2  A    between atoms: N_5  and  C_15
REMARK    3  A    between atoms: N_10  and  C_24
REMARK    4  A    between atoms: C_11  and  C_16
REMARK    5  A    between atoms: C_15  and  C_17
REMARK    6  A    between atoms: C_18  and  C_19
REMARK                            x       y       z     vdW  Elec       q    Type
REMARK                         _______ _______ _______ _____ _____    ______ ____
ROOT
ATOM      5  N   UNL     1      13.165   7.841  20.675  0.00  0.00    -0.282 NA
ATOM     11  C   UNL     1      12.315   7.800  19.467  0.00  0.00    +0.149 C 
ATOM     12  C   UNL     1      11.000   8.481  19.887  0.00  0.00    +0.061 C 
ATOM     13  C   UNL     1      11.190   8.831  21.358  0.00  0.00    +0.130 C 
ATOM     14  C   UNL     1      12.257   7.857  21.819  0.00  0.00    +0.117 C 
ENDROOT
BRANCH  11  16
ATOM      2  O   UNL     1      12.791   7.859  17.070  0.00  0.00    -0.336 OA
ATOM      6  N   UNL     1      13.685   9.559  18.223  0.00  0.00    -0.190 NA
ATOM      9  N   UNL     1      13.474   8.647  16.135  0.00  0.00    -0.056 NA
ATOM     16  C   UNL     1      12.966   8.467  18.273  0.00  0.00    +0.245 A 
ATOM     18  C   UNL     1      13.974   9.629  16.891  0.00  0.00    +0.202 A 
BRANCH  18  19
ATOM     19  C   UNL     1      14.765  10.695  16.347  0.00  0.00    +0.025 A 
ATOM     22  C   UNL     1      14.978  10.775  14.970  0.00  0.00    +0.044 A 
ATOM     23  C   UNL     1      15.321  11.653  17.195  0.00  0.00    +0.012 A 
ATOM     24  C   UNL     1      15.746  11.812  14.442  0.00  0.00    +0.127 A 
ATOM     25  C   UNL     1      16.090  12.691  16.667  0.00  0.00    +0.003 A 
ATOM     26  C   UNL     1      16.302  12.771  15.290  0.00  0.00    +0.033 A 
BRANCH  24  10
ATOM      3  O   UNL     1      15.044  11.549  12.261  0.00  0.00    -0.126 OA
ATOM      4  O   UNL     1      17.070  12.312  12.621  0.00  0.00    -0.126 OA
ATOM     10  N   UNL     1      15.964  11.895  13.040  0.00  0.00    +0.056 N 
ENDBRANCH  24  10
ENDBRANCH  18  19
ENDBRANCH  11  16
BRANCH  13   1
ATOM      1  O   UNL     1       9.981   8.664  22.073  0.00  0.00    -0.390 OA
ATOM     27  H   UNL     1      10.171   8.827  23.012  0.00  0.00    +0.210 HD
ENDBRANCH  13   1
BRANCH   5  15
ATOM     15  C   UNL     1      14.118   6.741  20.745  0.00  0.00    +0.159 C 
BRANCH  15  17
ATOM      7  N   UNL     1      15.876   8.514  20.533  0.00  0.00    -0.347 N 
ATOM      8  N   UNL     1      16.573   6.548  21.295  0.00  0.00    -0.239 NA
ATOM     17  C   UNL     1      15.535   7.234  20.872  0.00  0.00    +0.121 A 
ATOM     20  C   UNL     1      17.216   8.653  20.755  0.00  0.00    +0.104 A 
ATOM     21  C   UNL     1      17.624   7.428  21.225  0.00  0.00    +0.130 A 
ATOM     28  H   UNL     1      15.251   9.230  20.183  0.00  0.00    +0.167 HD
ENDBRANCH  15  17
ENDBRANCH   5  15
TORSDOF 6
ENDMDL
MODEL 9
REMARK VINA RESULT:      -6.3     15.699     19.543
REMARK  Name = 26744351
REMARK  6 active torsions:
REMARK  status: ('A' for Active; 'I' for Inactive)
REMARK    1  A    between atoms: O_1  and  C_13
REMARK    2  A    between atoms: N_5  and  C_15
REMARK    3  A    between atoms: N_10  and  C_24
REMARK    4  A    between atoms: C_11  and  C_16
REMARK    5  A    between atoms: C_15  and  C_17
REMARK    6  A    between atoms: C_18  and  C_19
REMARK                            x       y       z     vdW  Elec       q    Type
REMARK                         _______ _______ _______ _____ _____    ______ ____
ROOT
ATOM      5  N   UNL     1      12.986   4.140  -0.368  0.00  0.00    -0.282 NA
ATOM     11  C   UNL     1      13.014   3.862   1.083  0.00  0.00    +0.149 C 
ATOM     12  C   UNL     1      14.482   4.073   1.496  0.00  0.00    +0.061 C 
ATOM     13  C   UNL     1      15.209   4.425   0.204  0.00  0.00    +0.130 C 
ATOM     14  C   UNL     1      14.321   3.833  -0.874  0.00  0.00    +0.117 C 
ENDROOT
BRANCH  11  16
ATOM      2  O   UNL     1      11.609   5.855   1.238  0.00  0.00    -0.336 OA
ATOM      6  N   UNL     1      11.579   4.570   3.072  0.00  0.00    -0.190 NA
ATOM      9  N   UNL     1      10.749   6.489   2.143  0.00  0.00    -0.056 NA
ATOM     16  C   UNL     1      12.054   4.734   1.864  0.00  0.00    +0.245 A 
ATOM     18  C   UNL     1      10.783   5.672   3.200  0.00  0.00    +0.202 A 
BRANCH  18  19
ATOM     19  C   UNL     1      10.034   5.926   4.396  0.00  0.00    +0.025 A 
ATOM     22  C   UNL     1      10.420   5.337   5.600  0.00  0.00    +0.044 A 
ATOM     23  C   UNL     1       8.918   6.762   4.355  0.00  0.00    +0.012 A 
ATOM     24  C   UNL     1       9.692   5.585   6.764  0.00  0.00    +0.127 A 
ATOM     25  C   UNL     1       8.189   7.010   5.519  0.00  0.00    +0.003 A 
ATOM     26  C   UNL     1       8.576   6.422   6.723  0.00  0.00    +0.033 A 
BRANCH  24  10
ATOM      3  O   UNL     1       9.611   3.867   8.300  0.00  0.00    -0.126 OA
ATOM      4  O   UNL     1      10.894   5.595   8.732  0.00  0.00    -0.126 OA
ATOM     10  N   UNL     1      10.085   4.987   7.991  0.00  0.00    +0.056 N 
ENDBRANCH  24  10
ENDBRANCH  18  19
ENDBRANCH  11  16
BRANCH  13   1
ATOM      1  O   UNL     1      16.505   3.859   0.188  0.00  0.00    -0.390 OA
ATOM     27  H   UNL     1      16.472   3.068  -0.377  0.00  0.00    +0.210 HD
ENDBRANCH  13   1
BRANCH   5  15
ATOM     15  C   UNL     1      11.947   3.403  -1.074  0.00  0.00    +0.159 C 
BRANCH  15  17
ATOM      7  N   UNL     1       9.844   4.765  -1.038  0.00  0.00    -0.347 N 
ATOM      8  N   UNL     1      10.985   4.797  -2.943  0.00  0.00    -0.239 NA
ATOM     17  C   UNL     1      10.945   4.324  -1.719  0.00  0.00    +0.121 A 
ATOM     20  C   UNL     1       9.138   5.573  -1.883  0.00  0.00    +0.104 A 
ATOM     21  C   UNL     1       9.861   5.578  -3.052  0.00  0.00    +0.130 A 
ATOM     28  H   UNL     1       9.598   4.539  -0.083  0.00  0.00    +0.167 HD
ENDBRANCH  15  17
ENDBRANCH   5  15
TORSDOF 6
ENDMDL
MODEL 10
REMARK VINA RESULT:      -6.1      2.536      8.567
REMARK  Name = 26744351
REMARK  6 active torsions:
REMARK  status: ('A' for Active; 'I' for Inactive)
REMARK    1  A    between atoms: O_1  and  C_13
REMARK    2  A    between atoms: N_5  and  C_15
REMARK    3  A    between atoms: N_10  and  C_24
REMARK    4  A    between atoms: C_11  and  C_16
REMARK    5  A    between atoms: C_15  and  C_17
REMARK    6  A    between atoms: C_18  and  C_19
REMARK                            x       y       z     vdW  Elec       q    Type
REMARK                         _______ _______ _______ _____ _____    ______ ____
ROOT
ATOM      5  N   UNL     1      20.796   5.794  22.161  0.00  0.00    -0.282 NA
ATOM     11  C   UNL     1      20.249   6.029  20.808  0.00  0.00    +0.149 C 
ATOM     12  C   UNL     1      20.342   4.664  20.104  0.00  0.00    +0.061 C 
ATOM     13  C   UNL     1      20.994   3.738  21.122  0.00  0.00    +0.130 C 
ATOM     14  C   UNL     1      21.742   4.687  22.038  0.00  0.00    +0.117 C 
ENDROOT
BRANCH  11  16
ATOM      2  O   UNL     1      18.567   7.499  21.801  0.00  0.00    -0.336 OA
ATOM      6  N   UNL     1      17.822   6.299  20.062  0.00  0.00    -0.190 NA
ATOM      9  N   UNL     1      17.223   7.854  21.630  0.00  0.00    -0.056 NA
ATOM     16  C   UNL     1      18.839   6.579  20.837  0.00  0.00    +0.245 A 
ATOM     18  C   UNL     1      16.853   7.104  20.587  0.00  0.00    +0.202 A 
BRANCH  18  19
ATOM     19  C   UNL     1      15.526   7.138  20.044  0.00  0.00    +0.025 A 
ATOM     22  C   UNL     1      14.423   6.985  20.884  0.00  0.00    +0.044 A 
ATOM     23  C   UNL     1      15.339   7.325  18.674  0.00  0.00    +0.012 A 
ATOM     24  C   UNL     1      13.133   7.019  20.356  0.00  0.00    +0.127 A 
ATOM     25  C   UNL     1      14.048   7.358  18.145  0.00  0.00    +0.003 A 
ATOM     26  C   UNL     1      12.945   7.206  18.986  0.00  0.00    +0.033 A 
BRANCH  24  10
ATOM      3  O   UNL     1      11.223   5.906  21.013  0.00  0.00    -0.126 OA
ATOM      4  O   UNL     1      11.834   7.688  22.140  0.00  0.00    -0.126 OA
ATOM     10  N   UNL     1      12.009   6.863  21.211  0.00  0.00    +0.056 N 
ENDBRANCH  24  10
ENDBRANCH  18  19
ENDBRANCH  11  16
BRANCH  13   1
ATOM      1  O   UNL     1      21.867   2.825  20.485  0.00  0.00    -0.390 OA
ATOM     27  H   UNL     1      22.752   3.227  20.471  0.00  0.00    +0.210 HD
ENDBRANCH  13   1
BRANCH   5  15
ATOM     15  C   UNL     1      21.411   6.979  22.746  0.00  0.00    +0.159 C 
BRANCH  15  17
ATOM      7  N   UNL     1      20.070   7.544  24.786  0.00  0.00    -0.347 N 
ATOM      8  N   UNL     1      22.058   6.629  25.159  0.00  0.00    -0.239 NA
ATOM     17  C   UNL     1      21.214   7.034  24.238  0.00  0.00    +0.121 A 
ATOM     20  C   UNL     1      20.193   7.458  26.144  0.00  0.00    +0.104 A 
ATOM     21  C   UNL     1      21.427   6.889  26.350  0.00  0.00    +0.130 A 
ATOM     28  H   UNL     1      19.276   7.916  24.281  0.00  0.00    +0.167 HD
ENDBRANCH  15  17
ENDBRANCH   5  15
TORSDOF 6
ENDMDL
