MODEL 1
REMARK VINA RESULT:      -5.4      0.000      0.000
REMARK  Name = 75537141
REMARK  6 active torsions:
REMARK  status: ('A' for Active; 'I' for Inactive)
REMARK    1  A    between atoms: O_2  and  C_16
REMARK    2  A    between atoms: O_2  and  C_20
REMARK    3  A    between atoms: N_4  and  C_14
REMARK    4  A    between atoms: N_5  and  C_15
REMARK    5  A    between atoms: C_14  and  C_17
REMARK    6  A    between atoms: C_15  and  C_16
REMARK                            x       y       z     vdW  Elec       q    Type
REMARK                         _______ _______ _______ _____ _____    ______ ____
ROOT
ATOM      1  O   UNL     1      14.642   7.454  17.634  0.00  0.00    -0.252 OA
ATOM      3  N   UNL     1      13.237   7.397  19.516  0.00  0.00    -0.278 N 
ATOM      4  N   UNL     1      11.252   8.211  21.337  0.00  0.00    -0.292 NA
ATOM      5  N   UNL     1      15.402   6.870  19.790  0.00  0.00    -0.281 N 
ATOM      8  C   UNL     1      13.336   6.977  20.899  0.00  0.00    +0.109 C 
ATOM      9  C   UNL     1      12.633   7.979  21.812  0.00  0.00    +0.109 C 
ATOM     10  C   UNL     1      14.841   6.844  21.129  0.00  0.00    +0.133 C 
ATOM     11  C   UNL     1      11.948   7.793  18.988  0.00  0.00    +0.125 C 
ATOM     12  C   UNL     1      11.253   8.748  19.961  0.00  0.00    +0.104 C 
ATOM     13  C   UNL     1      14.450   7.261  18.828  0.00  0.00    +0.305 C 
ENDROOT
BRANCH   4  14
ATOM     14  C   UNL     1      10.550   9.124  22.239  0.00  0.00    +0.158 C 
BRANCH  14  17
ATOM      6  N   UNL     1      12.010  10.515  23.726  0.00  0.00    -0.347 N 
ATOM      7  N   UNL     1      11.548  11.387  21.737  0.00  0.00    -0.239 NA
ATOM     17  C   UNL     1      11.362  10.357  22.532  0.00  0.00    +0.121 A 
ATOM     18  C   UNL     1      12.650  11.721  23.689  0.00  0.00    +0.104 A 
ATOM     19  C   UNL     1      12.350  12.241  22.451  0.00  0.00    +0.130 A 
ATOM     21  H   UNL     1      12.016   9.860  24.497  0.00  0.00    +0.167 HD
ENDBRANCH  14  17
ENDBRANCH   4  14
BRANCH   5  15
ATOM     15  C   UNL     1      16.812   6.661  19.546  0.00  0.00    +0.137 C 
BRANCH  15  16
ATOM     16  C   UNL     1      17.667   7.319  20.615  0.00  0.00    +0.178 C 
BRANCH  16   2
ATOM      2  O   UNL     1      18.540   6.351  21.184  0.00  0.00    -0.381 OA
ATOM     20  C   UNL     1      19.828   6.394  20.586  0.00  0.00    +0.194 C 
ENDBRANCH  16   2
ENDBRANCH  15  16
ENDBRANCH   5  15
TORSDOF 5
ENDMDL
MODEL 2
REMARK VINA RESULT:      -5.4      2.947      4.193
REMARK  Name = 75537141
REMARK  6 active torsions:
REMARK  status: ('A' for Active; 'I' for Inactive)
REMARK    1  A    between atoms: O_2  and  C_16
REMARK    2  A    between atoms: O_2  and  C_20
REMARK    3  A    between atoms: N_4  and  C_14
REMARK    4  A    between atoms: N_5  and  C_15
REMARK    5  A    between atoms: C_14  and  C_17
REMARK    6  A    between atoms: C_15  and  C_16
REMARK                            x       y       z     vdW  Elec       q    Type
REMARK                         _______ _______ _______ _____ _____    ______ ____
ROOT
ATOM      1  O   UNL     1      15.147   9.942  18.727  0.00  0.00    -0.252 OA
ATOM      3  N   UNL     1      13.131  10.121  19.919  0.00  0.00    -0.278 N 
ATOM      4  N   UNL     1      11.396  10.482  22.105  0.00  0.00    -0.292 NA
ATOM      5  N   UNL     1      13.335   8.462  18.420  0.00  0.00    -0.281 N 
ATOM      8  C   UNL     1      11.825   9.495  19.891  0.00  0.00    +0.109 C 
ATOM      9  C   UNL     1      11.328   9.236  21.312  0.00  0.00    +0.109 C 
ATOM     10  C   UNL     1      12.045   8.240  19.049  0.00  0.00    +0.133 C 
ATOM     11  C   UNL     1      13.349  11.265  20.781  0.00  0.00    +0.125 C 
ATOM     12  C   UNL     1      12.783  10.985  22.176  0.00  0.00    +0.104 C 
ATOM     13  C   UNL     1      14.013   9.560  18.987  0.00  0.00    +0.305 C 
ENDROOT
BRANCH   4  14
ATOM     14  C   UNL     1      10.866  10.260  23.450  0.00  0.00    +0.158 C 
BRANCH  14  17
ATOM      6  N   UNL     1       9.996  12.587  23.777  0.00  0.00    -0.347 N 
ATOM      7  N   UNL     1      11.339  11.824  25.373  0.00  0.00    -0.239 NA
ATOM     17  C   UNL     1      10.757  11.543  24.228  0.00  0.00    +0.121 A 
ATOM     18  C   UNL     1      10.101  13.596  24.692  0.00  0.00    +0.104 A 
ATOM     19  C   UNL     1      10.935  13.101  25.668  0.00  0.00    +0.130 A 
ATOM     21  H   UNL     1       9.455  12.609  22.923  0.00  0.00    +0.167 HD
ENDBRANCH  14  17
ENDBRANCH   4  14
BRANCH   5  15
ATOM     15  C   UNL     1      13.879   7.547  17.441  0.00  0.00    +0.137 C 
BRANCH  15  16
ATOM     16  C   UNL     1      14.128   8.236  16.112  0.00  0.00    +0.178 C 
BRANCH  16   2
ATOM      2  O   UNL     1      12.883   8.606  15.531  0.00  0.00    -0.381 OA
ATOM     20  C   UNL     1      12.745  10.017  15.448  0.00  0.00    +0.194 C 
ENDBRANCH  16   2
ENDBRANCH  15  16
ENDBRANCH   5  15
TORSDOF 5
ENDMDL
MODEL 3
REMARK VINA RESULT:      -5.3      3.413      8.260
REMARK  Name = 75537141
REMARK  6 active torsions:
REMARK  status: ('A' for Active; 'I' for Inactive)
REMARK    1  A    between atoms: O_2  and  C_16
REMARK    2  A    between atoms: O_2  and  C_20
REMARK    3  A    between atoms: N_4  and  C_14
REMARK    4  A    between atoms: N_5  and  C_15
REMARK    5  A    between atoms: C_14  and  C_17
REMARK    6  A    between atoms: C_15  and  C_16
REMARK                            x       y       z     vdW  Elec       q    Type
REMARK                         _______ _______ _______ _____ _____    ______ ____
ROOT
ATOM      1  O   UNL     1      15.719   9.551  20.562  0.00  0.00    -0.252 OA
ATOM      3  N   UNL     1      17.345   7.889  20.897  0.00  0.00    -0.278 N 
ATOM      4  N   UNL     1      19.892   6.721  21.153  0.00  0.00    -0.292 NA
ATOM      5  N   UNL     1      15.603   7.418  19.561  0.00  0.00    -0.281 N 
ATOM      8  C   UNL     1      17.514   6.491  20.560  0.00  0.00    +0.109 C 
ATOM      9  C   UNL     1      18.954   6.217  20.128  0.00  0.00    +0.109 C 
ATOM     10  C   UNL     1      16.463   6.250  19.479  0.00  0.00    +0.133 C 
ATOM     11  C   UNL     1      18.301   8.525  21.780  0.00  0.00    +0.125 C 
ATOM     12  C   UNL     1      19.727   8.176  21.348  0.00  0.00    +0.104 C 
ATOM     13  C   UNL     1      16.164   8.428  20.368  0.00  0.00    +0.305 C 
ENDROOT
BRANCH   4  14
ATOM     14  C   UNL     1      21.271   6.411  20.778  0.00  0.00    +0.158 C 
BRANCH  14  17
ATOM      6  N   UNL     1      22.324   4.154  20.501  0.00  0.00    -0.347 N 
ATOM      7  N   UNL     1      21.566   4.623  22.535  0.00  0.00    -0.239 NA
ATOM     17  C   UNL     1      21.708   5.071  21.307  0.00  0.00    +0.121 A 
ATOM     18  C   UNL     1      22.591   3.052  21.263  0.00  0.00    +0.104 A 
ATOM     19  C   UNL     1      22.115   3.365  22.514  0.00  0.00    +0.130 A 
ATOM     21  H   UNL     1      22.542   4.268  19.519  0.00  0.00    +0.167 HD
ENDBRANCH  14  17
ENDBRANCH   4  14
BRANCH   5  15
ATOM     15  C   UNL     1      14.399   7.541  18.769  0.00  0.00    +0.137 C 
BRANCH  15  16
ATOM     16  C   UNL     1      13.190   6.990  19.503  0.00  0.00    +0.178 C 
BRANCH  16   2
ATOM      2  O   UNL     1      12.381   8.068  19.957  0.00  0.00    -0.381 OA
ATOM     20  C   UNL     1      12.377   9.144  19.029  0.00  0.00    +0.194 C 
ENDBRANCH  16   2
ENDBRANCH  15  16
ENDBRANCH   5  15
TORSDOF 5
ENDMDL
MODEL 4
REMARK VINA RESULT:      -5.3      3.433      5.015
REMARK  Name = 75537141
REMARK  6 active torsions:
REMARK  status: ('A' for Active; 'I' for Inactive)
REMARK    1  A    between atoms: O_2  and  C_16
REMARK    2  A    between atoms: O_2  and  C_20
REMARK    3  A    between atoms: N_4  and  C_14
REMARK    4  A    between atoms: N_5  and  C_15
REMARK    5  A    between atoms: C_14  and  C_17
REMARK    6  A    between atoms: C_15  and  C_16
REMARK                            x       y       z     vdW  Elec       q    Type
REMARK                         _______ _______ _______ _____ _____    ______ ____
ROOT
ATOM      1  O   UNL     1      19.557   7.892  22.795  0.00  0.00    -0.252 OA
ATOM      3  N   UNL     1      17.846   7.650  21.204  0.00  0.00    -0.278 N 
ATOM      4  N   UNL     1      15.240   7.484  20.156  0.00  0.00    -0.292 NA
ATOM      5  N   UNL     1      19.600   6.253  21.099  0.00  0.00    -0.281 N 
ATOM      8  C   UNL     1      17.620   6.874  20.002  0.00  0.00    +0.109 C 
ATOM      9  C   UNL     1      16.181   6.361  19.962  0.00  0.00    +0.109 C 
ATOM     10  C   UNL     1      18.689   5.785  20.069  0.00  0.00    +0.133 C 
ATOM     11  C   UNL     1      16.897   8.681  21.570  0.00  0.00    +0.125 C 
ATOM     12  C   UNL     1      15.468   8.143  21.457  0.00  0.00    +0.104 C 
ATOM     13  C   UNL     1      19.065   7.338  21.821  0.00  0.00    +0.305 C 
ENDROOT
BRANCH   4  14
ATOM     14  C   UNL     1      13.858   7.013  20.059  0.00  0.00    +0.158 C 
BRANCH  14  17
ATOM      6  N   UNL     1      13.449   9.002  18.590  0.00  0.00    -0.347 N 
ATOM      7  N   UNL     1      12.042   7.304  18.331  0.00  0.00    -0.239 NA
ATOM     17  C   UNL     1      13.092   7.743  18.988  0.00  0.00    +0.121 A 
ATOM     18  C   UNL     1      12.571   9.389  17.618  0.00  0.00    +0.104 A 
ATOM     19  C   UNL     1      11.712   8.324  17.475  0.00  0.00    +0.130 A 
ATOM     21  H   UNL     1      14.222   9.548  18.949  0.00  0.00    +0.167 HD
ENDBRANCH  14  17
ENDBRANCH   4  14
BRANCH   5  15
ATOM     15  C   UNL     1      20.830   5.557  21.407  0.00  0.00    +0.137 C 
BRANCH  15  16
ATOM     16  C   UNL     1      21.962   5.995  20.496  0.00  0.00    +0.178 C 
BRANCH  16   2
ATOM      2  O   UNL     1      22.541   7.191  21.002  0.00  0.00    -0.381 OA
ATOM     20  C   UNL     1      22.435   8.258  20.070  0.00  0.00    +0.194 C 
ENDBRANCH  16   2
ENDBRANCH  15  16
ENDBRANCH   5  15
TORSDOF 5
ENDMDL
MODEL 5
REMARK VINA RESULT:      -5.3     26.557     28.609
REMARK  Name = 75537141
REMARK  6 active torsions:
REMARK  status: ('A' for Active; 'I' for Inactive)
REMARK    1  A    between atoms: O_2  and  C_16
REMARK    2  A    between atoms: O_2  and  C_20
REMARK    3  A    between atoms: N_4  and  C_14
REMARK    4  A    between atoms: N_5  and  C_15
REMARK    5  A    between atoms: C_14  and  C_17
REMARK    6  A    between atoms: C_15  and  C_16
REMARK                            x       y       z     vdW  Elec       q    Type
REMARK                         _______ _______ _______ _____ _____    ______ ____
ROOT
ATOM      1  O   UNL     1      -8.248 -11.016  19.786  0.00  0.00    -0.252 OA
ATOM      3  N   UNL     1      -6.698 -11.231  18.034  0.00  0.00    -0.278 N 
ATOM      4  N   UNL     1      -4.213 -11.256  16.715  0.00  0.00    -0.292 NA
ATOM      5  N   UNL     1      -8.597 -10.101  17.639  0.00  0.00    -0.281 N 
ATOM      8  C   UNL     1      -6.650 -10.923  16.620  0.00  0.00    +0.109 C 
ATOM      9  C   UNL     1      -5.283 -10.351  16.246  0.00  0.00    +0.109 C 
ATOM     10  C   UNL     1      -7.823  -9.965  16.418  0.00  0.00    +0.133 C 
ATOM     11  C   UNL     1      -5.617 -11.989  18.630  0.00  0.00    +0.125 C 
ATOM     12  C   UNL     1      -4.268 -11.421  18.181  0.00  0.00    +0.104 C 
ATOM     13  C   UNL     1      -7.894 -10.813  18.632  0.00  0.00    +0.305 C 
ENDROOT
BRANCH   4  14
ATOM     14  C   UNL     1      -2.902 -10.748  16.309  0.00  0.00    +0.158 C 
BRANCH  14  17
ATOM      6  N   UNL     1      -2.131 -12.608  14.817  0.00  0.00    -0.347 N 
ATOM      7  N   UNL     1      -2.391 -10.631  13.841  0.00  0.00    -0.239 NA
ATOM     17  C   UNL     1      -2.480 -11.294  14.972  0.00  0.00    +0.121 A 
ATOM     18  C   UNL     1      -1.800 -12.793  13.505  0.00  0.00    +0.104 A 
ATOM     19  C   UNL     1      -1.967 -11.558  12.922  0.00  0.00    +0.130 A 
ATOM     21  H   UNL     1      -2.121 -13.315  15.541  0.00  0.00    +0.167 HD
ENDBRANCH  14  17
ENDBRANCH   4  14
BRANCH   5  15
ATOM     15  C   UNL     1      -9.869  -9.436  17.818  0.00  0.00    +0.137 C 
BRANCH  15  16
ATOM     16  C   UNL     1      -9.800  -7.978  17.401  0.00  0.00    +0.178 C 
BRANCH  16   2
ATOM      2  O   UNL     1     -10.777  -7.726  16.399  0.00  0.00    -0.381 OA
ATOM     20  C   UNL     1     -10.517  -6.511  15.710  0.00  0.00    +0.194 C 
ENDBRANCH  16   2
ENDBRANCH  15  16
ENDBRANCH   5  15
TORSDOF 5
ENDMDL
MODEL 6
REMARK VINA RESULT:      -5.2      2.217      2.990
REMARK  Name = 75537141
REMARK  6 active torsions:
REMARK  status: ('A' for Active; 'I' for Inactive)
REMARK    1  A    between atoms: O_2  and  C_16
REMARK    2  A    between atoms: O_2  and  C_20
REMARK    3  A    between atoms: N_4  and  C_14
REMARK    4  A    between atoms: N_5  and  C_15
REMARK    5  A    between atoms: C_14  and  C_17
REMARK    6  A    between atoms: C_15  and  C_16
REMARK                            x       y       z     vdW  Elec       q    Type
REMARK                         _______ _______ _______ _____ _____    ______ ____
ROOT
ATOM      1  O   UNL     1      16.030   9.945  20.047  0.00  0.00    -0.252 OA
ATOM      3  N   UNL     1      13.816  10.242  20.774  0.00  0.00    -0.278 N 
ATOM      4  N   UNL     1      11.677  10.813  22.511  0.00  0.00    -0.292 NA
ATOM      5  N   UNL     1      14.288   8.448  19.509  0.00  0.00    -0.281 N 
ATOM      8  C   UNL     1      12.531   9.619  20.534  0.00  0.00    +0.109 C 
ATOM      9  C   UNL     1      11.746   9.497  21.839  0.00  0.00    +0.109 C 
ATOM     10  C   UNL     1      12.891   8.289  19.875  0.00  0.00    +0.133 C 
ATOM     11  C   UNL     1      13.878  11.461  21.554  0.00  0.00    +0.125 C 
ATOM     12  C   UNL     1      13.030  11.317  22.821  0.00  0.00    +0.104 C 
ATOM     13  C   UNL     1      14.859   9.593  20.100  0.00  0.00    +0.305 C 
ENDROOT
BRANCH   4  14
ATOM     14  C   UNL     1      10.877  10.720  23.732  0.00  0.00    +0.158 C 
BRANCH  14  17
ATOM      6  N   UNL     1      10.795  12.241  25.721  0.00  0.00    -0.347 N 
ATOM      7  N   UNL     1      10.361  13.190  23.761  0.00  0.00    -0.239 NA
ATOM     17  C   UNL     1      10.671  12.067  24.370  0.00  0.00    +0.121 A 
ATOM     18  C   UNL     1      10.550  13.558  25.989  0.00  0.00    +0.104 A 
ATOM     19  C   UNL     1      10.284  14.123  24.763  0.00  0.00    +0.130 A 
ATOM     21  H   UNL     1      11.027  11.527  26.399  0.00  0.00    +0.167 HD
ENDBRANCH  14  17
ENDBRANCH   4  14
BRANCH   5  15
ATOM     15  C   UNL     1      15.001   7.443  18.753  0.00  0.00    +0.137 C 
BRANCH  15  16
ATOM     16  C   UNL     1      15.647   6.414  19.663  0.00  0.00    +0.178 C 
BRANCH  16   2
ATOM      2  O   UNL     1      17.060   6.579  19.634  0.00  0.00    -0.381 OA
ATOM     20  C   UNL     1      17.573   6.909  20.917  0.00  0.00    +0.194 C 
ENDBRANCH  16   2
ENDBRANCH  15  16
ENDBRANCH   5  15
TORSDOF 5
ENDMDL
MODEL 7
REMARK VINA RESULT:      -5.2     26.159     27.899
REMARK  Name = 75537141
REMARK  6 active torsions:
REMARK  status: ('A' for Active; 'I' for Inactive)
REMARK    1  A    between atoms: O_2  and  C_16
REMARK    2  A    between atoms: O_2  and  C_20
REMARK    3  A    between atoms: N_4  and  C_14
REMARK    4  A    between atoms: N_5  and  C_15
REMARK    5  A    between atoms: C_14  and  C_17
REMARK    6  A    between atoms: C_15  and  C_16
REMARK                            x       y       z     vdW  Elec       q    Type
REMARK                         _______ _______ _______ _____ _____    ______ ____
ROOT
ATOM      1  O   UNL     1      -4.200 -11.675  18.217  0.00  0.00    -0.252 OA
ATOM      3  N   UNL     1      -6.032 -10.339  17.605  0.00  0.00    -0.278 N 
ATOM      4  N   UNL     1      -8.708  -9.503  17.365  0.00  0.00    -0.292 NA
ATOM      5  N   UNL     1      -4.431 -10.712  16.076  0.00  0.00    -0.281 N 
ATOM      8  C   UNL     1      -6.413  -9.520  16.473  0.00  0.00    +0.109 C 
ATOM      9  C   UNL     1      -7.894  -9.715  16.149  0.00  0.00    +0.109 C 
ATOM     10  C   UNL     1      -5.452  -9.958  15.370  0.00  0.00    +0.133 C 
ATOM     11  C   UNL     1      -6.850 -10.321  18.800  0.00  0.00    +0.125 C 
ATOM     12  C   UNL     1      -8.328 -10.458  18.425  0.00  0.00    +0.104 C 
ATOM     13  C   UNL     1      -4.809 -10.992  17.404  0.00  0.00    +0.305 C 
ENDROOT
BRANCH   4  14
ATOM     14  C   UNL     1     -10.131  -9.628  17.052  0.00  0.00    +0.158 C 
BRANCH  14  17
ATOM      6  N   UNL     1     -10.410  -7.139  17.127  0.00  0.00    -0.347 N 
ATOM      7  N   UNL     1     -11.523  -8.187  15.517  0.00  0.00    -0.239 NA
ATOM     17  C   UNL     1     -10.707  -8.336  16.537  0.00  0.00    +0.121 A 
ATOM     18  C   UNL     1     -11.078  -6.166  16.439  0.00  0.00    +0.104 A 
ATOM     19  C   UNL     1     -11.758  -6.837  15.450  0.00  0.00    +0.130 A 
ATOM     21  H   UNL     1      -9.806  -6.998  17.926  0.00  0.00    +0.167 HD
ENDBRANCH  14  17
ENDBRANCH   4  14
BRANCH   5  15
ATOM     15  C   UNL     1      -3.255 -11.222  15.406  0.00  0.00    +0.137 C 
BRANCH  15  16
ATOM     16  C   UNL     1      -1.996 -10.516  15.875  0.00  0.00    +0.178 C 
BRANCH  16   2
ATOM      2  O   UNL     1      -1.280 -10.027  14.748  0.00  0.00    -0.381 OA
ATOM     20  C   UNL     1      -1.907 -10.403  13.529  0.00  0.00    +0.194 C 
ENDBRANCH  16   2
ENDBRANCH  15  16
ENDBRANCH   5  15
TORSDOF 5
ENDMDL
MODEL 8
REMARK VINA RESULT:      -5.0     25.895     27.599
REMARK  Name = 75537141
REMARK  6 active torsions:
REMARK  status: ('A' for Active; 'I' for Inactive)
REMARK    1  A    between atoms: O_2  and  C_16
REMARK    2  A    between atoms: O_2  and  C_20
REMARK    3  A    between atoms: N_4  and  C_14
REMARK    4  A    between atoms: N_5  and  C_15
REMARK    5  A    between atoms: C_14  and  C_17
REMARK    6  A    between atoms: C_15  and  C_16
REMARK                            x       y       z     vdW  Elec       q    Type
REMARK                         _______ _______ _______ _____ _____    ______ ____
ROOT
ATOM      1  O   UNL     1      -3.910 -13.314  10.560  0.00  0.00    -0.252 OA
ATOM      3  N   UNL     1      -2.590 -12.134  12.103  0.00  0.00    -0.278 N 
ATOM      4  N   UNL     1      -1.583 -11.287  14.590  0.00  0.00    -0.292 NA
ATOM      5  N   UNL     1      -3.468 -11.004  10.374  0.00  0.00    -0.281 N 
ATOM      8  C   UNL     1      -2.032 -10.803  12.219  0.00  0.00    +0.109 C 
ATOM      9  C   UNL     1      -2.156 -10.296  13.655  0.00  0.00    +0.109 C 
ATOM     10  C   UNL     1      -2.810  -9.994  11.183  0.00  0.00    +0.133 C 
ATOM     11  C   UNL     1      -2.208 -13.148  13.065  0.00  0.00    +0.125 C 
ATOM     12  C   UNL     1      -2.289 -12.580  14.485  0.00  0.00    +0.104 C 
ATOM     13  C   UNL     1      -3.385 -12.283  10.960  0.00  0.00    +0.305 C 
ENDROOT
BRANCH   4  14
ATOM     14  C   UNL     1      -1.642 -10.785  15.963  0.00  0.00    +0.158 C 
BRANCH  14  17
ATOM      6  N   UNL     1      -3.282 -11.740  17.600  0.00  0.00    -0.347 N 
ATOM      7  N   UNL     1      -4.107 -10.277  16.147  0.00  0.00    -0.239 NA
ATOM     17  C   UNL     1      -3.025 -10.908  16.545  0.00  0.00    +0.121 A 
ATOM     18  C   UNL     1      -4.612 -11.632  17.893  0.00  0.00    +0.104 A 
ATOM     19  C   UNL     1      -5.100 -10.723  16.983  0.00  0.00    +0.130 A 
ATOM     21  H   UNL     1      -2.612 -12.328  18.078  0.00  0.00    +0.167 HD
ENDBRANCH  14  17
ENDBRANCH   4  14
BRANCH   5  15
ATOM     15  C   UNL     1      -4.233 -10.663   9.195  0.00  0.00    +0.137 C 
BRANCH  15  16
ATOM     16  C   UNL     1      -4.298  -9.160   8.988  0.00  0.00    +0.178 C 
BRANCH  16   2
ATOM      2  O   UNL     1      -5.642  -8.719   9.141  0.00  0.00    -0.381 OA
ATOM     20  C   UNL     1      -6.519  -9.402   8.256  0.00  0.00    +0.194 C 
ENDBRANCH  16   2
ENDBRANCH  15  16
ENDBRANCH   5  15
TORSDOF 5
ENDMDL
MODEL 9
REMARK VINA RESULT:      -5.0     26.405     28.172
REMARK  Name = 75537141
REMARK  6 active torsions:
REMARK  status: ('A' for Active; 'I' for Inactive)
REMARK    1  A    between atoms: O_2  and  C_16
REMARK    2  A    between atoms: O_2  and  C_20
REMARK    3  A    between atoms: N_4  and  C_14
REMARK    4  A    between atoms: N_5  and  C_15
REMARK    5  A    between atoms: C_14  and  C_17
REMARK    6  A    between atoms: C_15  and  C_16
REMARK                            x       y       z     vdW  Elec       q    Type
REMARK                         _______ _______ _______ _____ _____    ______ ____
ROOT
ATOM      1  O   UNL     1      -2.033 -10.860  15.601  0.00  0.00    -0.252 OA
ATOM      3  N   UNL     1      -3.102 -10.790  13.510  0.00  0.00    -0.278 N 
ATOM      4  N   UNL     1      -3.567 -10.105  10.822  0.00  0.00    -0.292 NA
ATOM      5  N   UNL     1      -4.363 -10.576  15.356  0.00  0.00    -0.281 N 
ATOM      8  C   UNL     1      -4.464 -10.761  13.018  0.00  0.00    +0.109 C 
ATOM      9  C   UNL     1      -4.586  -9.789  11.845  0.00  0.00    +0.109 C 
ATOM     10  C   UNL     1      -5.285 -10.387  14.250  0.00  0.00    +0.133 C 
ATOM     11  C   UNL     1      -2.012 -10.944  12.569  0.00  0.00    +0.125 C 
ATOM     12  C   UNL     1      -2.206  -9.996  11.382  0.00  0.00    +0.104 C 
ATOM     13  C   UNL     1      -3.038 -10.759  14.910  0.00  0.00    +0.305 C 
ENDROOT
BRANCH   4  14
ATOM     14  C   UNL     1      -3.715  -9.218   9.667  0.00  0.00    +0.158 C 
BRANCH  14  17
ATOM      6  N   UNL     1      -5.366  -9.104   7.786  0.00  0.00    -0.347 N 
ATOM      7  N   UNL     1      -4.572 -11.125   8.252  0.00  0.00    -0.239 NA
ATOM     17  C   UNL     1      -4.537  -9.851   8.576  0.00  0.00    +0.121 A 
ATOM     18  C   UNL     1      -5.968  -9.955   6.903  0.00  0.00    +0.104 A 
ATOM     19  C   UNL     1      -5.462 -11.197   7.211  0.00  0.00    +0.130 A 
ATOM     21  H   UNL     1      -5.510  -8.104   7.844  0.00  0.00    +0.167 HD
ENDBRANCH  14  17
ENDBRANCH   4  14
BRANCH   5  15
ATOM     15  C   UNL     1      -4.778 -10.431  16.734  0.00  0.00    +0.137 C 
BRANCH  15  16
ATOM     16  C   UNL     1      -6.217 -10.871  16.931  0.00  0.00    +0.178 C 
BRANCH  16   2
ATOM      2  O   UNL     1      -6.292 -11.758  18.041  0.00  0.00    -0.381 OA
ATOM     20  C   UNL     1      -5.021 -12.311  18.354  0.00  0.00    +0.194 C 
ENDBRANCH  16   2
ENDBRANCH  15  16
ENDBRANCH   5  15
TORSDOF 5
ENDMDL
MODEL 10
REMARK VINA RESULT:      -5.0      2.931      5.194
REMARK  Name = 75537141
REMARK  6 active torsions:
REMARK  status: ('A' for Active; 'I' for Inactive)
REMARK    1  A    between atoms: O_2  and  C_16
REMARK    2  A    between atoms: O_2  and  C_20
REMARK    3  A    between atoms: N_4  and  C_14
REMARK    4  A    between atoms: N_5  and  C_15
REMARK    5  A    between atoms: C_14  and  C_17
REMARK    6  A    between atoms: C_15  and  C_16
REMARK                            x       y       z     vdW  Elec       q    Type
REMARK                         _______ _______ _______ _____ _____    ______ ____
ROOT
ATOM      1  O   UNL     1      20.619   6.886  20.422  0.00  0.00    -0.252 OA
ATOM      3  N   UNL     1      18.282   6.991  20.633  0.00  0.00    -0.278 N 
ATOM      4  N   UNL     1      15.570   6.854  19.895  0.00  0.00    -0.292 NA
ATOM      5  N   UNL     1      19.507   8.630  21.558  0.00  0.00    -0.281 N 
ATOM      8  C   UNL     1      17.319   7.809  21.341  0.00  0.00    +0.109 C 
ATOM      9  C   UNL     1      16.117   8.112  20.446  0.00  0.00    +0.109 C 
ATOM     10  C   UNL     1      18.127   9.033  21.766  0.00  0.00    +0.133 C 
ATOM     11  C   UNL     1      17.826   5.811  19.928  0.00  0.00    +0.125 C 
ATOM     12  C   UNL     1      16.587   6.145  19.092  0.00  0.00    +0.104 C 
ATOM     13  C   UNL     1      19.598   7.430  20.823  0.00  0.00    +0.305 C 
ENDROOT
BRANCH   4  14
ATOM     14  C   UNL     1      14.383   7.128  19.085  0.00  0.00    +0.158 C 
BRANCH  14  17
ATOM      6  N   UNL     1      12.895   6.237  20.893  0.00  0.00    -0.347 N 
ATOM      7  N   UNL     1      12.157   8.047  19.839  0.00  0.00    -0.239 NA
ATOM     17  C   UNL     1      13.132   7.170  19.921  0.00  0.00    +0.121 A 
ATOM     18  C   UNL     1      11.693   6.541  21.467  0.00  0.00    +0.104 A 
ATOM     19  C   UNL     1      11.256   7.661  20.800  0.00  0.00    +0.130 A 
ATOM     21  H   UNL     1      13.498   5.465  21.144  0.00  0.00    +0.167 HD
ENDBRANCH  14  17
ENDBRANCH   4  14
BRANCH   5  15
ATOM     15  C   UNL     1      20.618   9.471  21.944  0.00  0.00    +0.137 C 
BRANCH  15  16
ATOM     16  C   UNL     1      21.052  10.377  20.806  0.00  0.00    +0.178 C 
BRANCH  16   2
ATOM      2  O   UNL     1      21.384  11.660  21.324  0.00  0.00    -0.381 OA
ATOM     20  C   UNL     1      20.256  12.293  21.912  0.00  0.00    +0.194 C 
ENDBRANCH  16   2
ENDBRANCH  15  16
ENDBRANCH   5  15
TORSDOF 5
ENDMDL
