REMARK  Name = 45360808
REMARK  10 active torsions:
REMARK  status: ('A' for Active; 'I' for Inactive)
REMARK    1  A    between atoms: O_3  and  C_28
REMARK    2  A    between atoms: N_5  and  C_16
REMARK    3  A    between atoms: N_6  and  C_18
REMARK    4  A    between atoms: N_8  and  C_27
REMARK    5  A    between atoms: C_13  and  C_17
REMARK    6  A    between atoms: C_16  and  C_20
REMARK    7  A    between atoms: C_17  and  C_19
REMARK    8  A    between atoms: C_19  and  C_21
REMARK    9  A    between atoms: C_26  and  C_28
REMARK   10  A    between atoms: C_27  and  C_29
REMARK                            x       y       z     vdW  Elec       q    Type
REMARK                         _______ _______ _______ _____ _____    ______ ____
ROOT
ATOM      1  O   UNL     1       0.113  -0.352   1.550  0.00  0.00    -0.274 OA
ATOM      5  N   UNL     1       1.496   1.198  -0.176  0.00  0.00    -0.286 NA
ATOM      6  N   UNL     1      -2.053   1.706  -0.913  0.00  0.00    -0.296 NA
ATOM      7  N   UNL     1      -1.569   1.164   1.879  0.00  0.00    -0.312 N 
ATOM      9  C   UNL     1      -0.631   2.116  -0.901  0.00  0.00    +0.084 C 
ATOM     10  C   UNL     1       0.234   1.758   0.343  0.00  0.00    +0.161 C 
ATOM     11  C   UNL     1       0.201   1.520  -2.052  0.00  0.00    +0.036 C 
ATOM     12  C   UNL     1       1.627   1.646  -1.558  0.00  0.00    +0.087 C 
ATOM     13  C   UNL     1      -2.886   2.343   0.144  0.00  0.00    +0.074 C 
ATOM     14  C   UNL     1      -0.392   0.740   1.293  0.00  0.00    +0.232 C 
ATOM     15  C   UNL     1      -2.230   2.408   1.537  0.00  0.00    +0.123 C 
ATOM     18  C   UNL     1      -2.652   1.931  -2.240  0.00  0.00    +0.105 C 
ATOM     31  H   UNL     1      -2.005   0.559   2.568  0.00  0.00    +0.149 HD
ENDROOT
BRANCH   5  16
ATOM     16  C   UNL     1       2.659   1.552   0.628  0.00  0.00    +0.120 C 
BRANCH  16  20
ATOM     20  C   UNL     1       3.801   0.596   0.412  0.00  0.00    -0.033 A 
ATOM     22  C   UNL     1       3.773  -0.668   1.000  0.00  0.00    +0.006 A 
ATOM     23  C   UNL     1       4.888   0.975  -0.376  0.00  0.00    +0.006 A 
ATOM     24  C   UNL     1       4.832  -1.554   0.801  0.00  0.00    +0.015 A 
ATOM     25  C   UNL     1       5.947   0.089  -0.576  0.00  0.00    +0.015 A 
ATOM     26  C   UNL     1       5.919  -1.176   0.012  0.00  0.00    +0.059 A 
BRANCH  26  28
ATOM      4  O   UNL     1       7.101  -3.239   0.274  0.00  0.00    -0.245 OA
ATOM     28  C   UNL     1       7.022  -2.099  -0.197  0.00  0.00    +0.337 C 
BRANCH  28   3
ATOM      3  O   UNL     1       7.998  -1.574  -0.989  0.00  0.00    -0.477 OA
ATOM     33  H   UNL     1       8.737  -2.205  -1.123  0.00  0.00    +0.295 HD
ENDBRANCH  28   3
ENDBRANCH  26  28
ENDBRANCH  16  20
ENDBRANCH   5  16
BRANCH  13  17
ATOM     17  C   UNL     1      -4.227   1.595   0.297  0.00  0.00    +0.029 C 
BRANCH  17  19
ATOM     19  C   UNL     1      -4.007   0.094   0.300  0.00  0.00    +0.097 C 
BRANCH  19  21
ATOM      2  O   UNL     1      -6.406  -0.111   0.554  0.00  0.00    -0.276 OA
ATOM      8  N   UNL     1      -5.113  -2.036   0.451  0.00  0.00    -0.304 N 
ATOM     21  C   UNL     1      -5.314  -0.664   0.449  0.00  0.00    +0.214 C 
ATOM     32  H   UNL     1      -4.173  -2.405   0.342  0.00  0.00    +0.150 HD
BRANCH   8  27
ATOM     27  C   UNL     1      -6.202  -2.975   0.582  0.00  0.00    +0.193 C 
BRANCH  27  29
ATOM     29  C   UNL     1      -6.742  -3.341  -0.728  0.00  0.00    -0.087 C 
ATOM     30  C   UNL     1      -7.188  -3.644  -1.800  0.00  0.00    +0.005 C 
ENDBRANCH  27  29
ENDBRANCH   8  27
ENDBRANCH  19  21
ENDBRANCH  17  19
ENDBRANCH  13  17
TORSDOF 9
