REMARK  Name = 56774186
REMARK  9 active torsions:
REMARK  status: ('A' for Active; 'I' for Inactive)
REMARK    1  A    between atoms: O_3  and  C_28
REMARK    2  A    between atoms: O_3  and  C_29
REMARK    3  A    between atoms: N_4  and  C_8
REMARK    4  A    between atoms: C_6  and  C_11
REMARK    5  A    between atoms: C_6  and  C_12
REMARK    6  A    between atoms: C_7  and  C_10
REMARK    7  A    between atoms: C_10  and  C_13
REMARK    8  A    between atoms: C_14  and  C_16
REMARK    9  A    between atoms: C_17  and  C_20
REMARK                            x       y       z     vdW  Elec       q    Type
REMARK                         _______ _______ _______ _____ _____    ______ ____
ROOT
ATOM      6  C   UNL     1      -2.271   2.111  -0.108  0.00  0.00    -0.013 C 
ATOM      7  C   UNL     1      -0.756   2.061   0.182  0.00  0.00    +0.004 C 
ATOM      8  C   UNL     1      -2.429   0.981   0.931  0.00  0.00    +0.079 C 
ATOM      9  C   UNL     1      -0.967   0.597   0.623  0.00  0.00    +0.027 C 
ATOM     11  C   UNL     1      -2.910   3.436   0.244  0.00  0.00    +0.013 C 
ATOM     12  C   UNL     1      -2.690   1.686  -1.503  0.00  0.00    +0.013 C 
ENDROOT
BRANCH   8   4
ATOM      2  O   UNL     1      -5.299   1.212   0.932  0.00  0.00    -0.270 OA
ATOM      4  N   UNL     1      -3.398  -0.068   0.588  0.00  0.00    -0.308 N 
ATOM     14  C   UNL     1      -4.772   0.146   0.620  0.00  0.00    +0.244 C 
ATOM     30  H   UNL     1      -3.048  -0.999   0.379  0.00  0.00    +0.149 HD
BRANCH  14  16
ATOM     16  C   UNL     1      -5.627  -1.002   0.226  0.00  0.00    +0.037 A 
ATOM     18  C   UNL     1      -6.922  -1.115   0.732  0.00  0.00    +0.013 A 
ATOM     19  C   UNL     1      -5.133  -1.970  -0.649  0.00  0.00    +0.013 A 
ATOM     21  C   UNL     1      -7.724  -2.194   0.361  0.00  0.00    +0.001 A 
ATOM     22  C   UNL     1      -5.935  -3.049  -1.020  0.00  0.00    +0.001 A 
ATOM     25  C   UNL     1      -7.231  -3.162  -0.514  0.00  0.00    +0.000 A 
ENDBRANCH  14  16
ENDBRANCH   8   4
BRANCH   7  10
ATOM     10  C   UNL     1       0.194   2.244  -1.009  0.00  0.00    +0.063 C 
BRANCH  10  13
ATOM      1  O   UNL     1       3.596   2.179   0.075  0.00  0.00    -0.354 OA
ATOM      5  N   UNL     1       2.394   2.835  -0.158  0.00  0.00    -0.083 NA
ATOM     13  C   UNL     1       1.577   1.897  -0.645  0.00  0.00    +0.084 A 
ATOM     15  C   UNL     1       2.202   0.642  -0.740  0.00  0.00    +0.076 A 
ATOM     17  C   UNL     1       3.470   0.873  -0.276  0.00  0.00    +0.167 A 
BRANCH  17  20
ATOM     20  C   UNL     1       4.644   0.058  -0.087  0.00  0.00    +0.020 A 
ATOM     23  C   UNL     1       4.612  -1.298  -0.416  0.00  0.00    +0.015 A 
ATOM     24  C   UNL     1       5.812   0.624   0.423  0.00  0.00    +0.015 A 
ATOM     26  C   UNL     1       5.748  -2.086  -0.234  0.00  0.00    +0.046 A 
ATOM     27  C   UNL     1       6.948  -0.164   0.605  0.00  0.00    +0.046 A 
ATOM     28  C   UNL     1       6.916  -1.519   0.276  0.00  0.00    +0.120 A 
BRANCH  28   3
ATOM      3  O   UNL     1       8.026  -2.288   0.451  0.00  0.00    -0.495 OA
ATOM     29  C   UNL     1       7.924  -3.665   0.092  0.00  0.00    +0.277 C 
ENDBRANCH  28   3
ENDBRANCH  17  20
ENDBRANCH  10  13
ENDBRANCH   7  10
TORSDOF 6
