MODEL 1
REMARK VINA RESULT:      -6.8      0.000      0.000
REMARK  Name = 7050094
REMARK  11 active torsions:
REMARK  status: ('A' for Active; 'I' for Inactive)
REMARK    1  A    between atoms: O_2  and  C_11
REMARK    2  A    between atoms: O_3  and  C_12
REMARK    3  A    between atoms: N_7  and  C_13
REMARK    4  A    between atoms: N_8  and  C_17
REMARK    5  A    between atoms: N_9  and  C_25
REMARK    6  A    between atoms: C_15  and  C_18
REMARK    7  A    between atoms: C_17  and  C_19
REMARK    8  A    between atoms: C_17  and  C_24
REMARK    9  A    between atoms: C_19  and  C_20
REMARK   10  A    between atoms: C_20  and  C_21
REMARK   11  A    between atoms: C_20  and  C_22
REMARK                            x       y       z     vdW  Elec       q    Type
REMARK                         _______ _______ _______ _____ _____    ______ ____
ROOT
ATOM     11  C   UNL     1      20.390   7.700  21.357  0.00  0.00    +0.167 C 
ATOM     12  C   UNL     1      19.224   8.612  21.757  0.00  0.00    +0.149 C 
ATOM     13  C   UNL     1      19.946   6.228  21.256  0.00  0.00    +0.129 C 
ATOM     14  C   UNL     1      18.030   8.480  20.797  0.00  0.00    +0.074 C 
ATOM     15  C   UNL     1      17.786   7.070  20.339  0.00  0.00    +0.015 C 
ATOM     16  C   UNL     1      18.632   6.050  20.545  0.00  0.00    +0.006 C 
ENDROOT
BRANCH  13   7
ATOM      5  O   UNL     1      22.200   4.961  22.489  0.00  0.00    -0.252 OA
ATOM      7  N   UNL     1      20.944   5.415  20.602  0.00  0.00    -0.290 N 
ATOM      9  N   UNL     1      22.817   4.102  20.393  0.00  0.00    -0.269 N 
ATOM     23  C   UNL     1      22.019   4.830  21.281  0.00  0.00    +0.304 C 
ATOM     31  H   UNL     1      20.895   5.303  19.594  0.00  0.00    +0.151 HD
ATOM     35  H   UNL     1      22.524   4.095  19.419  0.00  0.00    +0.156 HD
BRANCH   9  25
ATOM      1  F   UNL     1      24.969   0.021  21.721  0.00  0.00    -0.205 F 
ATOM     25  C   UNL     1      23.990   3.369  20.682  0.00  0.00    +0.037 A 
ATOM     26  C   UNL     1      23.899   2.030  21.067  0.00  0.00    +0.061 A 
ATOM     27  C   UNL     1      25.239   3.981  20.581  0.00  0.00    +0.023 A 
ATOM     28  C   UNL     1      25.057   1.306  21.352  0.00  0.00    +0.125 A 
ATOM     29  C   UNL     1      26.397   3.257  20.866  0.00  0.00    +0.005 A 
ATOM     30  C   UNL     1      26.305   1.920  21.251  0.00  0.00    +0.038 A 
ENDBRANCH   9  25
ENDBRANCH  13   7
BRANCH  15  18
ATOM      4  O   UNL     1      16.431   5.786  18.925  0.00  0.00    -0.271 OA
ATOM      8  N   UNL     1      15.552   7.726  19.875  0.00  0.00    -0.300 N 
ATOM     18  C   UNL     1      16.533   6.780  19.637  0.00  0.00    +0.241 C 
ATOM     32  H   UNL     1      15.733   8.472  20.542  0.00  0.00    +0.150 HD
BRANCH   8  17
ATOM     17  C   UNL     1      14.237   7.657  19.293  0.00  0.00    +0.159 C 
BRANCH  17  24
ATOM      6  O   UNL     1      13.415   7.258  21.545  0.00  0.00    -0.274 OA
ATOM     10  N   UNL     1      12.328   6.257  19.786  0.00  0.00    -0.328 N 
ATOM     24  C   UNL     1      13.317   7.043  20.339  0.00  0.00    +0.231 C 
ATOM     36  H   UNL     1      11.638   5.799  20.373  0.00  0.00    +0.145 HD
ATOM     37  H   UNL     1      12.246   6.107  18.786  0.00  0.00    +0.145 HD
ENDBRANCH  17  24
BRANCH  17  19
ATOM     19  C   UNL     1      13.716   9.035  18.869  0.00  0.00    +0.034 C 
BRANCH  19  20
ATOM     20  C   UNL     1      13.251   9.129  17.401  0.00  0.00    -0.015 C 
ATOM     21  C   UNL     1      11.775   8.734  17.300  0.00  0.00    +0.007 C 
ATOM     22  C   UNL     1      14.085   8.248  16.469  0.00  0.00    +0.007 C 
ENDBRANCH  19  20
ENDBRANCH  17  19
ENDBRANCH   8  17
ENDBRANCH  15  18
BRANCH  11   2
ATOM      2  O   UNL     1      20.901   8.134  20.095  0.00  0.00    -0.387 OA
ATOM     33  H   UNL     1      20.355   7.725  19.402  0.00  0.00    +0.210 HD
ENDBRANCH  11   2
BRANCH  12   3
ATOM      3  O   UNL     1      18.813   8.326  23.092  0.00  0.00    -0.389 OA
ATOM     34  H   UNL     1      19.455   7.702  23.471  0.00  0.00    +0.210 HD
ENDBRANCH  12   3
TORSDOF 9
ENDMDL
MODEL 2
REMARK VINA RESULT:      -6.7     28.410     32.449
REMARK  Name = 7050094
REMARK  11 active torsions:
REMARK  status: ('A' for Active; 'I' for Inactive)
REMARK    1  A    between atoms: O_2  and  C_11
REMARK    2  A    between atoms: O_3  and  C_12
REMARK    3  A    between atoms: N_7  and  C_13
REMARK    4  A    between atoms: N_8  and  C_17
REMARK    5  A    between atoms: N_9  and  C_25
REMARK    6  A    between atoms: C_15  and  C_18
REMARK    7  A    between atoms: C_17  and  C_19
REMARK    8  A    between atoms: C_17  and  C_24
REMARK    9  A    between atoms: C_19  and  C_20
REMARK   10  A    between atoms: C_20  and  C_21
REMARK   11  A    between atoms: C_20  and  C_22
REMARK                            x       y       z     vdW  Elec       q    Type
REMARK                         _______ _______ _______ _____ _____    ______ ____
ROOT
ATOM     11  C   UNL     1      -8.009 -10.540  18.382  0.00  0.00    +0.167 C 
ATOM     12  C   UNL     1      -6.770 -10.922  19.201  0.00  0.00    +0.149 C 
ATOM     13  C   UNL     1      -7.690  -9.438  17.355  0.00  0.00    +0.129 C 
ATOM     14  C   UNL     1      -5.594 -11.350  18.306  0.00  0.00    +0.074 C 
ATOM     15  C   UNL     1      -5.471 -10.533  17.051  0.00  0.00    +0.015 C 
ATOM     16  C   UNL     1      -6.398  -9.666  16.618  0.00  0.00    +0.006 C 
ENDROOT
BRANCH  13   7
ATOM      5  O   UNL     1      -9.891  -7.612  17.515  0.00  0.00    -0.252 OA
ATOM      7  N   UNL     1      -8.754  -9.283  16.392  0.00  0.00    -0.290 N 
ATOM      9  N   UNL     1     -10.676  -8.436  15.462  0.00  0.00    -0.269 N 
ATOM     23  C   UNL     1      -9.798  -8.362  16.547  0.00  0.00    +0.304 C 
ATOM     31  H   UNL     1      -8.779  -9.905  15.590  0.00  0.00    +0.151 HD
ATOM     35  H   UNL     1     -10.452  -9.116  14.740  0.00  0.00    +0.156 HD
BRANCH   9  25
ATOM      1  F   UNL     1     -12.834  -4.442  13.901  0.00  0.00    -0.205 F 
ATOM     25  C   UNL     1     -11.848  -7.678  15.242  0.00  0.00    +0.037 A 
ATOM     26  C   UNL     1     -11.761  -6.409  14.669  0.00  0.00    +0.061 A 
ATOM     27  C   UNL     1     -13.094  -8.199  15.595  0.00  0.00    +0.023 A 
ATOM     28  C   UNL     1     -12.918  -5.661  14.451  0.00  0.00    +0.125 A 
ATOM     29  C   UNL     1     -14.251  -7.451  15.376  0.00  0.00    +0.005 A 
ATOM     30  C   UNL     1     -14.162  -6.182  14.804  0.00  0.00    +0.038 A 
ENDBRANCH   9  25
ENDBRANCH  13   7
BRANCH  15  18
ATOM      4  O   UNL     1      -3.150 -10.712  16.798  0.00  0.00    -0.271 OA
ATOM      8  N   UNL     1      -4.499 -10.745  14.896  0.00  0.00    -0.300 N 
ATOM     18  C   UNL     1      -4.249 -10.673  16.255  0.00  0.00    +0.241 C 
ATOM     32  H   UNL     1      -5.461 -10.772  14.568  0.00  0.00    +0.150 HD
BRANCH   8  17
ATOM     17  C   UNL     1      -3.456 -10.882  13.913  0.00  0.00    +0.159 C 
BRANCH  17  24
ATOM      6  O   UNL     1      -3.704 -13.206  13.246  0.00  0.00    -0.274 OA
ATOM     10  N   UNL     1      -1.914 -12.627  14.563  0.00  0.00    -0.328 N 
ATOM     24  C   UNL     1      -3.074 -12.355  13.869  0.00  0.00    +0.231 C 
ATOM     36  H   UNL     1      -1.540 -13.570  14.602  0.00  0.00    +0.145 HD
ATOM     37  H   UNL     1      -1.391 -11.910  15.054  0.00  0.00    +0.145 HD
ENDBRANCH  17  24
BRANCH  17  19
ATOM     19  C   UNL     1      -3.900 -10.406  12.524  0.00  0.00    +0.034 C 
BRANCH  19  20
ATOM     20  C   UNL     1      -2.780 -10.361  11.465  0.00  0.00    -0.015 C 
ATOM     21  C   UNL     1      -1.480  -9.872  12.109  0.00  0.00    +0.007 C 
ATOM     22  C   UNL     1      -3.136  -9.465  10.278  0.00  0.00    +0.007 C 
ENDBRANCH  19  20
ENDBRANCH  17  19
ENDBRANCH   8  17
ENDBRANCH  15  18
BRANCH  11   2
ATOM      2  O   UNL     1      -8.486 -11.704  17.704  0.00  0.00    -0.387 OA
ATOM     33  H   UNL     1      -9.271 -12.021  18.183  0.00  0.00    +0.210 HD
ENDBRANCH  11   2
BRANCH  12   3
ATOM      3  O   UNL     1      -6.379  -9.833  20.035  0.00  0.00    -0.389 OA
ATOM     34  H   UNL     1      -5.524  -9.504  19.709  0.00  0.00    +0.210 HD
ENDBRANCH  12   3
TORSDOF 9
ENDMDL
MODEL 3
REMARK VINA RESULT:      -6.5      7.039     12.912
REMARK  Name = 7050094
REMARK  11 active torsions:
REMARK  status: ('A' for Active; 'I' for Inactive)
REMARK    1  A    between atoms: O_2  and  C_11
REMARK    2  A    between atoms: O_3  and  C_12
REMARK    3  A    between atoms: N_7  and  C_13
REMARK    4  A    between atoms: N_8  and  C_17
REMARK    5  A    between atoms: N_9  and  C_25
REMARK    6  A    between atoms: C_15  and  C_18
REMARK    7  A    between atoms: C_17  and  C_19
REMARK    8  A    between atoms: C_17  and  C_24
REMARK    9  A    between atoms: C_19  and  C_20
REMARK   10  A    between atoms: C_20  and  C_21
REMARK   11  A    between atoms: C_20  and  C_22
REMARK                            x       y       z     vdW  Elec       q    Type
REMARK                         _______ _______ _______ _____ _____    ______ ____
ROOT
ATOM     11  C   UNL     1      14.460  12.797  14.838  0.00  0.00    +0.167 C 
ATOM     12  C   UNL     1      15.826  12.694  15.527  0.00  0.00    +0.149 C 
ATOM     13  C   UNL     1      13.776  11.421  14.728  0.00  0.00    +0.129 C 
ATOM     14  C   UNL     1      15.725  12.036  16.914  0.00  0.00    +0.074 C 
ATOM     15  C   UNL     1      14.745  10.898  16.965  0.00  0.00    +0.015 C 
ATOM     16  C   UNL     1      13.872  10.607  15.989  0.00  0.00    +0.006 C 
ENDROOT
BRANCH  13   7
ATOM      5  O   UNL     1      12.749  12.172  12.162  0.00  0.00    -0.252 OA
ATOM      7  N   UNL     1      12.387  11.544  14.357  0.00  0.00    -0.290 N 
ATOM      9  N   UNL     1      10.572  11.953  13.011  0.00  0.00    -0.269 N 
ATOM     23  C   UNL     1      11.967  11.918  13.075  0.00  0.00    +0.304 C 
ATOM     31  H   UNL     1      11.679  11.404  15.072  0.00  0.00    +0.151 HD
ATOM     35  H   UNL     1      10.070  11.714  13.863  0.00  0.00    +0.156 HD
BRANCH   9  25
ATOM      1  F   UNL     1       9.064  11.081   8.537  0.00  0.00    -0.205 F 
ATOM     25  C   UNL     1       9.762  12.283  11.900  0.00  0.00    +0.037 A 
ATOM     26  C   UNL     1       9.813  11.504  10.744  0.00  0.00    +0.061 A 
ATOM     27  C   UNL     1       8.910  13.385  11.960  0.00  0.00    +0.023 A 
ATOM     28  C   UNL     1       9.014  11.829   9.648  0.00  0.00    +0.125 A 
ATOM     29  C   UNL     1       8.110  13.710  10.865  0.00  0.00    +0.005 A 
ATOM     30  C   UNL     1       8.162  12.932   9.709  0.00  0.00    +0.038 A 
ENDBRANCH   9  25
ENDBRANCH  13   7
BRANCH  15  18
ATOM      4  O   UNL     1      15.258  10.417  19.199  0.00  0.00    -0.271 OA
ATOM      8  N   UNL     1      14.150   8.810  17.924  0.00  0.00    -0.300 N 
ATOM     18  C   UNL     1      14.752  10.035  18.149  0.00  0.00    +0.241 C 
ATOM     32  H   UNL     1      13.702   8.633  17.028  0.00  0.00    +0.150 HD
BRANCH   8  17
ATOM     17  C   UNL     1      14.039   7.792  18.937  0.00  0.00    +0.159 C 
BRANCH  17  24
ATOM      6  O   UNL     1      12.067   7.148  17.670  0.00  0.00    -0.274 OA
ATOM     10  N   UNL     1      12.321   6.325  19.799  0.00  0.00    -0.328 N 
ATOM     24  C   UNL     1      12.709   7.086  18.716  0.00  0.00    +0.231 C 
ATOM     36  H   UNL     1      11.459   5.791  19.778  0.00  0.00    +0.145 HD
ATOM     37  H   UNL     1      12.873   6.265  20.649  0.00  0.00    +0.145 HD
ENDBRANCH  17  24
BRANCH  17  19
ATOM     19  C   UNL     1      15.193   6.784  18.877  0.00  0.00    +0.034 C 
BRANCH  19  20
ATOM     20  C   UNL     1      15.945   6.580  20.208  0.00  0.00    -0.015 C 
ATOM     21  C   UNL     1      15.440   7.585  21.246  0.00  0.00    +0.007 C 
ATOM     22  C   UNL     1      17.459   6.721  20.049  0.00  0.00    +0.007 C 
ENDBRANCH  19  20
ENDBRANCH  17  19
ENDBRANCH   8  17
ENDBRANCH  15  18
BRANCH  11   2
ATOM      2  O   UNL     1      13.631  13.685  15.592  0.00  0.00    -0.387 OA
ATOM     33  H   UNL     1      14.214  14.325  16.033  0.00  0.00    +0.210 HD
ENDBRANCH  11   2
BRANCH  12   3
ATOM      3  O   UNL     1      16.736  11.967  14.705  0.00  0.00    -0.389 OA
ATOM     34  H   UNL     1      16.715  12.365  13.819  0.00  0.00    +0.210 HD
ENDBRANCH  12   3
TORSDOF 9
ENDMDL
MODEL 4
REMARK VINA RESULT:      -6.5     28.467     31.974
REMARK  Name = 7050094
REMARK  11 active torsions:
REMARK  status: ('A' for Active; 'I' for Inactive)
REMARK    1  A    between atoms: O_2  and  C_11
REMARK    2  A    between atoms: O_3  and  C_12
REMARK    3  A    between atoms: N_7  and  C_13
REMARK    4  A    between atoms: N_8  and  C_17
REMARK    5  A    between atoms: N_9  and  C_25
REMARK    6  A    between atoms: C_15  and  C_18
REMARK    7  A    between atoms: C_17  and  C_19
REMARK    8  A    between atoms: C_17  and  C_24
REMARK    9  A    between atoms: C_19  and  C_20
REMARK   10  A    between atoms: C_20  and  C_21
REMARK   11  A    between atoms: C_20  and  C_22
REMARK                            x       y       z     vdW  Elec       q    Type
REMARK                         _______ _______ _______ _____ _____    ______ ____
ROOT
ATOM     11  C   UNL     1      -6.872 -11.301  17.804  0.00  0.00    +0.167 C 
ATOM     12  C   UNL     1      -5.776 -12.092  18.529  0.00  0.00    +0.149 C 
ATOM     13  C   UNL     1      -6.317 -10.006  17.180  0.00  0.00    +0.129 C 
ATOM     14  C   UNL     1      -4.587 -12.412  17.606  0.00  0.00    +0.074 C 
ATOM     15  C   UNL     1      -4.240 -11.289  16.669  0.00  0.00    +0.015 C 
ATOM     16  C   UNL     1      -5.002 -10.202  16.476  0.00  0.00    +0.006 C 
ENDROOT
BRANCH  13   7
ATOM      5  O   UNL     1      -8.865  -8.870  17.828  0.00  0.00    -0.252 OA
ATOM      7  N   UNL     1      -7.256  -9.414  16.259  0.00  0.00    -0.290 N 
ATOM      9  N   UNL     1      -9.180  -8.376  15.555  0.00  0.00    -0.269 N 
ATOM     23  C   UNL     1      -8.486  -8.878  16.659  0.00  0.00    +0.304 C 
ATOM     31  H   UNL     1      -7.040  -9.430  15.267  0.00  0.00    +0.151 HD
ATOM     35  H   UNL     1      -8.722  -8.461  14.652  0.00  0.00    +0.156 HD
BRANCH   9  25
ATOM      1  F   UNL     1     -13.971  -8.681  15.497  0.00  0.00    -0.205 F 
ATOM     25  C   UNL     1     -10.451  -7.758  15.537  0.00  0.00    +0.037 A 
ATOM     26  C   UNL     1     -11.607  -8.540  15.525  0.00  0.00    +0.061 A 
ATOM     27  C   UNL     1     -10.551  -6.366  15.532  0.00  0.00    +0.023 A 
ATOM     28  C   UNL     1     -12.861  -7.930  15.508  0.00  0.00    +0.125 A 
ATOM     29  C   UNL     1     -11.806  -5.757  15.514  0.00  0.00    +0.005 A 
ATOM     30  C   UNL     1     -12.961  -6.539  15.502  0.00  0.00    +0.038 A 
ENDBRANCH   9  25
ENDBRANCH  13   7
BRANCH  15  18
ATOM      4  O   UNL     1      -2.029 -10.656  16.232  0.00  0.00    -0.271 OA
ATOM      8  N   UNL     1      -3.012 -12.309  14.913  0.00  0.00    -0.300 N 
ATOM     18  C   UNL     1      -2.978 -11.373  15.930  0.00  0.00    +0.241 C 
ATOM     32  H   UNL     1      -3.836 -12.895  14.803  0.00  0.00    +0.150 HD
BRANCH   8  17
ATOM     17  C   UNL     1      -1.890 -12.569  14.048  0.00  0.00    +0.159 C 
BRANCH  17  24
ATOM      6  O   UNL     1      -0.810 -14.637  13.367  0.00  0.00    -0.274 OA
ATOM     10  N   UNL     1      -2.609 -14.755  14.790  0.00  0.00    -0.328 N 
ATOM     24  C   UNL     1      -1.702 -14.078  14.001  0.00  0.00    +0.231 C 
ATOM     36  H   UNL     1      -2.585 -15.767  14.859  0.00  0.00    +0.145 HD
ATOM     37  H   UNL     1      -3.326 -14.279  15.327  0.00  0.00    +0.145 HD
ENDBRANCH  17  24
BRANCH  17  19
ATOM     19  C   UNL     1      -2.107 -12.016  12.633  0.00  0.00    +0.034 C 
BRANCH  19  20
ATOM     20  C   UNL     1      -2.409 -10.505  12.567  0.00  0.00    -0.015 C 
ATOM     21  C   UNL     1      -3.858 -10.287  12.121  0.00  0.00    +0.007 C 
ATOM     22  C   UNL     1      -1.463  -9.763  11.623  0.00  0.00    +0.007 C 
ENDBRANCH  19  20
ENDBRANCH  17  19
ENDBRANCH   8  17
ENDBRANCH  15  18
BRANCH  11   2
ATOM      2  O   UNL     1      -7.431 -12.125  16.779  0.00  0.00    -0.387 OA
ATOM     33  H   UNL     1      -7.141 -11.766  15.924  0.00  0.00    +0.210 HD
ENDBRANCH  11   2
BRANCH  12   3
ATOM      3  O   UNL     1      -5.326 -11.371  19.674  0.00  0.00    -0.389 OA
ATOM     34  H   UNL     1      -5.226 -12.007  20.402  0.00  0.00    +0.210 HD
ENDBRANCH  12   3
TORSDOF 9
ENDMDL
MODEL 5
REMARK VINA RESULT:      -6.5     17.865     22.032
REMARK  Name = 7050094
REMARK  11 active torsions:
REMARK  status: ('A' for Active; 'I' for Inactive)
REMARK    1  A    between atoms: O_2  and  C_11
REMARK    2  A    between atoms: O_3  and  C_12
REMARK    3  A    between atoms: N_7  and  C_13
REMARK    4  A    between atoms: N_8  and  C_17
REMARK    5  A    between atoms: N_9  and  C_25
REMARK    6  A    between atoms: C_15  and  C_18
REMARK    7  A    between atoms: C_17  and  C_19
REMARK    8  A    between atoms: C_17  and  C_24
REMARK    9  A    between atoms: C_19  and  C_20
REMARK   10  A    between atoms: C_20  and  C_21
REMARK   11  A    between atoms: C_20  and  C_22
REMARK                            x       y       z     vdW  Elec       q    Type
REMARK                         _______ _______ _______ _____ _____    ______ ____
ROOT
ATOM     11  C   UNL     1      13.824   3.788   1.713  0.00  0.00    +0.167 C 
ATOM     12  C   UNL     1      14.710   3.853   0.463  0.00  0.00    +0.149 C 
ATOM     13  C   UNL     1      12.786   4.927   1.730  0.00  0.00    +0.129 C 
ATOM     14  C   UNL     1      13.883   3.840  -0.834  0.00  0.00    +0.074 C 
ATOM     15  C   UNL     1      12.617   4.644  -0.742  0.00  0.00    +0.015 C 
ATOM     16  C   UNL     1      12.119   5.143   0.399  0.00  0.00    +0.006 C 
ENDROOT
BRANCH  13   7
ATOM      5  O   UNL     1      12.083   6.694   3.871  0.00  0.00    -0.252 OA
ATOM      7  N   UNL     1      11.771   4.708   2.731  0.00  0.00    -0.290 N 
ATOM      9  N   UNL     1      10.460   5.147   4.565  0.00  0.00    -0.269 N 
ATOM     23  C   UNL     1      11.488   5.627   3.749  0.00  0.00    +0.304 C 
ATOM     31  H   UNL     1      11.271   3.824   2.731  0.00  0.00    +0.151 HD
ATOM     35  H   UNL     1      10.073   4.238   4.324  0.00  0.00    +0.156 HD
BRANCH   9  25
ATOM      1  F   UNL     1      10.044   5.594   9.327  0.00  0.00    -0.205 F 
ATOM     25  C   UNL     1       9.887   5.772   5.696  0.00  0.00    +0.037 A 
ATOM     26  C   UNL     1      10.255   5.367   6.979  0.00  0.00    +0.061 A 
ATOM     27  C   UNL     1       8.954   6.795   5.530  0.00  0.00    +0.023 A 
ATOM     28  C   UNL     1       9.690   5.984   8.095  0.00  0.00    +0.125 A 
ATOM     29  C   UNL     1       8.388   7.413   6.646  0.00  0.00    +0.005 A 
ATOM     30  C   UNL     1       8.757   7.007   7.928  0.00  0.00    +0.038 A 
ENDBRANCH   9  25
ENDBRANCH  13   7
BRANCH  15  18
ATOM      4  O   UNL     1      12.147   5.909  -2.655  0.00  0.00    -0.271 OA
ATOM      8  N   UNL     1      10.916   3.969  -2.254  0.00  0.00    -0.300 N 
ATOM     18  C   UNL     1      11.884   4.919  -1.980  0.00  0.00    +0.241 C 
ATOM     32  H   UNL     1      10.838   3.152  -1.654  0.00  0.00    +0.150 HD
BRANCH   8  17
ATOM     17  C   UNL     1      10.066   4.027  -3.415  0.00  0.00    +0.159 C 
BRANCH  17  24
ATOM      6  O   UNL     1       9.698   1.668  -2.962  0.00  0.00    -0.274 OA
ATOM     10  N   UNL     1       9.305   2.453  -5.085  0.00  0.00    -0.328 N 
ATOM     24  C   UNL     1       9.695   2.594  -3.770  0.00  0.00    +0.231 C 
ATOM     36  H   UNL     1       9.018   1.549  -5.448  0.00  0.00    +0.145 HD
ATOM     37  H   UNL     1       9.286   3.231  -5.735  0.00  0.00    +0.145 HD
ENDBRANCH  17  24
BRANCH  17  19
ATOM     19  C   UNL     1       8.801   4.859  -3.168  0.00  0.00    +0.034 C 
BRANCH  19  20
ATOM     20  C   UNL     1       8.694   6.143  -4.015  0.00  0.00    -0.015 C 
ATOM     21  C   UNL     1       9.721   6.101  -5.150  0.00  0.00    +0.007 C 
ATOM     22  C   UNL     1       8.900   7.409  -3.181  0.00  0.00    +0.007 C 
ENDBRANCH  19  20
ENDBRANCH  17  19
ENDBRANCH   8  17
ENDBRANCH  15  18
BRANCH  11   2
ATOM      2  O   UNL     1      13.151   2.527   1.734  0.00  0.00    -0.387 OA
ATOM     33  H   UNL     1      13.771   1.871   2.093  0.00  0.00    +0.210 HD
ENDBRANCH  11   2
BRANCH  12   3
ATOM      3  O   UNL     1      15.535   5.015   0.507  0.00  0.00    -0.389 OA
ATOM     34  H   UNL     1      16.110   4.939   1.286  0.00  0.00    +0.210 HD
ENDBRANCH  12   3
TORSDOF 9
ENDMDL
MODEL 6
REMARK VINA RESULT:      -6.5     16.060     18.436
REMARK  Name = 7050094
REMARK  11 active torsions:
REMARK  status: ('A' for Active; 'I' for Inactive)
REMARK    1  A    between atoms: O_2  and  C_11
REMARK    2  A    between atoms: O_3  and  C_12
REMARK    3  A    between atoms: N_7  and  C_13
REMARK    4  A    between atoms: N_8  and  C_17
REMARK    5  A    between atoms: N_9  and  C_25
REMARK    6  A    between atoms: C_15  and  C_18
REMARK    7  A    between atoms: C_17  and  C_19
REMARK    8  A    between atoms: C_17  and  C_24
REMARK    9  A    between atoms: C_19  and  C_20
REMARK   10  A    between atoms: C_20  and  C_21
REMARK   11  A    between atoms: C_20  and  C_22
REMARK                            x       y       z     vdW  Elec       q    Type
REMARK                         _______ _______ _______ _____ _____    ______ ____
ROOT
ATOM     11  C   UNL     1      15.071   4.220   1.201  0.00  0.00    +0.167 C 
ATOM     12  C   UNL     1      14.016   3.576   0.294  0.00  0.00    +0.149 C 
ATOM     13  C   UNL     1      14.547   5.517   1.846  0.00  0.00    +0.129 C 
ATOM     14  C   UNL     1      12.698   3.306   1.040  0.00  0.00    +0.074 C 
ATOM     15  C   UNL     1      12.326   4.394   2.007  0.00  0.00    +0.015 C 
ATOM     16  C   UNL     1      13.142   5.395   2.370  0.00  0.00    +0.006 C 
ENDROOT
BRANCH  13   7
ATOM      5  O   UNL     1      15.012   8.228   2.645  0.00  0.00    -0.252 OA
ATOM      7  N   UNL     1      15.406   5.966   2.914  0.00  0.00    -0.290 N 
ATOM      9  N   UNL     1      16.465   7.447   4.315  0.00  0.00    -0.269 N 
ATOM     23  C   UNL     1      15.579   7.316   3.242  0.00  0.00    +0.304 C 
ATOM     31  H   UNL     1      15.953   5.276   3.421  0.00  0.00    +0.151 HD
ATOM     35  H   UNL     1      16.848   6.586   4.696  0.00  0.00    +0.156 HD
BRANCH   9  25
ATOM      1  F   UNL     1      15.651  11.159   7.248  0.00  0.00    -0.205 F 
ATOM     25  C   UNL     1      16.900   8.637   4.941  0.00  0.00    +0.037 A 
ATOM     26  C   UNL     1      16.044   9.325   5.802  0.00  0.00    +0.061 A 
ATOM     27  C   UNL     1      18.185   9.123   4.701  0.00  0.00    +0.023 A 
ATOM     28  C   UNL     1      16.473  10.499   6.421  0.00  0.00    +0.125 A 
ATOM     29  C   UNL     1      18.614  10.298   5.319  0.00  0.00    +0.005 A 
ATOM     30  C   UNL     1      17.758  10.985   6.180  0.00  0.00    +0.038 A 
ENDBRANCH   9  25
ENDBRANCH  13   7
BRANCH  15  18
ATOM      4  O   UNL     1      10.025   3.972   1.922  0.00  0.00    -0.271 OA
ATOM      8  N   UNL     1      10.939   4.854   3.878  0.00  0.00    -0.300 N 
ATOM     18  C   UNL     1      10.978   4.377   2.580  0.00  0.00    +0.241 C 
ATOM     32  H   UNL     1      11.809   5.097   4.344  0.00  0.00    +0.150 HD
BRANCH   8  17
ATOM     17  C   UNL     1       9.725   4.936   4.648  0.00  0.00    +0.159 C 
BRANCH  17  24
ATOM      6  O   UNL     1      10.402   5.652   6.870  0.00  0.00    -0.274 OA
ATOM     10  N   UNL     1      10.039   3.414   6.500  0.00  0.00    -0.328 N 
ATOM     24  C   UNL     1      10.107   4.734   6.108  0.00  0.00    +0.231 C 
ATOM     36  H   UNL     1      10.255   3.143   7.454  0.00  0.00    +0.145 HD
ATOM     37  H   UNL     1       9.771   2.669   5.866  0.00  0.00    +0.145 HD
ENDBRANCH  17  24
BRANCH  17  19
ATOM     19  C   UNL     1       9.011   6.281   4.466  0.00  0.00    +0.034 C 
BRANCH  19  20
ATOM     20  C   UNL     1       9.854   7.374   3.779  0.00  0.00    -0.015 C 
ATOM     21  C   UNL     1       9.990   8.583   4.708  0.00  0.00    +0.007 C 
ATOM     22  C   UNL     1       9.256   7.817   2.443  0.00  0.00    +0.007 C 
ENDBRANCH  19  20
ENDBRANCH  17  19
ENDBRANCH   8  17
ENDBRANCH  15  18
BRANCH  11   2
ATOM      2  O   UNL     1      15.428   3.287   2.223  0.00  0.00    -0.387 OA
ATOM     33  H   UNL     1      14.976   2.449   2.026  0.00  0.00    +0.210 HD
ENDBRANCH  11   2
BRANCH  12   3
ATOM      3  O   UNL     1      13.774   4.404  -0.842  0.00  0.00    -0.389 OA
ATOM     34  H   UNL     1      14.332   5.194  -0.754  0.00  0.00    +0.210 HD
ENDBRANCH  12   3
TORSDOF 9
ENDMDL
MODEL 7
REMARK VINA RESULT:      -6.4     18.140     22.271
REMARK  Name = 7050094
REMARK  11 active torsions:
REMARK  status: ('A' for Active; 'I' for Inactive)
REMARK    1  A    between atoms: O_2  and  C_11
REMARK    2  A    between atoms: O_3  and  C_12
REMARK    3  A    between atoms: N_7  and  C_13
REMARK    4  A    between atoms: N_8  and  C_17
REMARK    5  A    between atoms: N_9  and  C_25
REMARK    6  A    between atoms: C_15  and  C_18
REMARK    7  A    between atoms: C_17  and  C_19
REMARK    8  A    between atoms: C_17  and  C_24
REMARK    9  A    between atoms: C_19  and  C_20
REMARK   10  A    between atoms: C_20  and  C_21
REMARK   11  A    between atoms: C_20  and  C_22
REMARK                            x       y       z     vdW  Elec       q    Type
REMARK                         _______ _______ _______ _____ _____    ______ ____
ROOT
ATOM     11  C   UNL     1      13.091   3.809   1.666  0.00  0.00    +0.167 C 
ATOM     12  C   UNL     1      13.895   3.789   0.361  0.00  0.00    +0.149 C 
ATOM     13  C   UNL     1      11.782   4.607   1.512  0.00  0.00    +0.129 C 
ATOM     14  C   UNL     1      13.072   3.241  -0.817  0.00  0.00    +0.074 C 
ATOM     15  C   UNL     1      11.637   3.685  -0.800  0.00  0.00    +0.015 C 
ATOM     16  C   UNL     1      11.049   4.306   0.233  0.00  0.00    +0.006 C 
ENDROOT
BRANCH  13   7
ATOM      5  O   UNL     1      11.730   6.063   3.978  0.00  0.00    -0.252 OA
ATOM      7  N   UNL     1      10.890   4.388   2.624  0.00  0.00    -0.290 N 
ATOM      9  N   UNL     1       9.952   4.710   4.696  0.00  0.00    -0.269 N 
ATOM     23  C   UNL     1      10.930   5.147   3.799  0.00  0.00    +0.304 C 
ATOM     31  H   UNL     1      10.235   3.613   2.577  0.00  0.00    +0.151 HD
ATOM     35  H   UNL     1       9.368   3.935   4.390  0.00  0.00    +0.156 HD
BRANCH   9  25
ATOM      1  F   UNL     1       9.785   4.133   9.459  0.00  0.00    -0.205 F 
ATOM     25  C   UNL     1       9.669   5.213   5.986  0.00  0.00    +0.037 A 
ATOM     26  C   UNL     1       9.870   4.409   7.108  0.00  0.00    +0.061 A 
ATOM     27  C   UNL     1       9.189   6.514   6.138  0.00  0.00    +0.023 A 
ATOM     28  C   UNL     1       9.592   4.906   8.382  0.00  0.00    +0.125 A 
ATOM     29  C   UNL     1       8.910   7.011   7.411  0.00  0.00    +0.005 A 
ATOM     30  C   UNL     1       9.112   6.207   8.533  0.00  0.00    +0.038 A 
ENDBRANCH   9  25
ENDBRANCH  13   7
BRANCH  15  18
ATOM      4  O   UNL     1      10.637   2.304  -2.405  0.00  0.00    -0.271 OA
ATOM      8  N   UNL     1      10.342   4.612  -2.561  0.00  0.00    -0.300 N 
ATOM     18  C   UNL     1      10.826   3.445  -1.997  0.00  0.00    +0.241 C 
ATOM     32  H   UNL     1      10.509   5.498  -2.091  0.00  0.00    +0.150 HD
BRANCH   8  17
ATOM     17  C   UNL     1       9.523   4.630  -3.746  0.00  0.00    +0.159 C 
BRANCH  17  24
ATOM      6  O   UNL     1       7.383   5.692  -4.190  0.00  0.00    -0.274 OA
ATOM     10  N   UNL     1       8.585   6.371  -2.354  0.00  0.00    -0.328 N 
ATOM     24  C   UNL     1       8.389   5.612  -3.489  0.00  0.00    +0.231 C 
ATOM     36  H   UNL     1       7.896   7.056  -2.061  0.00  0.00    +0.145 HD
ATOM     37  H   UNL     1       9.410   6.277  -1.772  0.00  0.00    +0.145 HD
ENDBRANCH  17  24
BRANCH  17  19
ATOM     19  C   UNL     1      10.314   5.044  -4.993  0.00  0.00    +0.034 C 
BRANCH  19  20
ATOM     20  C   UNL     1      10.762   3.875  -5.894  0.00  0.00    -0.015 C 
ATOM     21  C   UNL     1       9.741   2.737  -5.810  0.00  0.00    +0.007 C 
ATOM     22  C   UNL     1      12.149   3.351  -5.520  0.00  0.00    +0.007 C 
ENDBRANCH  19  20
ENDBRANCH  17  19
ENDBRANCH   8  17
ENDBRANCH  15  18
BRANCH  11   2
ATOM      2  O   UNL     1      12.789   2.463   2.040  0.00  0.00    -0.387 OA
ATOM     33  H   UNL     1      12.531   2.471   2.977  0.00  0.00    +0.210 HD
ENDBRANCH  11   2
BRANCH  12   3
ATOM      3  O   UNL     1      14.372   5.098   0.058  0.00  0.00    -0.389 OA
ATOM     34  H   UNL     1      14.065   5.694   0.762  0.00  0.00    +0.210 HD
ENDBRANCH  12   3
TORSDOF 9
ENDMDL
MODEL 8
REMARK VINA RESULT:      -6.3     18.406     22.509
REMARK  Name = 7050094
REMARK  11 active torsions:
REMARK  status: ('A' for Active; 'I' for Inactive)
REMARK    1  A    between atoms: O_2  and  C_11
REMARK    2  A    between atoms: O_3  and  C_12
REMARK    3  A    between atoms: N_7  and  C_13
REMARK    4  A    between atoms: N_8  and  C_17
REMARK    5  A    between atoms: N_9  and  C_25
REMARK    6  A    between atoms: C_15  and  C_18
REMARK    7  A    between atoms: C_17  and  C_19
REMARK    8  A    between atoms: C_17  and  C_24
REMARK    9  A    between atoms: C_19  and  C_20
REMARK   10  A    between atoms: C_20  and  C_21
REMARK   11  A    between atoms: C_20  and  C_22
REMARK                            x       y       z     vdW  Elec       q    Type
REMARK                         _______ _______ _______ _____ _____    ______ ____
ROOT
ATOM     11  C   UNL     1      13.050   3.810   1.529  0.00  0.00    +0.167 C 
ATOM     12  C   UNL     1      13.843   3.781   0.217  0.00  0.00    +0.149 C 
ATOM     13  C   UNL     1      11.735   4.599   1.378  0.00  0.00    +0.129 C 
ATOM     14  C   UNL     1      13.012   3.215  -0.948  0.00  0.00    +0.074 C 
ATOM     15  C   UNL     1      11.574   3.651  -0.923  0.00  0.00    +0.015 C 
ATOM     16  C   UNL     1      10.992   4.279   0.110  0.00  0.00    +0.006 C 
ENDROOT
BRANCH  13   7
ATOM      5  O   UNL     1      11.750   6.027   3.860  0.00  0.00    -0.252 OA
ATOM      7  N   UNL     1      10.855   4.386   2.501  0.00  0.00    -0.290 N 
ATOM      9  N   UNL     1       9.953   4.704   4.589  0.00  0.00    -0.269 N 
ATOM     23  C   UNL     1      10.928   5.131   3.683  0.00  0.00    +0.304 C 
ATOM     31  H   UNL     1      10.183   3.626   2.454  0.00  0.00    +0.151 HD
ATOM     35  H   UNL     1       9.349   3.945   4.284  0.00  0.00    +0.156 HD
BRANCH   9  25
ATOM      1  F   UNL     1       8.293   8.145   7.497  0.00  0.00    -0.205 F 
ATOM     25  C   UNL     1       9.700   5.199   5.889  0.00  0.00    +0.037 A 
ATOM     26  C   UNL     1       9.110   6.453   6.055  0.00  0.00    +0.061 A 
ATOM     27  C   UNL     1      10.037   4.434   7.005  0.00  0.00    +0.023 A 
ATOM     28  C   UNL     1       8.859   6.941   7.338  0.00  0.00    +0.125 A 
ATOM     29  C   UNL     1       9.786   4.922   8.288  0.00  0.00    +0.005 A 
ATOM     30  C   UNL     1       9.197   6.176   8.453  0.00  0.00    +0.038 A 
ENDBRANCH   9  25
ENDBRANCH  13   7
BRANCH  15  18
ATOM      4  O   UNL     1      10.500   2.244  -2.455  0.00  0.00    -0.271 OA
ATOM      8  N   UNL     1      10.343   4.553  -2.740  0.00  0.00    -0.300 N 
ATOM     18  C   UNL     1      10.754   3.393  -2.109  0.00  0.00    +0.241 C 
ATOM     32  H   UNL     1      10.560   5.452  -2.318  0.00  0.00    +0.150 HD
BRANCH   8  17
ATOM     17  C   UNL     1       9.529   4.553  -3.929  0.00  0.00    +0.159 C 
BRANCH  17  24
ATOM      6  O   UNL     1       7.276   5.435  -4.161  0.00  0.00    -0.274 OA
ATOM     10  N   UNL     1       8.788   6.606  -2.887  0.00  0.00    -0.328 N 
ATOM     24  C   UNL     1       8.410   5.560  -3.703  0.00  0.00    +0.231 C 
ATOM     36  H   UNL     1       8.131   7.341  -2.646  0.00  0.00    +0.145 HD
ATOM     37  H   UNL     1       9.721   6.684  -2.498  0.00  0.00    +0.145 HD
ENDBRANCH  17  24
BRANCH  17  19
ATOM     19  C   UNL     1      10.332   4.922  -5.182  0.00  0.00    +0.034 C 
BRANCH  19  20
ATOM     20  C   UNL     1      10.817   3.720  -6.018  0.00  0.00    -0.015 C 
ATOM     21  C   UNL     1       9.805   2.576  -5.913  0.00  0.00    +0.007 C 
ATOM     22  C   UNL     1      12.198   3.227  -5.583  0.00  0.00    +0.007 C 
ENDBRANCH  19  20
ENDBRANCH  17  19
ENDBRANCH   8  17
ENDBRANCH  15  18
BRANCH  11   2
ATOM      2  O   UNL     1      12.760   2.466   1.920  0.00  0.00    -0.387 OA
ATOM     33  H   UNL     1      12.813   1.912   1.124  0.00  0.00    +0.210 HD
ENDBRANCH  11   2
BRANCH  12   3
ATOM      3  O   UNL     1      14.309   5.090  -0.105  0.00  0.00    -0.389 OA
ATOM     34  H   UNL     1      14.311   5.611   0.715  0.00  0.00    +0.210 HD
ENDBRANCH  12   3
TORSDOF 9
ENDMDL
MODEL 9
REMARK VINA RESULT:      -6.2     17.182     21.559
REMARK  Name = 7050094
REMARK  11 active torsions:
REMARK  status: ('A' for Active; 'I' for Inactive)
REMARK    1  A    between atoms: O_2  and  C_11
REMARK    2  A    between atoms: O_3  and  C_12
REMARK    3  A    between atoms: N_7  and  C_13
REMARK    4  A    between atoms: N_8  and  C_17
REMARK    5  A    between atoms: N_9  and  C_25
REMARK    6  A    between atoms: C_15  and  C_18
REMARK    7  A    between atoms: C_17  and  C_19
REMARK    8  A    between atoms: C_17  and  C_24
REMARK    9  A    between atoms: C_19  and  C_20
REMARK   10  A    between atoms: C_20  and  C_21
REMARK   11  A    between atoms: C_20  and  C_22
REMARK                            x       y       z     vdW  Elec       q    Type
REMARK                         _______ _______ _______ _____ _____    ______ ____
ROOT
ATOM     11  C   UNL     1      12.139   6.376   1.445  0.00  0.00    +0.167 C 
ATOM     12  C   UNL     1      12.865   6.692   2.758  0.00  0.00    +0.149 C 
ATOM     13  C   UNL     1      11.510   4.970   1.473  0.00  0.00    +0.129 C 
ATOM     14  C   UNL     1      11.942   6.545   3.980  0.00  0.00    +0.074 C 
ATOM     15  C   UNL     1      11.001   5.378   3.879  0.00  0.00    +0.015 C 
ATOM     16  C   UNL     1      10.804   4.659   2.764  0.00  0.00    +0.006 C 
ENDROOT
BRANCH  13   7
ATOM      5  O   UNL     1      12.180   4.421  -1.258  0.00  0.00    -0.252 OA
ATOM      7  N   UNL     1      10.588   4.778   0.380  0.00  0.00    -0.290 N 
ATOM      9  N   UNL     1       9.891   4.373  -1.771  0.00  0.00    -0.269 N 
ATOM     23  C   UNL     1      10.999   4.512  -0.932  0.00  0.00    +0.304 C 
ATOM     31  H   UNL     1       9.594   4.892   0.556  0.00  0.00    +0.151 HD
ATOM     35  H   UNL     1       8.976   4.479  -1.340  0.00  0.00    +0.156 HD
BRANCH   9  25
ATOM      1  F   UNL     1      10.252   5.867  -6.320  0.00  0.00    -0.205 F 
ATOM     25  C   UNL     1       9.881   4.103  -3.159  0.00  0.00    +0.037 A 
ATOM     26  C   UNL     1      10.075   5.139  -4.073  0.00  0.00    +0.061 A 
ATOM     27  C   UNL     1       9.679   2.800  -3.615  0.00  0.00    +0.023 A 
ATOM     28  C   UNL     1      10.066   4.872  -5.442  0.00  0.00    +0.125 A 
ATOM     29  C   UNL     1       9.670   2.533  -4.984  0.00  0.00    +0.005 A 
ATOM     30  C   UNL     1       9.864   3.569  -5.897  0.00  0.00    +0.038 A 
ENDBRANCH   9  25
ENDBRANCH  13   7
BRANCH  15  18
ATOM      4  O   UNL     1       9.820   3.844   5.196  0.00  0.00    -0.271 OA
ATOM      8  N   UNL     1      10.138   6.011   5.998  0.00  0.00    -0.300 N 
ATOM     18  C   UNL     1      10.261   4.982   5.081  0.00  0.00    +0.241 C 
ATOM     32  H   UNL     1      10.608   6.894   5.820  0.00  0.00    +0.150 HD
BRANCH   8  17
ATOM     17  C   UNL     1       9.450   5.862   7.254  0.00  0.00    +0.159 C 
BRANCH  17  24
ATOM      6  O   UNL     1      10.204   4.676   9.237  0.00  0.00    -0.274 OA
ATOM     10  N   UNL     1      11.758   5.799   7.972  0.00  0.00    -0.328 N 
ATOM     24  C   UNL     1      10.477   5.388   8.273  0.00  0.00    +0.231 C 
ATOM     36  H   UNL     1      12.541   5.539   8.563  0.00  0.00    +0.145 HD
ATOM     37  H   UNL     1      11.972   6.367   7.159  0.00  0.00    +0.145 HD
ENDBRANCH  17  24
BRANCH  17  19
ATOM     19  C   UNL     1       8.804   7.173   7.721  0.00  0.00    +0.034 C 
BRANCH  19  20
ATOM     20  C   UNL     1       9.330   8.441   7.018  0.00  0.00    -0.015 C 
ATOM     21  C   UNL     1       9.632   9.522   8.059  0.00  0.00    +0.007 C 
ATOM     22  C   UNL     1       8.343   8.984   5.983  0.00  0.00    +0.007 C 
ENDBRANCH  19  20
ENDBRANCH  17  19
ENDBRANCH   8  17
ENDBRANCH  15  18
BRANCH  11   2
ATOM      2  O   UNL     1      11.118   7.354   1.238  0.00  0.00    -0.387 OA
ATOM     33  H   UNL     1      10.503   7.298   1.989  0.00  0.00    +0.210 HD
ENDBRANCH  11   2
BRANCH  12   3
ATOM      3  O   UNL     1      14.007   5.851   2.903  0.00  0.00    -0.389 OA
ATOM     34  H   UNL     1      13.729   4.940   2.709  0.00  0.00    +0.210 HD
ENDBRANCH  12   3
TORSDOF 9
ENDMDL
MODEL 10
REMARK VINA RESULT:      -6.1     14.943     15.789
REMARK  Name = 7050094
REMARK  11 active torsions:
REMARK  status: ('A' for Active; 'I' for Inactive)
REMARK    1  A    between atoms: O_2  and  C_11
REMARK    2  A    between atoms: O_3  and  C_12
REMARK    3  A    between atoms: N_7  and  C_13
REMARK    4  A    between atoms: N_8  and  C_17
REMARK    5  A    between atoms: N_9  and  C_25
REMARK    6  A    between atoms: C_15  and  C_18
REMARK    7  A    between atoms: C_17  and  C_19
REMARK    8  A    between atoms: C_17  and  C_24
REMARK    9  A    between atoms: C_19  and  C_20
REMARK   10  A    between atoms: C_20  and  C_21
REMARK   11  A    between atoms: C_20  and  C_22
REMARK                            x       y       z     vdW  Elec       q    Type
REMARK                         _______ _______ _______ _____ _____    ______ ____
ROOT
ATOM     11  C   UNL     1      14.867  10.307   5.595  0.00  0.00    +0.167 C 
ATOM     12  C   UNL     1      13.621  10.595   6.442  0.00  0.00    +0.149 C 
ATOM     13  C   UNL     1      15.653   9.099   6.139  0.00  0.00    +0.129 C 
ATOM     14  C   UNL     1      12.702   9.366   6.554  0.00  0.00    +0.074 C 
ATOM     15  C   UNL     1      13.450   8.071   6.695  0.00  0.00    +0.015 C 
ATOM     16  C   UNL     1      14.774   7.940   6.521  0.00  0.00    +0.006 C 
ENDROOT
BRANCH  13   7
ATOM      5  O   UNL     1      18.493   9.079   6.517  0.00  0.00    -0.252 OA
ATOM      7  N   UNL     1      16.646   8.642   5.197  0.00  0.00    -0.290 N 
ATOM      9  N   UNL     1      18.734   8.163   4.370  0.00  0.00    -0.269 N 
ATOM     23  C   UNL     1      18.020   8.666   5.461  0.00  0.00    +0.304 C 
ATOM     31  H   UNL     1      16.339   8.335   4.278  0.00  0.00    +0.151 HD
ATOM     35  H   UNL     1      18.187   7.860   3.568  0.00  0.00    +0.156 HD
BRANCH   9  25
ATOM      1  F   UNL     1      23.041  10.011   3.327  0.00  0.00    -0.205 F 
ATOM     25  C   UNL     1      20.134   8.020   4.240  0.00  0.00    +0.037 A 
ATOM     26  C   UNL     1      20.912   9.107   3.839  0.00  0.00    +0.061 A 
ATOM     27  C   UNL     1      20.740   6.793   4.513  0.00  0.00    +0.023 A 
ATOM     28  C   UNL     1      22.294   8.967   3.712  0.00  0.00    +0.125 A 
ATOM     29  C   UNL     1      22.122   6.653   4.385  0.00  0.00    +0.005 A 
ATOM     30  C   UNL     1      22.899   7.740   3.985  0.00  0.00    +0.038 A 
ENDBRANCH   9  25
ENDBRANCH  13   7
BRANCH  15  18
ATOM      4  O   UNL     1      13.200   6.009   7.775  0.00  0.00    -0.271 OA
ATOM      8  N   UNL     1      11.415   6.861   6.539  0.00  0.00    -0.300 N 
ATOM     18  C   UNL     1      12.693   6.874   7.068  0.00  0.00    +0.241 C 
ATOM     32  H   UNL     1      11.082   7.671   6.022  0.00  0.00    +0.150 HD
BRANCH   8  17
ATOM     17  C   UNL     1      10.484   5.785   6.765  0.00  0.00    +0.159 C 
BRANCH  17  24
ATOM      6  O   UNL     1       8.896   6.833   8.278  0.00  0.00    -0.274 OA
ATOM     10  N   UNL     1      10.340   5.258   9.120  0.00  0.00    -0.328 N 
ATOM     24  C   UNL     1       9.822   6.043   8.111  0.00  0.00    +0.231 C 
ATOM     36  H   UNL     1       9.978   5.321  10.066  0.00  0.00    +0.145 HD
ATOM     37  H   UNL     1      11.091   4.593   8.963  0.00  0.00    +0.145 HD
ENDBRANCH  17  24
BRANCH  17  19
ATOM     19  C   UNL     1       9.423   5.693   5.660  0.00  0.00    +0.034 C 
BRANCH  19  20
ATOM     20  C   UNL     1       9.466   6.835   4.624  0.00  0.00    -0.015 C 
ATOM     21  C   UNL     1       8.110   7.544   4.580  0.00  0.00    +0.007 C 
ATOM     22  C   UNL     1       9.832   6.337   3.225  0.00  0.00    +0.007 C 
ENDBRANCH  19  20
ENDBRANCH  17  19
ENDBRANCH   8  17
ENDBRANCH  15  18
BRANCH  11   2
ATOM      2  O   UNL     1      14.459  10.047   4.251  0.00  0.00    -0.387 OA
ATOM     33  H   UNL     1      14.666   9.117   4.057  0.00  0.00    +0.210 HD
ENDBRANCH  11   2
BRANCH  12   3
ATOM      3  O   UNL     1      14.003  11.040   7.741  0.00  0.00    -0.389 OA
ATOM     34  H   UNL     1      13.382  11.739   8.007  0.00  0.00    +0.210 HD
ENDBRANCH  12   3
TORSDOF 9
ENDMDL
