MODEL 1
REMARK VINA RESULT:      -7.1      0.000      0.000
REMARK  Name = 40587799
REMARK  4 active torsions:
REMARK  status: ('A' for Active; 'I' for Inactive)
REMARK    1  A    between atoms: S_1  and  C_25
REMARK    2  A    between atoms: S_1  and  C_31
REMARK    3  A    between atoms: N_6  and  C_22
REMARK    4  A    between atoms: C_14  and  C_19
REMARK                            x       y       z     vdW  Elec       q    Type
REMARK                         _______ _______ _______ _____ _____    ______ ____
ROOT
ATOM      2  O   UNL     1      10.887   7.323  20.906  0.00  0.00    -0.268 OA
ATOM      3  O   UNL     1      14.396  11.890  21.301  0.00  0.00    -0.252 OA
ATOM      4  N   UNL     1      12.998   7.906  20.072  0.00  0.00    -0.311 N 
ATOM      5  N   UNL     1      15.233   9.736  21.420  0.00  0.00    -0.284 N 
ATOM      6  N   UNL     1      14.173  10.712  23.287  0.00  0.00    -0.269 N 
ATOM      7  C   UNL     1      15.150   7.240  21.290  0.00  0.00    +0.027 C 
ATOM      8  C   UNL     1      15.272   8.560  19.224  0.00  0.00    +0.054 C 
ATOM      9  C   UNL     1      15.784   7.296  19.911  0.00  0.00    +0.018 C 
ATOM     10  C   UNL     1      13.637   7.097  21.119  0.00  0.00    +0.130 C 
ATOM     11  C   UNL     1      15.515   8.479  22.129  0.00  0.00    +0.114 C 
ATOM     12  C   UNL     1      15.723   9.787  20.039  0.00  0.00    +0.119 C 
ATOM     13  C   UNL     1      13.748   8.554  19.072  0.00  0.00    +0.034 A 
ATOM     14  C   UNL     1      13.112   9.165  18.039  0.00  0.00    +0.002 A 
ATOM     15  C   UNL     1      11.591   7.887  20.068  0.00  0.00    +0.252 A 
ATOM     16  C   UNL     1      14.574  10.862  21.960  0.00  0.00    +0.306 C 
ATOM     17  C   UNL     1      11.663   9.171  18.003  0.00  0.00    +0.015 A 
ATOM     18  C   UNL     1      10.925   8.591  18.949  0.00  0.00    +0.071 A 
ATOM     32  H   UNL     1      14.733  10.118  23.890  0.00  0.00    +0.156 HD
ENDROOT
BRANCH  14  19
ATOM     19  C   UNL     1      13.858   9.847  16.957  0.00  0.00    -0.016 A 
ATOM     20  C   UNL     1      14.144  11.208  17.059  0.00  0.00    +0.009 A 
ATOM     21  C   UNL     1      14.273   9.128  15.836  0.00  0.00    +0.009 A 
ATOM     23  C   UNL     1      14.847  11.851  16.040  0.00  0.00    +0.015 A 
ATOM     24  C   UNL     1      14.976   9.771  14.817  0.00  0.00    +0.015 A 
ATOM     25  C   UNL     1      15.262  11.132  14.919  0.00  0.00    +0.008 A 
BRANCH  25   1
ATOM      1  S   UNL     1      16.160  11.953  13.616  0.00  0.00    -0.129 S 
ATOM     31  C   UNL     1      17.805  12.138  14.362  0.00  0.00    +0.090 C 
ENDBRANCH  25   1
ENDBRANCH  14  19
BRANCH   6  22
ATOM     22  C   UNL     1      13.057  11.315  23.918  0.00  0.00    +0.035 A 
ATOM     26  C   UNL     1      11.765  11.011  23.490  0.00  0.00    +0.023 A 
ATOM     27  C   UNL     1      13.250  12.214  24.968  0.00  0.00    +0.023 A 
ATOM     28  C   UNL     1      10.666  11.605  24.110  0.00  0.00    +0.002 A 
ATOM     29  C   UNL     1      12.151  12.808  25.588  0.00  0.00    +0.002 A 
ATOM     30  C   UNL     1      10.859  12.503  25.160  0.00  0.00    +0.000 A 
ENDBRANCH   6  22
TORSDOF 3
ENDMDL
MODEL 2
REMARK VINA RESULT:      -6.8     27.484     30.568
REMARK  Name = 40587799
REMARK  4 active torsions:
REMARK  status: ('A' for Active; 'I' for Inactive)
REMARK    1  A    between atoms: S_1  and  C_25
REMARK    2  A    between atoms: S_1  and  C_31
REMARK    3  A    between atoms: N_6  and  C_22
REMARK    4  A    between atoms: C_14  and  C_19
REMARK                            x       y       z     vdW  Elec       q    Type
REMARK                         _______ _______ _______ _____ _____    ______ ____
ROOT
ATOM      2  O   UNL     1      -1.510 -11.786  14.739  0.00  0.00    -0.268 OA
ATOM      3  O   UNL     1      -6.914 -11.175  12.803  0.00  0.00    -0.252 OA
ATOM      4  N   UNL     1      -3.594 -12.737  15.229  0.00  0.00    -0.311 N 
ATOM      5  N   UNL     1      -6.048 -13.271  13.264  0.00  0.00    -0.284 N 
ATOM      6  N   UNL     1      -5.478 -12.155  11.265  0.00  0.00    -0.269 N 
ATOM      7  C   UNL     1      -4.367 -14.913  14.121  0.00  0.00    +0.027 C 
ATOM      8  C   UNL     1      -5.846 -13.751  15.700  0.00  0.00    +0.054 C 
ATOM      9  C   UNL     1      -5.198 -15.096  15.381  0.00  0.00    +0.018 C 
ATOM     10  C   UNL     1      -3.248 -13.916  14.425  0.00  0.00    +0.130 C 
ATOM     11  C   UNL     1      -5.236 -14.452  12.936  0.00  0.00    +0.114 C 
ATOM     12  C   UNL     1      -6.773 -13.355  14.535  0.00  0.00    +0.119 C 
ATOM     13  C   UNL     1      -4.804 -12.655  15.946  0.00  0.00    +0.034 A 
ATOM     14  C   UNL     1      -5.019 -11.616  16.794  0.00  0.00    +0.002 A 
ATOM     15  C   UNL     1      -2.590 -11.757  15.329  0.00  0.00    +0.252 A 
ATOM     16  C   UNL     1      -6.193 -12.118  12.463  0.00  0.00    +0.306 C 
ATOM     17  C   UNL     1      -4.008 -10.584  16.919  0.00  0.00    +0.015 A 
ATOM     18  C   UNL     1      -2.866 -10.619  16.233  0.00  0.00    +0.071 A 
ATOM     32  H   UNL     1      -5.329 -13.058  10.827  0.00  0.00    +0.156 HD
ENDROOT
BRANCH  14  19
ATOM     19  C   UNL     1      -6.268 -11.496  17.579  0.00  0.00    -0.016 A 
ATOM     20  C   UNL     1      -7.310 -10.696  17.111  0.00  0.00    +0.009 A 
ATOM     21  C   UNL     1      -6.401 -12.181  18.787  0.00  0.00    +0.009 A 
ATOM     23  C   UNL     1      -8.487 -10.581  17.851  0.00  0.00    +0.015 A 
ATOM     24  C   UNL     1      -7.578 -12.066  19.526  0.00  0.00    +0.015 A 
ATOM     25  C   UNL     1      -8.621 -11.266  19.058  0.00  0.00    +0.008 A 
BRANCH  25   1
ATOM      1  S   UNL     1     -10.125 -11.120  20.004  0.00  0.00    -0.129 S 
ATOM     31  C   UNL     1     -10.474 -12.855  20.410  0.00  0.00    +0.090 C 
ENDBRANCH  25   1
ENDBRANCH  14  19
BRANCH   6  22
ATOM     22  C   UNL     1      -4.932 -11.055  10.559  0.00  0.00    +0.035 A 
ATOM     26  C   UNL     1      -3.743 -10.469  10.993  0.00  0.00    +0.023 A 
ATOM     27  C   UNL     1      -5.583 -10.558   9.429  0.00  0.00    +0.023 A 
ATOM     28  C   UNL     1      -3.205  -9.386  10.298  0.00  0.00    +0.002 A 
ATOM     29  C   UNL     1      -5.045  -9.474   8.735  0.00  0.00    +0.002 A 
ATOM     30  C   UNL     1      -3.856  -8.888   9.169  0.00  0.00    +0.000 A 
ENDBRANCH   6  22
TORSDOF 3
ENDMDL
MODEL 3
REMARK VINA RESULT:      -6.7     14.051     16.864
REMARK  Name = 40587799
REMARK  4 active torsions:
REMARK  status: ('A' for Active; 'I' for Inactive)
REMARK    1  A    between atoms: S_1  and  C_25
REMARK    2  A    between atoms: S_1  and  C_31
REMARK    3  A    between atoms: N_6  and  C_22
REMARK    4  A    between atoms: C_14  and  C_19
REMARK                            x       y       z     vdW  Elec       q    Type
REMARK                         _______ _______ _______ _____ _____    ______ ____
ROOT
ATOM      2  O   UNL     1      10.212   9.789   8.346  0.00  0.00    -0.268 OA
ATOM      3  O   UNL     1      11.942   7.888   3.177  0.00  0.00    -0.252 OA
ATOM      4  N   UNL     1       9.256   8.563   6.593  0.00  0.00    -0.311 N 
ATOM      5  N   UNL     1      10.674   6.546   4.571  0.00  0.00    -0.284 N 
ATOM      6  N   UNL     1      12.985   6.826   4.957  0.00  0.00    -0.269 N 
ATOM      7  C   UNL     1       9.284   6.002   6.578  0.00  0.00    +0.027 C 
ATOM      8  C   UNL     1       8.281   7.225   4.701  0.00  0.00    +0.054 C 
ATOM      9  C   UNL     1       8.027   6.130   5.735  0.00  0.00    +0.018 C 
ATOM     10  C   UNL     1       9.495   7.315   7.331  0.00  0.00    +0.130 C 
ATOM     11  C   UNL     1      10.507   5.637   5.715  0.00  0.00    +0.114 C 
ATOM     12  C   UNL     1       9.453   6.796   3.798  0.00  0.00    +0.119 C 
ATOM     13  C   UNL     1       8.581   8.576   5.356  0.00  0.00    +0.034 A 
ATOM     14  C   UNL     1       8.249   9.761   4.780  0.00  0.00    +0.002 A 
ATOM     15  C   UNL     1       9.636   9.742   7.258  0.00  0.00    +0.252 A 
ATOM     16  C   UNL     1      11.883   7.152   4.165  0.00  0.00    +0.306 C 
ATOM     17  C   UNL     1       8.629  10.998   5.434  0.00  0.00    +0.015 A 
ATOM     18  C   UNL     1       9.292  11.017   6.590  0.00  0.00    +0.071 A 
ATOM     32  H   UNL     1      13.001   5.912   5.397  0.00  0.00    +0.156 HD
ENDROOT
BRANCH  14  19
ATOM     19  C   UNL     1       7.528   9.825   3.489  0.00  0.00    -0.016 A 
ATOM     20  C   UNL     1       8.242   9.817   2.291  0.00  0.00    +0.009 A 
ATOM     21  C   UNL     1       6.135   9.895   3.471  0.00  0.00    +0.009 A 
ATOM     23  C   UNL     1       7.563   9.878   1.074  0.00  0.00    +0.015 A 
ATOM     24  C   UNL     1       5.457   9.956   2.254  0.00  0.00    +0.015 A 
ATOM     25  C   UNL     1       6.170   9.948   1.056  0.00  0.00    +0.008 A 
BRANCH  25   1
ATOM      1  S   UNL     1       5.302  10.025  -0.499  0.00  0.00    -0.129 S 
ATOM     31  C   UNL     1       3.575   9.857   0.034  0.00  0.00    +0.090 C 
ENDBRANCH  25   1
ENDBRANCH  14  19
BRANCH   6  22
ATOM     22  C   UNL     1      14.120   7.631   5.218  0.00  0.00    +0.035 A 
ATOM     26  C   UNL     1      14.034   8.685   6.128  0.00  0.00    +0.023 A 
ATOM     27  C   UNL     1      15.325   7.371   4.564  0.00  0.00    +0.023 A 
ATOM     28  C   UNL     1      15.152   9.478   6.385  0.00  0.00    +0.002 A 
ATOM     29  C   UNL     1      16.443   8.165   4.821  0.00  0.00    +0.002 A 
ATOM     30  C   UNL     1      16.357   9.218   5.731  0.00  0.00    +0.000 A 
ENDBRANCH   6  22
TORSDOF 3
ENDMDL
MODEL 4
REMARK VINA RESULT:      -6.6     13.464     16.565
REMARK  Name = 40587799
REMARK  4 active torsions:
REMARK  status: ('A' for Active; 'I' for Inactive)
REMARK    1  A    between atoms: S_1  and  C_25
REMARK    2  A    between atoms: S_1  and  C_31
REMARK    3  A    between atoms: N_6  and  C_22
REMARK    4  A    between atoms: C_14  and  C_19
REMARK                            x       y       z     vdW  Elec       q    Type
REMARK                         _______ _______ _______ _____ _____    ______ ____
ROOT
ATOM      2  O   UNL     1      13.953   6.612   7.249  0.00  0.00    -0.268 OA
ATOM      3  O   UNL     1       9.805   6.990   3.252  0.00  0.00    -0.252 OA
ATOM      4  N   UNL     1      11.678   7.174   7.227  0.00  0.00    -0.311 N 
ATOM      5  N   UNL     1       9.373   6.060   5.326  0.00  0.00    -0.284 N 
ATOM      6  N   UNL     1      10.502   4.817   3.669  0.00  0.00    -0.269 N 
ATOM      7  C   UNL     1       9.863   5.428   7.696  0.00  0.00    +0.027 C 
ATOM      8  C   UNL     1       9.229   7.738   7.160  0.00  0.00    +0.054 C 
ATOM      9  C   UNL     1       9.042   6.613   8.175  0.00  0.00    +0.018 C 
ATOM     10  C   UNL     1      11.339   5.828   7.710  0.00  0.00    +0.130 C 
ATOM     11  C   UNL     1       9.413   4.958   6.299  0.00  0.00    +0.114 C 
ATOM     12  C   UNL     1       8.694   7.272   5.794  0.00  0.00    +0.119 C 
ATOM     13  C   UNL     1      10.695   8.165   7.039  0.00  0.00    +0.034 A 
ATOM     14  C   UNL     1      11.067   9.436   6.736  0.00  0.00    +0.002 A 
ATOM     15  C   UNL     1      13.052   7.436   7.082  0.00  0.00    +0.252 A 
ATOM     16  C   UNL     1       9.900   6.026   4.016  0.00  0.00    +0.306 C 
ATOM     17  C   UNL     1      12.474   9.743   6.574  0.00  0.00    +0.015 A 
ATOM     18  C   UNL     1      13.425   8.820   6.717  0.00  0.00    +0.071 A 
ATOM     32  H   UNL     1      10.142   3.967   4.089  0.00  0.00    +0.156 HD
ENDROOT
BRANCH  14  19
ATOM     19  C   UNL     1      10.071  10.514   6.544  0.00  0.00    -0.016 A 
ATOM     20  C   UNL     1       9.708  11.326   7.619  0.00  0.00    +0.009 A 
ATOM     21  C   UNL     1       9.496  10.718   5.290  0.00  0.00    +0.009 A 
ATOM     23  C   UNL     1       8.769  12.342   7.439  0.00  0.00    +0.015 A 
ATOM     24  C   UNL     1       8.558  11.734   5.110  0.00  0.00    +0.015 A 
ATOM     25  C   UNL     1       8.194  12.546   6.185  0.00  0.00    +0.008 A 
BRANCH  25   1
ATOM      1  S   UNL     1       6.995  13.844   5.955  0.00  0.00    -0.129 S 
ATOM     31  C   UNL     1       5.694  12.984   5.025  0.00  0.00    +0.090 C 
ENDBRANCH  25   1
ENDBRANCH  14  19
BRANCH   6  22
ATOM     22  C   UNL     1      11.576   4.623   2.765  0.00  0.00    +0.035 A 
ATOM     26  C   UNL     1      12.471   5.662   2.513  0.00  0.00    +0.023 A 
ATOM     27  C   UNL     1      11.737   3.393   2.126  0.00  0.00    +0.023 A 
ATOM     28  C   UNL     1      13.528   5.472   1.623  0.00  0.00    +0.002 A 
ATOM     29  C   UNL     1      12.794   3.203   1.236  0.00  0.00    +0.002 A 
ATOM     30  C   UNL     1      13.690   4.242   0.984  0.00  0.00    +0.000 A 
ENDBRANCH   6  22
TORSDOF 3
ENDMDL
MODEL 5
REMARK VINA RESULT:      -6.5     27.969     29.922
REMARK  Name = 40587799
REMARK  4 active torsions:
REMARK  status: ('A' for Active; 'I' for Inactive)
REMARK    1  A    between atoms: S_1  and  C_25
REMARK    2  A    between atoms: S_1  and  C_31
REMARK    3  A    between atoms: N_6  and  C_22
REMARK    4  A    between atoms: C_14  and  C_19
REMARK                            x       y       z     vdW  Elec       q    Type
REMARK                         _______ _______ _______ _____ _____    ______ ____
ROOT
ATOM      2  O   UNL     1      -7.508 -14.792  17.430  0.00  0.00    -0.268 OA
ATOM      3  O   UNL     1      -8.310  -9.225  16.128  0.00  0.00    -0.252 OA
ATOM      4  N   UNL     1      -6.133 -12.955  16.956  0.00  0.00    -0.311 N 
ATOM      5  N   UNL     1      -6.641  -9.873  17.594  0.00  0.00    -0.284 N 
ATOM      6  N   UNL     1      -8.886  -9.764  18.310  0.00  0.00    -0.269 N 
ATOM      7  C   UNL     1      -5.174 -11.484  18.821  0.00  0.00    +0.027 C 
ATOM      8  C   UNL     1      -4.695 -10.950  16.473  0.00  0.00    +0.054 C 
ATOM      9  C   UNL     1      -4.052 -11.205  17.835  0.00  0.00    +0.018 C 
ATOM     10  C   UNL     1      -5.883 -12.769  18.392  0.00  0.00    +0.130 C 
ATOM     11  C   UNL     1      -6.151 -10.297  18.914  0.00  0.00    +0.114 C 
ATOM     12  C   UNL     1      -5.600  -9.709  16.574  0.00  0.00    +0.119 C 
ATOM     13  C   UNL     1      -5.500 -12.158  15.983  0.00  0.00    +0.034 A 
ATOM     14  C   UNL     1      -5.642 -12.459  14.666  0.00  0.00    +0.002 A 
ATOM     15  C   UNL     1      -6.945 -14.053  16.621  0.00  0.00    +0.252 A 
ATOM     16  C   UNL     1      -7.985  -9.599  17.258  0.00  0.00    +0.306 C 
ATOM     17  C   UNL     1      -6.476 -13.580  14.282  0.00  0.00    +0.015 A 
ATOM     18  C   UNL     1      -7.110 -14.336  15.178  0.00  0.00    +0.071 A 
ATOM     32  H   UNL     1      -8.555  -9.587  19.253  0.00  0.00    +0.156 HD
ENDROOT
BRANCH  14  19
ATOM     19  C   UNL     1      -4.985 -11.659  13.608  0.00  0.00    -0.016 A 
ATOM     20  C   UNL     1      -5.689 -10.642  12.965  0.00  0.00    +0.009 A 
ATOM     21  C   UNL     1      -3.662 -11.924  13.254  0.00  0.00    +0.009 A 
ATOM     23  C   UNL     1      -5.071  -9.888  11.967  0.00  0.00    +0.015 A 
ATOM     24  C   UNL     1      -3.044 -11.170  12.256  0.00  0.00    +0.015 A 
ATOM     25  C   UNL     1      -3.748 -10.152  11.613  0.00  0.00    +0.008 A 
BRANCH  25   1
ATOM      1  S   UNL     1      -2.957  -9.189  10.339  0.00  0.00    -0.129 S 
ATOM     31  C   UNL     1      -4.345  -8.849   9.219  0.00  0.00    +0.090 C 
ENDBRANCH  25   1
ENDBRANCH  14  19
BRANCH   6  22
ATOM     22  C   UNL     1     -10.247 -10.145  18.220  0.00  0.00    +0.035 A 
ATOM     26  C   UNL     1     -10.589 -11.495  18.137  0.00  0.00    +0.023 A 
ATOM     27  C   UNL     1     -11.246  -9.170  18.214  0.00  0.00    +0.023 A 
ATOM     28  C   UNL     1     -11.929 -11.870  18.048  0.00  0.00    +0.002 A 
ATOM     29  C   UNL     1     -12.586  -9.547  18.124  0.00  0.00    +0.002 A 
ATOM     30  C   UNL     1     -12.928 -10.896  18.042  0.00  0.00    +0.000 A 
ENDBRANCH   6  22
TORSDOF 3
ENDMDL
MODEL 6
REMARK VINA RESULT:      -6.4     11.569     14.754
REMARK  Name = 40587799
REMARK  4 active torsions:
REMARK  status: ('A' for Active; 'I' for Inactive)
REMARK    1  A    between atoms: S_1  and  C_25
REMARK    2  A    between atoms: S_1  and  C_31
REMARK    3  A    between atoms: N_6  and  C_22
REMARK    4  A    between atoms: C_14  and  C_19
REMARK                            x       y       z     vdW  Elec       q    Type
REMARK                         _______ _______ _______ _____ _____    ______ ____
ROOT
ATOM      2  O   UNL     1      10.886   5.655   8.719  0.00  0.00    -0.268 OA
ATOM      3  O   UNL     1      10.928  10.828   6.158  0.00  0.00    -0.252 OA
ATOM      4  N   UNL     1      11.732   6.541   6.722  0.00  0.00    -0.311 N 
ATOM      5  N   UNL     1      12.813   9.487   6.153  0.00  0.00    -0.284 N 
ATOM      6  N   UNL     1      12.232  10.727   8.074  0.00  0.00    -0.269 N 
ATOM      7  C   UNL     1      14.138   7.403   6.552  0.00  0.00    +0.027 C 
ATOM      8  C   UNL     1      12.648   7.542   4.605  0.00  0.00    +0.054 C 
ATOM      9  C   UNL     1      14.014   7.049   5.080  0.00  0.00    +0.018 C 
ATOM     10  C   UNL     1      13.069   6.629   7.324  0.00  0.00    +0.130 C 
ATOM     11  C   UNL     1      14.018   8.922   6.779  0.00  0.00    +0.114 C 
ATOM     12  C   UNL     1      12.587   9.073   4.765  0.00  0.00    +0.119 C 
ATOM     13  C   UNL     1      11.500   6.881   5.375  0.00  0.00    +0.034 A 
ATOM     14  C   UNL     1      10.285   6.644   4.817  0.00  0.00    +0.002 A 
ATOM     15  C   UNL     1      10.735   5.984   7.542  0.00  0.00    +0.252 A 
ATOM     16  C   UNL     1      11.907  10.382   6.762  0.00  0.00    +0.306 C 
ATOM     17  C   UNL     1       9.230   6.076   5.633  0.00  0.00    +0.015 A 
ATOM     18  C   UNL     1       9.410   5.770   6.918  0.00  0.00    +0.071 A 
ATOM     32  H   UNL     1      13.212  10.748   8.332  0.00  0.00    +0.156 HD
ENDROOT
BRANCH  14  19
ATOM     19  C   UNL     1       9.999   6.971   3.402  0.00  0.00    -0.016 A 
ATOM     20  C   UNL     1       9.342   8.158   3.081  0.00  0.00    +0.009 A 
ATOM     21  C   UNL     1      10.385   6.091   2.391  0.00  0.00    +0.009 A 
ATOM     23  C   UNL     1       9.071   8.467   1.747  0.00  0.00    +0.015 A 
ATOM     24  C   UNL     1      10.114   6.400   1.058  0.00  0.00    +0.015 A 
ATOM     25  C   UNL     1       9.457   7.587   0.736  0.00  0.00    +0.008 A 
BRANCH  25   1
ATOM      1  S   UNL     1       9.112   7.981  -0.967  0.00  0.00    -0.129 S 
ATOM     31  C   UNL     1       9.861   6.570  -1.831  0.00  0.00    +0.090 C 
ENDBRANCH  25   1
ENDBRANCH  14  19
BRANCH   6  22
ATOM     22  C   UNL     1      11.336  11.073   9.116  0.00  0.00    +0.035 A 
ATOM     26  C   UNL     1       9.992  10.709   9.029  0.00  0.00    +0.023 A 
ATOM     27  C   UNL     1      11.798  11.779  10.227  0.00  0.00    +0.023 A 
ATOM     28  C   UNL     1       9.110  11.050  10.054  0.00  0.00    +0.002 A 
ATOM     29  C   UNL     1      10.914  12.120  11.252  0.00  0.00    +0.002 A 
ATOM     30  C   UNL     1       9.571  11.756  11.166  0.00  0.00    +0.000 A 
ENDBRANCH   6  22
TORSDOF 3
ENDMDL
MODEL 7
REMARK VINA RESULT:      -6.3     21.884     24.738
REMARK  Name = 40587799
REMARK  4 active torsions:
REMARK  status: ('A' for Active; 'I' for Inactive)
REMARK    1  A    between atoms: S_1  and  C_25
REMARK    2  A    between atoms: S_1  and  C_31
REMARK    3  A    between atoms: N_6  and  C_22
REMARK    4  A    between atoms: C_14  and  C_19
REMARK                            x       y       z     vdW  Elec       q    Type
REMARK                         _______ _______ _______ _____ _____    ______ ____
ROOT
ATOM      2  O   UNL     1       7.874  -7.630  32.668  0.00  0.00    -0.268 OA
ATOM      3  O   UNL     1      11.515 -11.289  30.085  0.00  0.00    -0.252 OA
ATOM      4  N   UNL     1       8.124  -9.957  32.548  0.00  0.00    -0.311 N 
ATOM      5  N   UNL     1      10.807 -11.656  32.257  0.00  0.00    -0.284 N 
ATOM      6  N   UNL     1      12.486 -10.063  31.799  0.00  0.00    -0.269 N 
ATOM      7  C   UNL     1       9.446 -11.254  34.317  0.00  0.00    +0.027 C 
ATOM      8  C   UNL     1       8.450 -12.446  32.416  0.00  0.00    +0.054 C 
ATOM      9  C   UNL     1       8.543 -12.416  33.940  0.00  0.00    +0.018 C 
ATOM     10  C   UNL     1       8.775  -9.957  33.865  0.00  0.00    +0.130 C 
ATOM     11  C   UNL     1      10.852 -11.412  33.706  0.00  0.00    +0.114 C 
ATOM     12  C   UNL     1       9.856 -12.689  31.835  0.00  0.00    +0.119 C 
ATOM     13  C   UNL     1       7.857 -11.151  31.851  0.00  0.00    +0.034 A 
ATOM     14  C   UNL     1       7.123 -11.118  30.709  0.00  0.00    +0.002 A 
ATOM     15  C   UNL     1       7.683  -8.702  32.092  0.00  0.00    +0.252 A 
ATOM     16  C   UNL     1      11.600 -11.010  31.284  0.00  0.00    +0.306 C 
ATOM     17  C   UNL     1       6.654  -9.842  30.205  0.00  0.00    +0.015 A 
ATOM     18  C   UNL     1       6.915  -8.692  30.826  0.00  0.00    +0.071 A 
ATOM     32  H   UNL     1      12.856 -10.215  32.731  0.00  0.00    +0.156 HD
ENDROOT
BRANCH  14  19
ATOM     19  C   UNL     1       6.804 -12.348  29.950  0.00  0.00    -0.016 A 
ATOM     20  C   UNL     1       5.677 -13.099  30.282  0.00  0.00    +0.009 A 
ATOM     21  C   UNL     1       7.633 -12.758  28.906  0.00  0.00    +0.009 A 
ATOM     23  C   UNL     1       5.376 -14.259  29.568  0.00  0.00    +0.015 A 
ATOM     24  C   UNL     1       7.332 -13.918  28.192  0.00  0.00    +0.015 A 
ATOM     25  C   UNL     1       6.205 -14.668  28.523  0.00  0.00    +0.008 A 
BRANCH  25   1
ATOM      1  S   UNL     1       5.821 -16.151  27.610  0.00  0.00    -0.129 S 
ATOM     31  C   UNL     1       5.995 -15.583  25.895  0.00  0.00    +0.090 C 
ENDBRANCH  25   1
ENDBRANCH  14  19
BRANCH   6  22
ATOM     22  C   UNL     1      12.957  -8.892  31.156  0.00  0.00    +0.035 A 
ATOM     26  C   UNL     1      14.181  -8.908  30.487  0.00  0.00    +0.023 A 
ATOM     27  C   UNL     1      12.197  -7.722  31.194  0.00  0.00    +0.023 A 
ATOM     28  C   UNL     1      14.645  -7.755  29.855  0.00  0.00    +0.002 A 
ATOM     29  C   UNL     1      12.662  -6.569  30.562  0.00  0.00    +0.002 A 
ATOM     30  C   UNL     1      13.886  -6.584  29.892  0.00  0.00    +0.000 A 
ENDBRANCH   6  22
TORSDOF 3
ENDMDL
MODEL 8
REMARK VINA RESULT:      -6.2     14.926     18.203
REMARK  Name = 40587799
REMARK  4 active torsions:
REMARK  status: ('A' for Active; 'I' for Inactive)
REMARK    1  A    between atoms: S_1  and  C_25
REMARK    2  A    between atoms: S_1  and  C_31
REMARK    3  A    between atoms: N_6  and  C_22
REMARK    4  A    between atoms: C_14  and  C_19
REMARK                            x       y       z     vdW  Elec       q    Type
REMARK                         _______ _______ _______ _____ _____    ______ ____
ROOT
ATOM      2  O   UNL     1      13.206   9.109   5.420  0.00  0.00    -0.268 OA
ATOM      3  O   UNL     1       9.952   5.780   2.006  0.00  0.00    -0.252 OA
ATOM      4  N   UNL     1      10.988   8.355   5.418  0.00  0.00    -0.311 N 
ATOM      5  N   UNL     1       9.824   5.601   4.310  0.00  0.00    -0.284 N 
ATOM      6  N   UNL     1      11.615   4.616   3.131  0.00  0.00    -0.269 N 
ATOM      7  C   UNL     1      10.291   6.239   6.682  0.00  0.00    +0.027 C 
ATOM      8  C   UNL     1       8.624   7.497   5.390  0.00  0.00    +0.054 C 
ATOM      9  C   UNL     1       8.927   6.905   6.765  0.00  0.00    +0.018 C 
ATOM     10  C   UNL     1      11.336   7.318   6.399  0.00  0.00    +0.130 C 
ATOM     11  C   UNL     1      10.312   5.129   5.614  0.00  0.00    +0.114 C 
ATOM     12  C   UNL     1       8.568   6.356   4.357  0.00  0.00    +0.119 C 
ATOM     13  C   UNL     1       9.664   8.542   4.973  0.00  0.00    +0.034 A 
ATOM     14  C   UNL     1       9.360   9.604   4.183  0.00  0.00    +0.002 A 
ATOM     15  C   UNL     1      12.037   9.216   5.049  0.00  0.00    +0.252 A 
ATOM     16  C   UNL     1      10.441   5.366   3.061  0.00  0.00    +0.306 C 
ATOM     17  C   UNL     1      10.417  10.511   3.778  0.00  0.00    +0.015 A 
ATOM     18  C   UNL     1      11.683  10.344   4.159  0.00  0.00    +0.071 A 
ATOM     32  H   UNL     1      11.698   3.928   3.872  0.00  0.00    +0.156 HD
ENDROOT
BRANCH  14  19
ATOM     19  C   UNL     1       7.982   9.850   3.703  0.00  0.00    -0.016 A 
ATOM     20  C   UNL     1       7.628   9.513   2.397  0.00  0.00    +0.009 A 
ATOM     21  C   UNL     1       7.038  10.420   4.557  0.00  0.00    +0.009 A 
ATOM     23  C   UNL     1       6.329   9.745   1.944  0.00  0.00    +0.015 A 
ATOM     24  C   UNL     1       5.739  10.652   4.105  0.00  0.00    +0.015 A 
ATOM     25  C   UNL     1       5.385  10.315   2.798  0.00  0.00    +0.008 A 
BRANCH  25   1
ATOM      1  S   UNL     1       3.725  10.612   2.221  0.00  0.00    -0.129 S 
ATOM     31  C   UNL     1       3.564  12.404   2.466  0.00  0.00    +0.090 C 
ENDBRANCH  25   1
ENDBRANCH  14  19
BRANCH   6  22
ATOM     22  C   UNL     1      12.731   4.691   2.262  0.00  0.00    +0.035 A 
ATOM     26  C   UNL     1      13.130   3.564   1.542  0.00  0.00    +0.023 A 
ATOM     27  C   UNL     1      13.432   5.890   2.127  0.00  0.00    +0.023 A 
ATOM     28  C   UNL     1      14.229   3.637   0.687  0.00  0.00    +0.002 A 
ATOM     29  C   UNL     1      14.532   5.961   1.272  0.00  0.00    +0.002 A 
ATOM     30  C   UNL     1      14.931   4.835   0.551  0.00  0.00    +0.000 A 
ENDBRANCH   6  22
TORSDOF 3
ENDMDL
MODEL 9
REMARK VINA RESULT:      -6.1     13.971     17.207
REMARK  Name = 40587799
REMARK  4 active torsions:
REMARK  status: ('A' for Active; 'I' for Inactive)
REMARK    1  A    between atoms: S_1  and  C_25
REMARK    2  A    between atoms: S_1  and  C_31
REMARK    3  A    between atoms: N_6  and  C_22
REMARK    4  A    between atoms: C_14  and  C_19
REMARK                            x       y       z     vdW  Elec       q    Type
REMARK                         _______ _______ _______ _____ _____    ______ ____
ROOT
ATOM      2  O   UNL     1      20.562  -5.326  22.524  0.00  0.00    -0.268 OA
ATOM      3  O   UNL     1      19.645  -1.961  27.124  0.00  0.00    -0.252 OA
ATOM      4  N   UNL     1      18.690  -4.556  23.704  0.00  0.00    -0.311 N 
ATOM      5  N   UNL     1      18.309  -1.789  25.243  0.00  0.00    -0.284 N 
ATOM      6  N   UNL     1      20.457  -0.814  25.278  0.00  0.00    -0.269 N 
ATOM      7  C   UNL     1      17.436  -2.439  22.991  0.00  0.00    +0.027 C 
ATOM      8  C   UNL     1      16.709  -3.680  24.981  0.00  0.00    +0.054 C 
ATOM      9  C   UNL     1      16.235  -3.095  23.652  0.00  0.00    +0.018 C 
ATOM     10  C   UNL     1      18.467  -3.525  22.681  0.00  0.00    +0.130 C 
ATOM     11  C   UNL     1      18.028  -1.326  23.876  0.00  0.00    +0.114 C 
ATOM     12  C   UNL     1      17.218  -2.535  25.877  0.00  0.00    +0.119 C 
ATOM     13  C   UNL     1      17.806  -4.731  24.786  0.00  0.00    +0.034 A 
ATOM     14  C   UNL     1      17.966  -5.788  25.625  0.00  0.00    +0.002 A 
ATOM     15  C   UNL     1      19.770  -5.424  23.462  0.00  0.00    +0.252 A 
ATOM     16  C   UNL     1      19.497  -1.555  25.969  0.00  0.00    +0.306 C 
ATOM     17  C   UNL     1      19.071  -6.702  25.410  0.00  0.00    +0.015 A 
ATOM     18  C   UNL     1      19.940  -6.546  24.412  0.00  0.00    +0.071 A 
ATOM     32  H   UNL     1      20.135  -0.130  24.602  0.00  0.00    +0.156 HD
ENDROOT
BRANCH  14  19
ATOM     19  C   UNL     1      17.054  -6.022  26.767  0.00  0.00    -0.016 A 
ATOM     20  C   UNL     1      15.882  -6.755  26.583  0.00  0.00    +0.009 A 
ATOM     21  C   UNL     1      17.367  -5.509  28.025  0.00  0.00    +0.009 A 
ATOM     23  C   UNL     1      15.021  -6.975  27.659  0.00  0.00    +0.015 A 
ATOM     24  C   UNL     1      16.506  -5.730  29.101  0.00  0.00    +0.015 A 
ATOM     25  C   UNL     1      15.334  -6.462  28.918  0.00  0.00    +0.008 A 
BRANCH  25   1
ATOM      1  S   UNL     1      14.235  -6.744  30.292  0.00  0.00    -0.129 S 
ATOM     31  C   UNL     1      14.402  -5.193  31.222  0.00  0.00    +0.090 C 
ENDBRANCH  25   1
ENDBRANCH  14  19
BRANCH   6  22
ATOM     22  C   UNL     1      21.864  -0.894  25.419  0.00  0.00    +0.035 A 
ATOM     26  C   UNL     1      22.456  -2.083  25.844  0.00  0.00    +0.023 A 
ATOM     27  C   UNL     1      22.658   0.217  25.133  0.00  0.00    +0.023 A 
ATOM     28  C   UNL     1      23.842  -2.162  25.982  0.00  0.00    +0.002 A 
ATOM     29  C   UNL     1      24.044   0.138  25.273  0.00  0.00    +0.002 A 
ATOM     30  C   UNL     1      24.636  -1.051  25.697  0.00  0.00    +0.000 A 
ENDBRANCH   6  22
TORSDOF 3
ENDMDL
MODEL 10
REMARK VINA RESULT:      -6.0     29.008     31.979
REMARK  Name = 40587799
REMARK  4 active torsions:
REMARK  status: ('A' for Active; 'I' for Inactive)
REMARK    1  A    between atoms: S_1  and  C_25
REMARK    2  A    between atoms: S_1  and  C_31
REMARK    3  A    between atoms: N_6  and  C_22
REMARK    4  A    between atoms: C_14  and  C_19
REMARK                            x       y       z     vdW  Elec       q    Type
REMARK                         _______ _______ _______ _____ _____    ______ ____
ROOT
ATOM      2  O   UNL     1     -13.404 -10.359  12.450  0.00  0.00    -0.268 OA
ATOM      3  O   UNL     1     -10.630  -5.953  14.944  0.00  0.00    -0.252 OA
ATOM      4  N   UNL     1     -12.773  -9.781  14.631  0.00  0.00    -0.311 N 
ATOM      5  N   UNL     1     -12.513  -6.878  15.923  0.00  0.00    -0.284 N 
ATOM      6  N   UNL     1     -12.718  -5.386  14.107  0.00  0.00    -0.269 N 
ATOM      7  C   UNL     1     -14.368  -8.532  16.200  0.00  0.00    +0.027 C 
ATOM      8  C   UNL     1     -12.104  -9.106  16.959  0.00  0.00    +0.054 C 
ATOM      9  C   UNL     1     -13.587  -9.213  17.310  0.00  0.00    +0.018 C 
ATOM     10  C   UNL     1     -14.138  -9.311  14.904  0.00  0.00    +0.130 C 
ATOM     11  C   UNL     1     -13.967  -7.052  16.055  0.00  0.00    +0.114 C 
ATOM     12  C   UNL     1     -11.712  -7.617  16.903  0.00  0.00    +0.119 C 
ATOM     13  C   UNL     1     -11.779  -9.792  15.628  0.00  0.00    +0.034 A 
ATOM     14  C   UNL     1     -10.576 -10.372  15.377  0.00  0.00    +0.002 A 
ATOM     15  C   UNL     1     -12.566 -10.327  13.352  0.00  0.00    +0.252 A 
ATOM     16  C   UNL     1     -11.859  -6.062  14.973  0.00  0.00    +0.306 C 
ATOM     17  C   UNL     1     -10.324 -10.941  14.068  0.00  0.00    +0.015 A 
ATOM     18  C   UNL     1     -11.235 -10.921  13.095  0.00  0.00    +0.071 A 
ATOM     32  H   UNL     1     -13.634  -5.121  14.454  0.00  0.00    +0.156 HD
ENDROOT
BRANCH  14  19
ATOM     19  C   UNL     1      -9.506 -10.420  16.398  0.00  0.00    -0.016 A 
ATOM     20  C   UNL     1      -9.482 -11.454  17.334  0.00  0.00    +0.009 A 
ATOM     21  C   UNL     1      -8.522  -9.432  16.425  0.00  0.00    +0.009 A 
ATOM     23  C   UNL     1      -8.474 -11.500  18.297  0.00  0.00    +0.015 A 
ATOM     24  C   UNL     1      -7.514  -9.478  17.388  0.00  0.00    +0.015 A 
ATOM     25  C   UNL     1      -7.490 -10.511  18.324  0.00  0.00    +0.008 A 
BRANCH  25   1
ATOM      1  S   UNL     1      -6.201 -10.570  19.554  0.00  0.00    -0.129 S 
ATOM     31  C   UNL     1      -4.821 -11.276  18.609  0.00  0.00    +0.090 C 
ENDBRANCH  25   1
ENDBRANCH  14  19
BRANCH   6  22
ATOM     22  C   UNL     1     -12.457  -5.000  12.769  0.00  0.00    +0.035 A 
ATOM     26  C   UNL     1     -12.301  -3.651  12.450  0.00  0.00    +0.023 A 
ATOM     27  C   UNL     1     -12.355  -5.970  11.771  0.00  0.00    +0.023 A 
ATOM     28  C   UNL     1     -12.044  -3.271  11.133  0.00  0.00    +0.002 A 
ATOM     29  C   UNL     1     -12.099  -5.588  10.454  0.00  0.00    +0.002 A 
ATOM     30  C   UNL     1     -11.942  -4.240  10.134  0.00  0.00    +0.000 A 
ENDBRANCH   6  22
TORSDOF 3
ENDMDL
