MODEL 1
REMARK VINA RESULT:      -7.3      0.000      0.000
REMARK  Name = 26743498
REMARK  8 active torsions:
REMARK  status: ('A' for Active; 'I' for Inactive)
REMARK    1  A    between atoms: O_1  and  C_11
REMARK    2  A    between atoms: N_3  and  C_13
REMARK    3  A    between atoms: N_6  and  C_21
REMARK    4  A    between atoms: N_6  and  C_23
REMARK    5  A    between atoms: N_6  and  C_24
REMARK    6  A    between atoms: C_9  and  C_14
REMARK    7  A    between atoms: C_13  and  C_15
REMARK    8  A    between atoms: C_18  and  C_22
REMARK                            x       y       z     vdW  Elec       q    Type
REMARK                         _______ _______ _______ _____ _____    ______ ____
ROOT
ATOM      3  N   UNL     1      13.262   8.013  20.571  0.00  0.00    -0.285 NA
ATOM      9  C   UNL     1      11.975   8.688  20.305  0.00  0.00    +0.149 C 
ATOM     10  C   UNL     1      10.903   7.701  20.803  0.00  0.00    +0.061 C 
ATOM     11  C   UNL     1      11.681   6.484  21.289  0.00  0.00    +0.130 C 
ATOM     12  C   UNL     1      12.992   6.577  20.531  0.00  0.00    +0.116 C 
ENDROOT
BRANCH   9  14
ATOM      2  O   UNL     1      12.360  11.101  20.268  0.00  0.00    -0.336 OA
ATOM      4  N   UNL     1      11.395  10.358  22.147  0.00  0.00    -0.189 NA
ATOM      5  N   UNL     1      12.166  12.227  21.077  0.00  0.00    -0.054 NA
ATOM     14  C   UNL     1      11.879  10.044  20.972  0.00  0.00    +0.245 A 
ATOM     18  C   UNL     1      11.593  11.708  22.167  0.00  0.00    +0.222 A 
BRANCH  18  22
ATOM      7  N   UNL     1      11.199  13.845  23.109  0.00  0.00    -0.249 NA
ATOM      8  N   UNL     1      10.489  12.678  25.558  0.00  0.00    -0.260 NA
ATOM     22  C   UNL     1      11.204  12.509  23.291  0.00  0.00    +0.129 A 
ATOM     25  C   UNL     1      10.855  11.937  24.494  0.00  0.00    +0.142 A 
ATOM     26  C   UNL     1      10.833  14.587  24.173  0.00  0.00    +0.131 A 
ATOM     27  C   UNL     1      10.484  14.013  25.376  0.00  0.00    +0.130 A 
ENDBRANCH  18  22
ENDBRANCH   9  14
BRANCH  11   1
ATOM      1  O   UNL     1      10.984   5.291  20.988  0.00  0.00    -0.390 OA
ATOM     28  H   UNL     1      10.629   4.942  21.824  0.00  0.00    +0.210 HD
ENDBRANCH  11   1
BRANCH   3  13
ATOM     13  C   UNL     1      14.315   8.398  19.640  0.00  0.00    +0.120 C 
BRANCH  13  15
ATOM     15  C   UNL     1      15.668   7.915  20.093  0.00  0.00    -0.033 A 
ATOM     16  C   UNL     1      16.333   8.573  21.127  0.00  0.00    +0.007 A 
ATOM     17  C   UNL     1      16.254   6.809  19.478  0.00  0.00    +0.007 A 
ATOM     19  C   UNL     1      17.586   8.125  21.547  0.00  0.00    +0.023 A 
ATOM     20  C   UNL     1      17.506   6.361  19.898  0.00  0.00    +0.023 A 
ATOM     21  C   UNL     1      18.172   7.019  20.932  0.00  0.00    +0.029 A 
BRANCH  21   6
ATOM      6  N   UNL     1      19.439   6.566  21.357  0.00  0.00    -0.336 N 
ATOM     23  C   UNL     1      20.011   7.046  22.599  0.00  0.00    +0.129 C 
ATOM     24  C   UNL     1      20.182   5.611  20.559  0.00  0.00    +0.129 C 
ENDBRANCH  21   6
ENDBRANCH  13  15
ENDBRANCH   3  13
TORSDOF 6
ENDMDL
MODEL 2
REMARK VINA RESULT:      -7.2      2.174      7.602
REMARK  Name = 26743498
REMARK  8 active torsions:
REMARK  status: ('A' for Active; 'I' for Inactive)
REMARK    1  A    between atoms: O_1  and  C_11
REMARK    2  A    between atoms: N_3  and  C_13
REMARK    3  A    between atoms: N_6  and  C_21
REMARK    4  A    between atoms: N_6  and  C_23
REMARK    5  A    between atoms: N_6  and  C_24
REMARK    6  A    between atoms: C_9  and  C_14
REMARK    7  A    between atoms: C_13  and  C_15
REMARK    8  A    between atoms: C_18  and  C_22
REMARK                            x       y       z     vdW  Elec       q    Type
REMARK                         _______ _______ _______ _____ _____    ______ ____
ROOT
ATOM      3  N   UNL     1      12.601   8.598  18.719  0.00  0.00    -0.285 NA
ATOM      9  C   UNL     1      13.463   7.429  18.454  0.00  0.00    +0.149 C 
ATOM     10  C   UNL     1      13.995   7.648  17.026  0.00  0.00    +0.061 C 
ATOM     11  C   UNL     1      13.341   8.942  16.555  0.00  0.00    +0.130 C 
ATOM     12  C   UNL     1      12.100   9.046  17.421  0.00  0.00    +0.116 C 
ENDROOT
BRANCH   9  14
ATOM      2  O   UNL     1      14.237   6.674  20.646  0.00  0.00    -0.336 OA
ATOM      4  N   UNL     1      15.824   7.647  19.401  0.00  0.00    -0.189 NA
ATOM      5  N   UNL     1      15.405   6.650  21.418  0.00  0.00    -0.054 NA
ATOM     14  C   UNL     1      14.570   7.277  19.476  0.00  0.00    +0.245 A 
ATOM     18  C   UNL     1      16.296   7.241  20.616  0.00  0.00    +0.222 A 
BRANCH  18  22
ATOM      7  N   UNL     1      17.934   8.531  21.739  0.00  0.00    -0.249 NA
ATOM      8  N   UNL     1      19.940   6.731  20.965  0.00  0.00    -0.260 NA
ATOM     22  C   UNL     1      17.665   7.440  20.996  0.00  0.00    +0.129 A 
ATOM     25  C   UNL     1      18.651   6.556  20.616  0.00  0.00    +0.142 A 
ATOM     26  C   UNL     1      19.224   8.708  22.088  0.00  0.00    +0.131 A 
ATOM     27  C   UNL     1      20.209   7.823  21.708  0.00  0.00    +0.130 A 
ENDBRANCH  18  22
ENDBRANCH   9  14
BRANCH  11   1
ATOM      1  O   UNL     1      13.018   8.868  15.180  0.00  0.00    -0.390 OA
ATOM     28  H   UNL     1      13.395   8.041  14.836  0.00  0.00    +0.210 HD
ENDBRANCH  11   1
BRANCH   3  13
ATOM     13  C   UNL     1      11.519   8.313  19.654  0.00  0.00    +0.120 C 
BRANCH  13  15
ATOM     15  C   UNL     1      11.509   9.279  20.810  0.00  0.00    -0.033 A 
ATOM     16  C   UNL     1      10.787   8.978  21.964  0.00  0.00    +0.007 A 
ATOM     17  C   UNL     1      12.223  10.475  20.725  0.00  0.00    +0.007 A 
ATOM     19  C   UNL     1      10.778   9.873  23.034  0.00  0.00    +0.023 A 
ATOM     20  C   UNL     1      12.214  11.369  21.795  0.00  0.00    +0.023 A 
ATOM     21  C   UNL     1      11.492  11.068  22.950  0.00  0.00    +0.029 A 
BRANCH  21   6
ATOM      6  N   UNL     1      11.482  11.973  24.032  0.00  0.00    -0.336 N 
ATOM     23  C   UNL     1      12.560  11.970  25.000  0.00  0.00    +0.129 C 
ATOM     24  C   UNL     1      10.396  12.920  24.186  0.00  0.00    +0.129 C 
ENDBRANCH  21   6
ENDBRANCH  13  15
ENDBRANCH   3  13
TORSDOF 6
ENDMDL
MODEL 3
REMARK VINA RESULT:      -7.2      3.523      5.696
REMARK  Name = 26743498
REMARK  8 active torsions:
REMARK  status: ('A' for Active; 'I' for Inactive)
REMARK    1  A    between atoms: O_1  and  C_11
REMARK    2  A    between atoms: N_3  and  C_13
REMARK    3  A    between atoms: N_6  and  C_21
REMARK    4  A    between atoms: N_6  and  C_23
REMARK    5  A    between atoms: N_6  and  C_24
REMARK    6  A    between atoms: C_9  and  C_14
REMARK    7  A    between atoms: C_13  and  C_15
REMARK    8  A    between atoms: C_18  and  C_22
REMARK                            x       y       z     vdW  Elec       q    Type
REMARK                         _______ _______ _______ _____ _____    ______ ____
ROOT
ATOM      3  N   UNL     1      13.231   7.867  20.257  0.00  0.00    -0.285 NA
ATOM      9  C   UNL     1      12.301   7.801  19.112  0.00  0.00    +0.149 C 
ATOM     10  C   UNL     1      11.003   8.454  19.620  0.00  0.00    +0.061 C 
ATOM     11  C   UNL     1      11.284   8.814  21.074  0.00  0.00    +0.130 C 
ATOM     12  C   UNL     1      12.404   7.866  21.462  0.00  0.00    +0.116 C 
ENDROOT
BRANCH   9  14
ATOM      2  O   UNL     1      12.342   8.069  16.683  0.00  0.00    -0.336 OA
ATOM      4  N   UNL     1      13.762   9.412  17.775  0.00  0.00    -0.189 NA
ATOM      5  N   UNL     1      12.995   8.824  15.701  0.00  0.00    -0.054 NA
ATOM     14  C   UNL     1      12.852   8.477  17.874  0.00  0.00    +0.245 A 
ATOM     18  C   UNL     1      13.816   9.592  16.423  0.00  0.00    +0.222 A 
BRANCH  18  22
ATOM      7  N   UNL     1      14.969  10.390  14.515  0.00  0.00    -0.249 NA
ATOM      8  N   UNL     1      16.081  12.484  16.014  0.00  0.00    -0.260 NA
ATOM     22  C   UNL     1      14.701  10.550  15.826  0.00  0.00    +0.129 A 
ATOM     25  C   UNL     1      15.247  11.579  16.562  0.00  0.00    +0.142 A 
ATOM     26  C   UNL     1      15.804  11.296  13.966  0.00  0.00    +0.131 A 
ATOM     27  C   UNL     1      16.349  12.325  14.703  0.00  0.00    +0.130 A 
ENDBRANCH  18  22
ENDBRANCH   9  14
BRANCH  11   1
ATOM      1  O   UNL     1      10.132   8.620  21.871  0.00  0.00    -0.390 OA
ATOM     28  H   UNL     1       9.986   7.661  21.944  0.00  0.00    +0.210 HD
ENDBRANCH  11   1
BRANCH   3  13
ATOM     13  C   UNL     1      14.211   6.789  20.265  0.00  0.00    +0.120 C 
BRANCH  13  15
ATOM     15  C   UNL     1      15.599   7.295  20.559  0.00  0.00    -0.033 A 
ATOM     16  C   UNL     1      15.827   8.663  20.699  0.00  0.00    +0.007 A 
ATOM     17  C   UNL     1      16.656   6.394  20.692  0.00  0.00    +0.007 A 
ATOM     19  C   UNL     1      17.112   9.132  20.972  0.00  0.00    +0.023 A 
ATOM     20  C   UNL     1      17.940   6.862  20.965  0.00  0.00    +0.023 A 
ATOM     21  C   UNL     1      18.169   8.231  21.105  0.00  0.00    +0.029 A 
BRANCH  21   6
ATOM      6  N   UNL     1      19.469   8.705  21.381  0.00  0.00    -0.336 N 
ATOM     23  C   UNL     1      20.582   7.782  21.480  0.00  0.00    +0.129 C 
ATOM     24  C   UNL     1      19.708  10.123  21.562  0.00  0.00    +0.129 C 
ENDBRANCH  21   6
ENDBRANCH  13  15
ENDBRANCH   3  13
TORSDOF 6
ENDMDL
MODEL 4
REMARK VINA RESULT:      -6.6      1.643      2.025
REMARK  Name = 26743498
REMARK  8 active torsions:
REMARK  status: ('A' for Active; 'I' for Inactive)
REMARK    1  A    between atoms: O_1  and  C_11
REMARK    2  A    between atoms: N_3  and  C_13
REMARK    3  A    between atoms: N_6  and  C_21
REMARK    4  A    between atoms: N_6  and  C_23
REMARK    5  A    between atoms: N_6  and  C_24
REMARK    6  A    between atoms: C_9  and  C_14
REMARK    7  A    between atoms: C_13  and  C_15
REMARK    8  A    between atoms: C_18  and  C_22
REMARK                            x       y       z     vdW  Elec       q    Type
REMARK                         _______ _______ _______ _____ _____    ______ ____
ROOT
ATOM      3  N   UNL     1      13.341   7.835  20.691  0.00  0.00    -0.285 NA
ATOM      9  C   UNL     1      12.110   8.651  20.673  0.00  0.00    +0.149 C 
ATOM     10  C   UNL     1      10.995   7.690  21.128  0.00  0.00    +0.061 C 
ATOM     11  C   UNL     1      11.689   6.350  21.334  0.00  0.00    +0.130 C 
ATOM     12  C   UNL     1      12.926   6.453  20.462  0.00  0.00    +0.116 C 
ENDROOT
BRANCH   9  14
ATOM      2  O   UNL     1      11.379  10.912  21.244  0.00  0.00    -0.336 OA
ATOM      4  N   UNL     1      13.001  10.114  22.566  0.00  0.00    -0.189 NA
ATOM      5  N   UNL     1      11.656  11.923  22.173  0.00  0.00    -0.054 NA
ATOM     14  C   UNL     1      12.214   9.884  21.546  0.00  0.00    +0.245 A 
ATOM     18  C   UNL     1      12.623  11.377  22.917  0.00  0.00    +0.222 A 
BRANCH  18  22
ATOM      7  N   UNL     1      14.445  12.605  23.800  0.00  0.00    -0.249 NA
ATOM      8  N   UNL     1      13.156  12.809  26.283  0.00  0.00    -0.260 NA
ATOM     22  C   UNL     1      13.230  12.066  24.019  0.00  0.00    +0.129 A 
ATOM     25  C   UNL     1      12.597  12.166  25.239  0.00  0.00    +0.142 A 
ATOM     26  C   UNL     1      15.006  13.248  24.844  0.00  0.00    +0.131 A 
ATOM     27  C   UNL     1      14.372  13.348  26.064  0.00  0.00    +0.130 A 
ENDBRANCH  18  22
ENDBRANCH   9  14
BRANCH  11   1
ATOM      1  O   UNL     1      10.850   5.284  20.932  0.00  0.00    -0.390 OA
ATOM     28  H   UNL     1      10.935   4.580  21.597  0.00  0.00    +0.210 HD
ENDBRANCH  11   1
BRANCH   3  13
ATOM     13  C   UNL     1      14.336   8.276  19.722  0.00  0.00    +0.120 C 
BRANCH  13  15
ATOM     15  C   UNL     1      15.738   7.965  20.177  0.00  0.00    -0.033 A 
ATOM     16  C   UNL     1      16.409   6.857  19.661  0.00  0.00    +0.007 A 
ATOM     17  C   UNL     1      16.364   8.786  21.115  0.00  0.00    +0.007 A 
ATOM     19  C   UNL     1      17.707   6.570  20.082  0.00  0.00    +0.023 A 
ATOM     20  C   UNL     1      17.662   8.499  21.536  0.00  0.00    +0.023 A 
ATOM     21  C   UNL     1      18.334   7.391  21.020  0.00  0.00    +0.029 A 
BRANCH  21   6
ATOM      6  N   UNL     1      19.646   7.099  21.445  0.00  0.00    -0.336 N 
ATOM     23  C   UNL     1      20.471   6.170  20.699  0.00  0.00    +0.129 C 
ATOM     24  C   UNL     1      20.190   7.730  22.632  0.00  0.00    +0.129 C 
ENDBRANCH  21   6
ENDBRANCH  13  15
ENDBRANCH   3  13
TORSDOF 6
ENDMDL
MODEL 5
REMARK VINA RESULT:      -6.6      3.508      7.817
REMARK  Name = 26743498
REMARK  8 active torsions:
REMARK  status: ('A' for Active; 'I' for Inactive)
REMARK    1  A    between atoms: O_1  and  C_11
REMARK    2  A    between atoms: N_3  and  C_13
REMARK    3  A    between atoms: N_6  and  C_21
REMARK    4  A    between atoms: N_6  and  C_23
REMARK    5  A    between atoms: N_6  and  C_24
REMARK    6  A    between atoms: C_9  and  C_14
REMARK    7  A    between atoms: C_13  and  C_15
REMARK    8  A    between atoms: C_18  and  C_22
REMARK                            x       y       z     vdW  Elec       q    Type
REMARK                         _______ _______ _______ _____ _____    ______ ____
ROOT
ATOM      3  N   UNL     1      12.776   8.811  20.593  0.00  0.00    -0.285 NA
ATOM      9  C   UNL     1      13.522   7.963  19.643  0.00  0.00    +0.149 C 
ATOM     10  C   UNL     1      12.855   6.578  19.742  0.00  0.00    +0.061 C 
ATOM     11  C   UNL     1      11.776   6.736  20.807  0.00  0.00    +0.130 C 
ATOM     12  C   UNL     1      12.258   7.917  21.627  0.00  0.00    +0.116 C 
ENDROOT
BRANCH   9  14
ATOM      2  O   UNL     1      12.827   7.802  17.305  0.00  0.00    -0.336 OA
ATOM      4  N   UNL     1      14.075   9.604  17.766  0.00  0.00    -0.189 NA
ATOM      5  N   UNL     1      12.961   8.501  16.099  0.00  0.00    -0.054 NA
ATOM     14  C   UNL     1      13.512   8.518  18.234  0.00  0.00    +0.245 A 
ATOM     18  C   UNL     1      13.709   9.551  16.452  0.00  0.00    +0.222 A 
BRANCH  18  22
ATOM      7  N   UNL     1      13.168  10.984  14.646  0.00  0.00    -0.249 NA
ATOM      8  N   UNL     1      15.771  12.030  14.647  0.00  0.00    -0.260 NA
ATOM     22  C   UNL     1      14.106  10.565  15.519  0.00  0.00    +0.129 A 
ATOM     25  C   UNL     1      15.384  11.079  15.519  0.00  0.00    +0.142 A 
ATOM     26  C   UNL     1      13.555  11.936  13.773  0.00  0.00    +0.131 A 
ATOM     27  C   UNL     1      14.833  12.450  13.774  0.00  0.00    +0.130 A 
ENDBRANCH  18  22
ENDBRANCH   9  14
BRANCH  11   1
ATOM      1  O   UNL     1      11.668   5.562  21.588  0.00  0.00    -0.390 OA
ATOM     28  H   UNL     1      12.384   5.584  22.247  0.00  0.00    +0.210 HD
ENDBRANCH  11   1
BRANCH   3  13
ATOM     13  C   UNL     1      13.580   9.889  21.154  0.00  0.00    +0.120 C 
BRANCH  13  15
ATOM     15  C   UNL     1      12.738  10.876  21.920  0.00  0.00    -0.033 A 
ATOM     16  C   UNL     1      11.781  11.641  21.254  0.00  0.00    +0.007 A 
ATOM     17  C   UNL     1      12.916  11.024  23.296  0.00  0.00    +0.007 A 
ATOM     19  C   UNL     1      11.001  12.554  21.964  0.00  0.00    +0.023 A 
ATOM     20  C   UNL     1      12.137  11.937  24.005  0.00  0.00    +0.023 A 
ATOM     21  C   UNL     1      11.179  12.702  23.339  0.00  0.00    +0.029 A 
BRANCH  21   6
ATOM      6  N   UNL     1      10.391  13.626  24.056  0.00  0.00    -0.336 N 
ATOM     23  C   UNL     1      10.543  13.764  25.491  0.00  0.00    +0.129 C 
ATOM     24  C   UNL     1       9.422  14.454  23.365  0.00  0.00    +0.129 C 
ENDBRANCH  21   6
ENDBRANCH  13  15
ENDBRANCH   3  13
TORSDOF 6
ENDMDL
MODEL 6
REMARK VINA RESULT:      -6.4     26.243     28.999
REMARK  Name = 26743498
REMARK  8 active torsions:
REMARK  status: ('A' for Active; 'I' for Inactive)
REMARK    1  A    between atoms: O_1  and  C_11
REMARK    2  A    between atoms: N_3  and  C_13
REMARK    3  A    between atoms: N_6  and  C_21
REMARK    4  A    between atoms: N_6  and  C_23
REMARK    5  A    between atoms: N_6  and  C_24
REMARK    6  A    between atoms: C_9  and  C_14
REMARK    7  A    between atoms: C_13  and  C_15
REMARK    8  A    between atoms: C_18  and  C_22
REMARK                            x       y       z     vdW  Elec       q    Type
REMARK                         _______ _______ _______ _____ _____    ______ ____
ROOT
ATOM      3  N   UNL     1      -3.310 -11.012  14.438  0.00  0.00    -0.285 NA
ATOM      9  C   UNL     1      -3.573 -11.358  15.849  0.00  0.00    +0.149 C 
ATOM     10  C   UNL     1      -2.375 -10.782  16.626  0.00  0.00    +0.061 C 
ATOM     11  C   UNL     1      -1.470 -10.173  15.562  0.00  0.00    +0.130 C 
ATOM     12  C   UNL     1      -1.858 -10.918  14.299  0.00  0.00    +0.116 C 
ENDROOT
BRANCH   9  14
ATOM      2  O   UNL     1      -5.329  -9.659  15.791  0.00  0.00    -0.336 OA
ATOM      4  N   UNL     1      -5.717 -11.326  17.236  0.00  0.00    -0.189 NA
ATOM      5  N   UNL     1      -6.559  -9.371  16.396  0.00  0.00    -0.054 NA
ATOM     14  C   UNL     1      -4.902 -10.825  16.342  0.00  0.00    +0.245 A 
ATOM     18  C   UNL     1      -6.719 -10.400  17.235  0.00  0.00    +0.222 A 
BRANCH  18  22
ATOM      7  N   UNL     1      -8.975  -9.861  17.712  0.00  0.00    -0.249 NA
ATOM      8  N   UNL     1      -8.904 -11.442  20.028  0.00  0.00    -0.260 NA
ATOM     22  C   UNL     1      -7.867 -10.533  18.083  0.00  0.00    +0.129 A 
ATOM     25  C   UNL     1      -7.833 -11.309  19.221  0.00  0.00    +0.142 A 
ATOM     26  C   UNL     1     -10.047  -9.992  18.519  0.00  0.00    +0.131 A 
ATOM     27  C   UNL     1     -10.012 -10.770  19.656  0.00  0.00    +0.130 A 
ENDBRANCH  18  22
ENDBRANCH   9  14
BRANCH  11   1
ATOM      1  O   UNL     1      -0.108 -10.367  15.889  0.00  0.00    -0.390 OA
ATOM     28  H   UNL     1       0.335  -9.505  15.816  0.00  0.00    +0.210 HD
ENDBRANCH  11   1
BRANCH   3  13
ATOM     13  C   UNL     1      -3.890 -11.960  13.496  0.00  0.00    +0.120 C 
BRANCH  13  15
ATOM     15  C   UNL     1      -4.418 -11.275  12.263  0.00  0.00    -0.033 A 
ATOM     16  C   UNL     1      -3.833 -11.524  11.022  0.00  0.00    +0.007 A 
ATOM     17  C   UNL     1      -5.492 -10.390  12.364  0.00  0.00    +0.007 A 
ATOM     19  C   UNL     1      -4.322 -10.889   9.881  0.00  0.00    +0.023 A 
ATOM     20  C   UNL     1      -5.981  -9.755  11.223  0.00  0.00    +0.023 A 
ATOM     21  C   UNL     1      -5.396 -10.004   9.981  0.00  0.00    +0.029 A 
BRANCH  21   6
ATOM      6  N   UNL     1      -5.890  -9.362   8.826  0.00  0.00    -0.336 N 
ATOM     23  C   UNL     1      -5.490  -9.812   7.508  0.00  0.00    +0.129 C 
ATOM     24  C   UNL     1      -6.809  -8.248   8.943  0.00  0.00    +0.129 C 
ENDBRANCH  21   6
ENDBRANCH  13  15
ENDBRANCH   3  13
TORSDOF 6
ENDMDL
MODEL 7
REMARK VINA RESULT:      -6.2     27.132     30.012
REMARK  Name = 26743498
REMARK  8 active torsions:
REMARK  status: ('A' for Active; 'I' for Inactive)
REMARK    1  A    between atoms: O_1  and  C_11
REMARK    2  A    between atoms: N_3  and  C_13
REMARK    3  A    between atoms: N_6  and  C_21
REMARK    4  A    between atoms: N_6  and  C_23
REMARK    5  A    between atoms: N_6  and  C_24
REMARK    6  A    between atoms: C_9  and  C_14
REMARK    7  A    between atoms: C_13  and  C_15
REMARK    8  A    between atoms: C_18  and  C_22
REMARK                            x       y       z     vdW  Elec       q    Type
REMARK                         _______ _______ _______ _____ _____    ______ ____
ROOT
ATOM      3  N   UNL     1      -7.322 -10.931  17.382  0.00  0.00    -0.285 NA
ATOM      9  C   UNL     1      -5.975 -11.383  17.784  0.00  0.00    +0.149 C 
ATOM     10  C   UNL     1      -6.138 -12.882  18.092  0.00  0.00    +0.061 C 
ATOM     11  C   UNL     1      -7.619 -13.170  17.879  0.00  0.00    +0.130 C 
ATOM     12  C   UNL     1      -8.272 -11.812  18.057  0.00  0.00    +0.116 C 
ENDROOT
BRANCH   9  14
ATOM      2  O   UNL     1      -3.649 -10.974  17.155  0.00  0.00    -0.336 OA
ATOM      4  N   UNL     1      -5.073 -10.990  15.427  0.00  0.00    -0.189 NA
ATOM      5  N   UNL     1      -2.876 -10.734  16.012  0.00  0.00    -0.054 NA
ATOM     14  C   UNL     1      -4.929 -11.113  16.723  0.00  0.00    +0.245 A 
ATOM     18  C   UNL     1      -3.787 -10.759  15.034  0.00  0.00    +0.222 A 
BRANCH  18  22
ATOM      7  N   UNL     1      -4.469 -10.351  12.803  0.00  0.00    -0.249 NA
ATOM      8  N   UNL     1      -1.802 -10.391  11.939  0.00  0.00    -0.260 NA
ATOM     22  C   UNL     1      -3.446 -10.558  13.656  0.00  0.00    +0.129 A 
ATOM     25  C   UNL     1      -2.136 -10.577  13.231  0.00  0.00    +0.142 A 
ATOM     26  C   UNL     1      -4.135 -10.166  11.510  0.00  0.00    +0.131 A 
ATOM     27  C   UNL     1      -2.825 -10.184  11.086  0.00  0.00    +0.130 A 
ENDBRANCH  18  22
ENDBRANCH   9  14
BRANCH  11   1
ATOM      1  O   UNL     1      -8.090 -14.107  18.829  0.00  0.00    -0.390 OA
ATOM     28  H   UNL     1      -8.599 -13.616  19.496  0.00  0.00    +0.210 HD
ENDBRANCH  11   1
BRANCH   3  13
ATOM     13  C   UNL     1      -7.570  -9.526  17.683  0.00  0.00    +0.120 C 
BRANCH  13  15
ATOM     15  C   UNL     1      -8.669  -8.955  16.826  0.00  0.00    -0.033 A 
ATOM     16  C   UNL     1      -9.556  -8.021  17.360  0.00  0.00    +0.007 A 
ATOM     17  C   UNL     1      -8.798  -9.361  15.497  0.00  0.00    +0.007 A 
ATOM     19  C   UNL     1     -10.573  -7.492  16.566  0.00  0.00    +0.023 A 
ATOM     20  C   UNL     1      -9.816  -8.832  14.704  0.00  0.00    +0.023 A 
ATOM     21  C   UNL     1     -10.703  -7.898  15.238  0.00  0.00    +0.029 A 
BRANCH  21   6
ATOM      6  N   UNL     1     -11.733  -7.363  14.436  0.00  0.00    -0.336 N 
ATOM     23  C   UNL     1     -12.148  -8.041  13.224  0.00  0.00    +0.129 C 
ATOM     24  C   UNL     1     -12.393  -6.130  14.817  0.00  0.00    +0.129 C 
ENDBRANCH  21   6
ENDBRANCH  13  15
ENDBRANCH   3  13
TORSDOF 6
ENDMDL
MODEL 8
REMARK VINA RESULT:      -6.1     15.349     17.434
REMARK  Name = 26743498
REMARK  8 active torsions:
REMARK  status: ('A' for Active; 'I' for Inactive)
REMARK    1  A    between atoms: O_1  and  C_11
REMARK    2  A    between atoms: N_3  and  C_13
REMARK    3  A    between atoms: N_6  and  C_21
REMARK    4  A    between atoms: N_6  and  C_23
REMARK    5  A    between atoms: N_6  and  C_24
REMARK    6  A    between atoms: C_9  and  C_14
REMARK    7  A    between atoms: C_13  and  C_15
REMARK    8  A    between atoms: C_18  and  C_22
REMARK                            x       y       z     vdW  Elec       q    Type
REMARK                         _______ _______ _______ _____ _____    ______ ____
ROOT
ATOM      3  N   UNL     1      10.450   5.677   6.068  0.00  0.00    -0.285 NA
ATOM      9  C   UNL     1      10.244   6.801   7.004  0.00  0.00    +0.149 C 
ATOM     10  C   UNL     1      10.063   6.137   8.382  0.00  0.00    +0.061 C 
ATOM     11  C   UNL     1      10.137   4.640   8.112  0.00  0.00    +0.130 C 
ATOM     12  C   UNL     1       9.761   4.525   6.647  0.00  0.00    +0.116 C 
ENDROOT
BRANCH   9  14
ATOM      2  O   UNL     1      11.105   9.049   7.426  0.00  0.00    -0.336 OA
ATOM      4  N   UNL     1      12.621   7.633   6.582  0.00  0.00    -0.189 NA
ATOM      5  N   UNL     1      12.294   9.778   7.306  0.00  0.00    -0.054 NA
ATOM     14  C   UNL     1      11.384   7.797   6.978  0.00  0.00    +0.245 A 
ATOM     18  C   UNL     1      13.141   8.875   6.802  0.00  0.00    +0.222 A 
BRANCH  18  22
ATOM      7  N   UNL     1      14.869  10.478   6.576  0.00  0.00    -0.249 NA
ATOM      8  N   UNL     1      16.701   8.466   5.897  0.00  0.00    -0.260 NA
ATOM     22  C   UNL     1      14.511   9.181   6.509  0.00  0.00    +0.129 A 
ATOM     25  C   UNL     1      15.411   8.192   6.176  0.00  0.00    +0.142 A 
ATOM     26  C   UNL     1      16.159  10.752   6.296  0.00  0.00    +0.131 A 
ATOM     27  C   UNL     1      17.059   9.763   5.964  0.00  0.00    +0.130 A 
ENDBRANCH  18  22
ENDBRANCH   9  14
BRANCH  11   1
ATOM      1  O   UNL     1       9.235   3.935   8.943  0.00  0.00    -0.390 OA
ATOM     28  H   UNL     1       8.354   4.328   8.816  0.00  0.00    +0.210 HD
ENDBRANCH  11   1
BRANCH   3  13
ATOM     13  C   UNL     1       9.992   5.966   4.715  0.00  0.00    +0.120 C 
BRANCH  13  15
ATOM     15  C   UNL     1      10.968   5.477   3.677  0.00  0.00    -0.033 A 
ATOM     16  C   UNL     1      10.793   4.225   3.089  0.00  0.00    +0.007 A 
ATOM     17  C   UNL     1      12.048   6.278   3.304  0.00  0.00    +0.007 A 
ATOM     19  C   UNL     1      11.697   3.773   2.128  0.00  0.00    +0.023 A 
ATOM     20  C   UNL     1      12.952   5.827   2.343  0.00  0.00    +0.023 A 
ATOM     21  C   UNL     1      12.777   4.574   1.755  0.00  0.00    +0.029 A 
BRANCH  21   6
ATOM      6  N   UNL     1      13.691   4.116   0.783  0.00  0.00    -0.336 N 
ATOM     23  C   UNL     1      13.236   3.306  -0.328  0.00  0.00    +0.129 C 
ATOM     24  C   UNL     1      15.096   4.457   0.881  0.00  0.00    +0.129 C 
ENDBRANCH  21   6
ENDBRANCH  13  15
ENDBRANCH   3  13
TORSDOF 6
ENDMDL
MODEL 9
REMARK VINA RESULT:      -6.0      5.001      7.565
REMARK  Name = 26743498
REMARK  8 active torsions:
REMARK  status: ('A' for Active; 'I' for Inactive)
REMARK    1  A    between atoms: O_1  and  C_11
REMARK    2  A    between atoms: N_3  and  C_13
REMARK    3  A    between atoms: N_6  and  C_21
REMARK    4  A    between atoms: N_6  and  C_23
REMARK    5  A    between atoms: N_6  and  C_24
REMARK    6  A    between atoms: C_9  and  C_14
REMARK    7  A    between atoms: C_13  and  C_15
REMARK    8  A    between atoms: C_18  and  C_22
REMARK                            x       y       z     vdW  Elec       q    Type
REMARK                         _______ _______ _______ _____ _____    ______ ____
ROOT
ATOM      3  N   UNL     1      20.030   7.665  21.788  0.00  0.00    -0.285 NA
ATOM      9  C   UNL     1      18.742   8.386  21.839  0.00  0.00    +0.149 C 
ATOM     10  C   UNL     1      19.096   9.847  21.505  0.00  0.00    +0.061 C 
ATOM     11  C   UNL     1      20.609   9.857  21.326  0.00  0.00    +0.130 C 
ATOM     12  C   UNL     1      21.066   8.644  22.114  0.00  0.00    +0.116 C 
ENDROOT
BRANCH   9  14
ATOM      2  O   UNL     1      18.097   6.729  20.163  0.00  0.00    -0.336 OA
ATOM      4  N   UNL     1      16.476   8.183  20.682  0.00  0.00    -0.189 NA
ATOM      5  N   UNL     1      16.991   6.374  19.381  0.00  0.00    -0.054 NA
ATOM     14  C   UNL     1      17.709   7.803  20.899  0.00  0.00    +0.245 A 
ATOM     18  C   UNL     1      16.076   7.277  19.743  0.00  0.00    +0.222 A 
BRANCH  18  22
ATOM      7  N   UNL     1      14.619   7.853  17.968  0.00  0.00    -0.249 NA
ATOM      8  N   UNL     1      12.430   6.801  19.370  0.00  0.00    -0.260 NA
ATOM     22  C   UNL     1      14.753   7.301  19.190  0.00  0.00    +0.129 A 
ATOM     25  C   UNL     1      13.677   6.784  19.878  0.00  0.00    +0.142 A 
ATOM     26  C   UNL     1      13.370   7.871  17.459  0.00  0.00    +0.131 A 
ATOM     27  C   UNL     1      12.295   7.353  18.148  0.00  0.00    +0.130 A 
ENDBRANCH  18  22
ENDBRANCH   9  14
BRANCH  11   1
ATOM      1  O   UNL     1      21.166  11.054  21.834  0.00  0.00    -0.390 OA
ATOM     28  H   UNL     1      21.988  10.818  22.298  0.00  0.00    +0.210 HD
ENDBRANCH  11   1
BRANCH   3  13
ATOM     13  C   UNL     1      20.075   6.506  22.670  0.00  0.00    +0.120 C 
BRANCH  13  15
ATOM     15  C   UNL     1      21.100   5.499  22.220  0.00  0.00    -0.033 A 
ATOM     16  C   UNL     1      22.146   5.140  23.069  0.00  0.00    +0.007 A 
ATOM     17  C   UNL     1      21.003   4.924  20.952  0.00  0.00    +0.007 A 
ATOM     19  C   UNL     1      23.094   4.207  22.653  0.00  0.00    +0.023 A 
ATOM     20  C   UNL     1      21.952   3.991  20.535  0.00  0.00    +0.023 A 
ATOM     21  C   UNL     1      22.997   3.633  21.385  0.00  0.00    +0.029 A 
BRANCH  21   6
ATOM      6  N   UNL     1      23.958   2.689  20.964  0.00  0.00    -0.336 N 
ATOM     23  C   UNL     1      24.910   3.025  19.924  0.00  0.00    +0.129 C 
ATOM     24  C   UNL     1      24.009   1.374  21.571  0.00  0.00    +0.129 C 
ENDBRANCH  21   6
ENDBRANCH  13  15
ENDBRANCH   3  13
TORSDOF 6
ENDMDL
MODEL 10
REMARK VINA RESULT:      -6.0     27.327     29.254
REMARK  Name = 26743498
REMARK  8 active torsions:
REMARK  status: ('A' for Active; 'I' for Inactive)
REMARK    1  A    between atoms: O_1  and  C_11
REMARK    2  A    between atoms: N_3  and  C_13
REMARK    3  A    between atoms: N_6  and  C_21
REMARK    4  A    between atoms: N_6  and  C_23
REMARK    5  A    between atoms: N_6  and  C_24
REMARK    6  A    between atoms: C_9  and  C_14
REMARK    7  A    between atoms: C_13  and  C_15
REMARK    8  A    between atoms: C_18  and  C_22
REMARK                            x       y       z     vdW  Elec       q    Type
REMARK                         _______ _______ _______ _____ _____    ______ ____
ROOT
ATOM      3  N   UNL     1      -3.296 -11.671  14.510  0.00  0.00    -0.285 NA
ATOM      9  C   UNL     1      -2.264 -11.546  13.461  0.00  0.00    +0.149 C 
ATOM     10  C   UNL     1      -1.868 -12.995  13.124  0.00  0.00    +0.061 C 
ATOM     11  C   UNL     1      -2.696 -13.860  14.066  0.00  0.00    +0.130 C 
ATOM     12  C   UNL     1      -3.021 -12.923  15.213  0.00  0.00    +0.116 C 
ENDROOT
BRANCH   9  14
ATOM      2  O   UNL     1      -1.839  -9.990  11.624  0.00  0.00    -0.336 OA
ATOM      4  N   UNL     1      -3.943 -10.750  11.710  0.00  0.00    -0.189 NA
ATOM      5  N   UNL     1      -2.513  -9.388  10.555  0.00  0.00    -0.054 NA
ATOM     14  C   UNL     1      -2.752 -10.776  12.252  0.00  0.00    +0.245 A 
ATOM     18  C   UNL     1      -3.748  -9.885  10.672  0.00  0.00    +0.222 A 
BRANCH  18  22
ATOM      7  N   UNL     1      -5.830  -8.826  10.282  0.00  0.00    -0.249 NA
ATOM      8  N   UNL     1      -5.767  -9.609   7.589  0.00  0.00    -0.260 NA
ATOM     22  C   UNL     1      -4.808  -9.541   9.770  0.00  0.00    +0.129 A 
ATOM     25  C   UNL     1      -4.778  -9.925   8.447  0.00  0.00    +0.142 A 
ATOM     26  C   UNL     1      -6.820  -8.510   9.423  0.00  0.00    +0.131 A 
ATOM     27  C   UNL     1      -6.789  -8.895   8.101  0.00  0.00    +0.130 A 
ENDBRANCH  18  22
ENDBRANCH   9  14
BRANCH  11   1
ATOM      1  O   UNL     1      -1.952 -14.983  14.500  0.00  0.00    -0.390 OA
ATOM     28  H   UNL     1      -1.018 -14.810  14.295  0.00  0.00    +0.210 HD
ENDBRANCH  11   1
BRANCH   3  13
ATOM     13  C   UNL     1      -3.333 -10.531  15.417  0.00  0.00    +0.120 C 
BRANCH  13  15
ATOM     15  C   UNL     1      -4.678 -10.386  16.079  0.00  0.00    -0.033 A 
ATOM     16  C   UNL     1      -4.815 -10.638  17.444  0.00  0.00    +0.007 A 
ATOM     17  C   UNL     1      -5.788  -9.999  15.327  0.00  0.00    +0.007 A 
ATOM     19  C   UNL     1      -6.060 -10.504  18.057  0.00  0.00    +0.023 A 
ATOM     20  C   UNL     1      -7.033  -9.864  15.940  0.00  0.00    +0.023 A 
ATOM     21  C   UNL     1      -7.169 -10.117  17.304  0.00  0.00    +0.029 A 
BRANCH  21   6
ATOM      6  N   UNL     1      -8.429  -9.981  17.925  0.00  0.00    -0.336 N 
ATOM     23  C   UNL     1      -8.780 -10.808  19.063  0.00  0.00    +0.129 C 
ATOM     24  C   UNL     1      -9.386  -9.008  17.437  0.00  0.00    +0.129 C 
ENDBRANCH  21   6
ENDBRANCH  13  15
ENDBRANCH   3  13
TORSDOF 6
ENDMDL
