MODEL 1
REMARK VINA RESULT:      -6.7      0.000      0.000
REMARK  Name = 25338966
REMARK  8 active torsions:
REMARK  status: ('A' for Active; 'I' for Inactive)
REMARK    1  A    between atoms: O_1  and  C_14
REMARK    2  A    between atoms: O_1  and  C_21
REMARK    3  A    between atoms: O_4  and  C_18
REMARK    4  A    between atoms: O_4  and  C_25
REMARK    5  A    between atoms: N_6  and  C_13
REMARK    6  A    between atoms: C_8  and  C_14
REMARK    7  A    between atoms: C_13  and  C_17
REMARK    8  A    between atoms: C_15  and  C_18
REMARK                            x       y       z     vdW  Elec       q    Type
REMARK                         _______ _______ _______ _____ _____    ______ ____
ROOT
ATOM      3  O   UNL     1      10.922   8.050  22.711  0.00  0.00    -0.272 OA
ATOM      5  N   UNL     1      12.200   8.656  20.856  0.00  0.00    -0.279 N 
ATOM      6  N   UNL     1      13.538   9.831  17.557  0.00  0.00    -0.328 N 
ATOM      7  N   UNL     1      13.665   7.657  17.065  0.00  0.00    -0.240 NA
ATOM      8  C   UNL     1      12.787   7.294  20.730  0.00  0.00    +0.191 C 
ATOM      9  C   UNL     1      12.852   6.755  19.286  0.00  0.00    +0.091 C 
ATOM     10  C   UNL     1      13.126   9.161  18.671  0.00  0.00    +0.059 A 
ATOM     11  C   UNL     1      12.693   9.737  19.957  0.00  0.00    +0.164 C 
ATOM     12  C   UNL     1      13.217   7.832  18.345  0.00  0.00    +0.066 A 
ATOM     15  C   UNL     1      11.352   8.915  21.943  0.00  0.00    +0.254 C 
ATOM     16  C   UNL     1      13.852   8.882  16.618  0.00  0.00    +0.200 A 
ENDROOT
BRANCH   8  14
ATOM      2  O   UNL     1      14.430   8.113  22.294  0.00  0.00    -0.249 OA
ATOM     14  C   UNL     1      14.147   7.368  21.365  0.00  0.00    +0.328 C 
BRANCH  14   1
ATOM      1  O   UNL     1      14.986   6.488  20.748  0.00  0.00    -0.467 OA
ATOM     21  C   UNL     1      16.383   6.765  20.896  0.00  0.00    +0.280 C 
ENDBRANCH  14   1
ENDBRANCH   8  14
BRANCH   6  13
ATOM     13  C   UNL     1      13.636  11.260  17.384  0.00  0.00    +0.158 C 
BRANCH  13  17
ATOM     17  C   UNL     1      15.043  11.785  17.526  0.00  0.00    -0.028 A 
ATOM     19  C   UNL     1      15.606  11.937  18.794  0.00  0.00    +0.005 A 
ATOM     20  C   UNL     1      15.782  12.116  16.390  0.00  0.00    +0.005 A 
ATOM     22  C   UNL     1      16.907  12.421  18.925  0.00  0.00    +0.000 A 
ATOM     23  C   UNL     1      17.083  12.601  16.522  0.00  0.00    +0.000 A 
ATOM     24  C   UNL     1      17.645  12.754  17.790  0.00  0.00    +0.000 A 
ENDBRANCH  13  17
ENDBRANCH   6  13
BRANCH  15  18
ATOM     18  C   UNL     1      10.954  10.355  22.156  0.00  0.00    +0.324 C 
BRANCH  18   4
ATOM      4  O   UNL     1      11.381  10.702  23.451  0.00  0.00    -0.483 OA
BRANCH   4  25
ATOM     25  C   UNL     1      11.040  11.953  23.914  0.00  0.00    +0.121 A 
ATOM     26  C   UNL     1      10.943  12.186  25.286  0.00  0.00    +0.045 A 
ATOM     27  C   UNL     1      10.794  12.988  23.012  0.00  0.00    +0.045 A 
ATOM     28  C   UNL     1      10.599  13.453  25.756  0.00  0.00    +0.004 A 
ATOM     29  C   UNL     1      10.449  14.255  23.482  0.00  0.00    +0.004 A 
ATOM     30  C   UNL     1      10.352  14.488  24.853  0.00  0.00    +0.000 A 
ENDBRANCH   4  25
ENDBRANCH  18   4
ENDBRANCH  15  18
TORSDOF 7
ENDMDL
MODEL 2
REMARK VINA RESULT:      -6.5      2.821      6.439
REMARK  Name = 25338966
REMARK  8 active torsions:
REMARK  status: ('A' for Active; 'I' for Inactive)
REMARK    1  A    between atoms: O_1  and  C_14
REMARK    2  A    between atoms: O_1  and  C_21
REMARK    3  A    between atoms: O_4  and  C_18
REMARK    4  A    between atoms: O_4  and  C_25
REMARK    5  A    between atoms: N_6  and  C_13
REMARK    6  A    between atoms: C_8  and  C_14
REMARK    7  A    between atoms: C_13  and  C_17
REMARK    8  A    between atoms: C_15  and  C_18
REMARK                            x       y       z     vdW  Elec       q    Type
REMARK                         _______ _______ _______ _____ _____    ______ ____
ROOT
ATOM      3  O   UNL     1      10.935   8.239  22.634  0.00  0.00    -0.272 OA
ATOM      5  N   UNL     1      12.862   9.479  22.197  0.00  0.00    -0.279 N 
ATOM      6  N   UNL     1      16.333  10.851  21.849  0.00  0.00    -0.328 N 
ATOM      7  N   UNL     1      15.789  12.118  23.605  0.00  0.00    -0.240 NA
ATOM      8  C   UNL     1      12.357  10.657  22.955  0.00  0.00    +0.191 C 
ATOM      9  C   UNL     1      13.402  11.322  23.875  0.00  0.00    +0.091 C 
ATOM     10  C   UNL     1      15.037  10.552  22.151  0.00  0.00    +0.059 A 
ATOM     11  C   UNL     1      14.152   9.597  21.460  0.00  0.00    +0.164 C 
ATOM     12  C   UNL     1      14.728  11.344  23.226  0.00  0.00    +0.066 A 
ATOM     15  C   UNL     1      12.010   8.375  22.043  0.00  0.00    +0.254 C 
ATOM     16  C   UNL     1      16.741  11.799  22.752  0.00  0.00    +0.200 A 
ENDROOT
BRANCH   8  14
ATOM      2  O   UNL     1      11.680  11.338  20.743  0.00  0.00    -0.249 OA
ATOM     14  C   UNL     1      11.822  11.613  21.927  0.00  0.00    +0.328 C 
BRANCH  14   1
ATOM      1  O   UNL     1      11.530  12.805  22.522  0.00  0.00    -0.467 OA
ATOM     21  C   UNL     1      10.602  13.634  21.815  0.00  0.00    +0.280 C 
ENDBRANCH  14   1
ENDBRANCH   8  14
BRANCH   6  13
ATOM     13  C   UNL     1      17.133  10.292  20.786  0.00  0.00    +0.158 C 
BRANCH  13  17
ATOM     17  C   UNL     1      17.811   8.998  21.163  0.00  0.00    -0.028 A 
ATOM     19  C   UNL     1      17.300   7.784  20.704  0.00  0.00    +0.005 A 
ATOM     20  C   UNL     1      18.948   9.017  21.971  0.00  0.00    +0.005 A 
ATOM     22  C   UNL     1      17.926   6.588  21.053  0.00  0.00    +0.000 A 
ATOM     23  C   UNL     1      19.574   7.820  22.319  0.00  0.00    +0.000 A 
ATOM     24  C   UNL     1      19.063   6.606  21.861  0.00  0.00    +0.000 A 
ENDBRANCH  13  17
ENDBRANCH   6  13
BRANCH  15  18
ATOM     18  C   UNL     1      12.473   7.299  21.092  0.00  0.00    +0.324 C 
BRANCH  18   4
ATOM      4  O   UNL     1      11.670   7.408  19.942  0.00  0.00    -0.483 OA
BRANCH   4  25
ATOM     25  C   UNL     1      12.277   7.846  18.786  0.00  0.00    +0.121 A 
ATOM     26  C   UNL     1      13.579   7.447  18.488  0.00  0.00    +0.045 A 
ATOM     27  C   UNL     1      11.588   8.689  17.914  0.00  0.00    +0.045 A 
ATOM     28  C   UNL     1      14.194   7.891  17.317  0.00  0.00    +0.004 A 
ATOM     29  C   UNL     1      12.203   9.134  16.743  0.00  0.00    +0.004 A 
ATOM     30  C   UNL     1      13.506   8.734  16.444  0.00  0.00    +0.000 A 
ENDBRANCH   4  25
ENDBRANCH  18   4
ENDBRANCH  15  18
TORSDOF 7
ENDMDL
MODEL 3
REMARK VINA RESULT:      -6.2      3.744      6.920
REMARK  Name = 25338966
REMARK  8 active torsions:
REMARK  status: ('A' for Active; 'I' for Inactive)
REMARK    1  A    between atoms: O_1  and  C_14
REMARK    2  A    between atoms: O_1  and  C_21
REMARK    3  A    between atoms: O_4  and  C_18
REMARK    4  A    between atoms: O_4  and  C_25
REMARK    5  A    between atoms: N_6  and  C_13
REMARK    6  A    between atoms: C_8  and  C_14
REMARK    7  A    between atoms: C_13  and  C_17
REMARK    8  A    between atoms: C_15  and  C_18
REMARK                            x       y       z     vdW  Elec       q    Type
REMARK                         _______ _______ _______ _____ _____    ______ ____
ROOT
ATOM      3  O   UNL     1      13.782   8.452  15.148  0.00  0.00    -0.272 OA
ATOM      5  N   UNL     1      14.265   8.947  17.376  0.00  0.00    -0.279 N 
ATOM      6  N   UNL     1      15.762   9.963  20.660  0.00  0.00    -0.328 N 
ATOM      7  N   UNL     1      16.044   7.770  20.976  0.00  0.00    -0.240 NA
ATOM      8  C   UNL     1      13.963   7.559  17.821  0.00  0.00    +0.191 C 
ATOM      9  C   UNL     1      14.978   6.972  18.824  0.00  0.00    +0.091 C 
ATOM     10  C   UNL     1      15.231   9.345  19.566  0.00  0.00    +0.059 A 
ATOM     11  C   UNL     1      14.583   9.979  18.403  0.00  0.00    +0.164 C 
ATOM     12  C   UNL     1      15.413   8.004  19.786  0.00  0.00    +0.066 A 
ATOM     15  C   UNL     1      14.046   9.274  16.029  0.00  0.00    +0.254 C 
ATOM     16  C   UNL     1      16.239   8.972  21.480  0.00  0.00    +0.200 A 
ENDROOT
BRANCH   8  14
ATOM      2  O   UNL     1      12.316   7.796  19.566  0.00  0.00    -0.249 OA
ATOM     14  C   UNL     1      12.571   7.599  18.385  0.00  0.00    +0.328 C 
BRANCH  14   1
ATOM      1  O   UNL     1      11.668   7.384  17.387  0.00  0.00    -0.467 OA
ATOM     21  C   UNL     1      10.747   8.455  17.150  0.00  0.00    +0.280 C 
ENDBRANCH  14   1
ENDBRANCH   8  14
BRANCH   6  13
ATOM     13  C   UNL     1      15.815  11.381  20.922  0.00  0.00    +0.158 C 
BRANCH  13  17
ATOM     17  C   UNL     1      16.805  12.113  20.051  0.00  0.00    -0.028 A 
ATOM     19  C   UNL     1      18.156  11.772  20.093  0.00  0.00    +0.005 A 
ATOM     20  C   UNL     1      16.368  13.131  19.203  0.00  0.00    +0.005 A 
ATOM     22  C   UNL     1      19.072  12.449  19.288  0.00  0.00    +0.000 A 
ATOM     23  C   UNL     1      17.283  13.808  18.398  0.00  0.00    +0.000 A 
ATOM     24  C   UNL     1      18.635  13.467  18.440  0.00  0.00    +0.000 A 
ENDBRANCH  13  17
ENDBRANCH   6  13
BRANCH  15  18
ATOM     18  C   UNL     1      14.156  10.735  15.668  0.00  0.00    +0.324 C 
BRANCH  18   4
ATOM      4  O   UNL     1      14.611  10.786  14.337  0.00  0.00    -0.483 OA
BRANCH   4  25
ATOM     25  C   UNL     1      15.769  11.490  14.091  0.00  0.00    +0.121 A 
ATOM     26  C   UNL     1      16.616  11.829  15.145  0.00  0.00    +0.045 A 
ATOM     27  C   UNL     1      16.094  11.863  12.787  0.00  0.00    +0.045 A 
ATOM     28  C   UNL     1      17.790  12.542  14.896  0.00  0.00    +0.004 A 
ATOM     29  C   UNL     1      17.266  12.576  12.537  0.00  0.00    +0.004 A 
ATOM     30  C   UNL     1      18.114  12.916  13.592  0.00  0.00    +0.000 A 
ENDBRANCH   4  25
ENDBRANCH  18   4
ENDBRANCH  15  18
TORSDOF 7
ENDMDL
MODEL 4
REMARK VINA RESULT:      -6.2     27.163     29.564
REMARK  Name = 25338966
REMARK  8 active torsions:
REMARK  status: ('A' for Active; 'I' for Inactive)
REMARK    1  A    between atoms: O_1  and  C_14
REMARK    2  A    between atoms: O_1  and  C_21
REMARK    3  A    between atoms: O_4  and  C_18
REMARK    4  A    between atoms: O_4  and  C_25
REMARK    5  A    between atoms: N_6  and  C_13
REMARK    6  A    between atoms: C_8  and  C_14
REMARK    7  A    between atoms: C_13  and  C_17
REMARK    8  A    between atoms: C_15  and  C_18
REMARK                            x       y       z     vdW  Elec       q    Type
REMARK                         _______ _______ _______ _____ _____    ______ ____
ROOT
ATOM      3  O   UNL     1      -3.747 -14.309  10.540  0.00  0.00    -0.272 OA
ATOM      5  N   UNL     1      -3.603 -13.239  12.608  0.00  0.00    -0.279 N 
ATOM      6  N   UNL     1      -3.418 -10.845  15.487  0.00  0.00    -0.328 N 
ATOM      7  N   UNL     1      -1.228 -11.280  15.442  0.00  0.00    -0.240 NA
ATOM      8  C   UNL     1      -2.314 -13.905  12.939  0.00  0.00    +0.191 C 
ATOM      9  C   UNL     1      -1.253 -12.973  13.561  0.00  0.00    +0.091 C 
ATOM     10  C   UNL     1      -3.230 -11.769  14.501  0.00  0.00    +0.059 A 
ATOM     11  C   UNL     1      -4.255 -12.381  13.638  0.00  0.00    +0.164 C 
ATOM     12  C   UNL     1      -1.882 -12.021  14.497  0.00  0.00    +0.066 A 
ATOM     15  C   UNL     1      -4.251 -13.602  11.417  0.00  0.00    +0.254 C 
ATOM     16  C   UNL     1      -2.182 -10.583  16.023  0.00  0.00    +0.200 A 
ENDROOT
BRANCH   8  14
ATOM      2  O   UNL     1      -3.776 -15.545  13.932  0.00  0.00    -0.249 OA
ATOM     14  C   UNL     1      -2.660 -15.050  13.848  0.00  0.00    +0.328 C 
BRANCH  14   1
ATOM      1  O   UNL     1      -1.550 -15.432  14.542  0.00  0.00    -0.467 OA
ATOM     21  C   UNL     1      -1.307 -16.842  14.584  0.00  0.00    +0.280 C 
ENDBRANCH  14   1
ENDBRANCH   8  14
BRANCH   6  13
ATOM     13  C   UNL     1      -4.666 -10.253  15.902  0.00  0.00    +0.158 C 
BRANCH  13  17
ATOM     17  C   UNL     1      -5.087 -10.656  17.293  0.00  0.00    -0.028 A 
ATOM     19  C   UNL     1      -6.274 -10.163  17.832  0.00  0.00    +0.005 A 
ATOM     20  C   UNL     1      -4.289 -11.524  18.038  0.00  0.00    +0.005 A 
ATOM     22  C   UNL     1      -6.664 -10.536  19.118  0.00  0.00    +0.000 A 
ATOM     23  C   UNL     1      -4.678 -11.897  19.324  0.00  0.00    +0.000 A 
ATOM     24  C   UNL     1      -5.866 -11.403  19.865  0.00  0.00    +0.000 A 
ENDBRANCH  13  17
ENDBRANCH   6  13
BRANCH  15  18
ATOM     18  C   UNL     1      -5.650 -13.070  11.225  0.00  0.00    +0.324 C 
BRANCH  18   4
ATOM      4  O   UNL     1      -5.638 -12.332  10.028  0.00  0.00    -0.483 OA
BRANCH   4  25
ATOM     25  C   UNL     1      -5.333 -10.992  10.115  0.00  0.00    +0.121 A 
ATOM     26  C   UNL     1      -5.926 -10.204  11.101  0.00  0.00    +0.045 A 
ATOM     27  C   UNL     1      -4.431 -10.422   9.216  0.00  0.00    +0.045 A 
ATOM     28  C   UNL     1      -5.618  -8.846  11.189  0.00  0.00    +0.004 A 
ATOM     29  C   UNL     1      -4.123  -9.065   9.303  0.00  0.00    +0.004 A 
ATOM     30  C   UNL     1      -4.716  -8.277  10.289  0.00  0.00    +0.000 A 
ENDBRANCH   4  25
ENDBRANCH  18   4
ENDBRANCH  15  18
TORSDOF 7
ENDMDL
MODEL 5
REMARK VINA RESULT:      -6.1     27.890     30.177
REMARK  Name = 25338966
REMARK  8 active torsions:
REMARK  status: ('A' for Active; 'I' for Inactive)
REMARK    1  A    between atoms: O_1  and  C_14
REMARK    2  A    between atoms: O_1  and  C_21
REMARK    3  A    between atoms: O_4  and  C_18
REMARK    4  A    between atoms: O_4  and  C_25
REMARK    5  A    between atoms: N_6  and  C_13
REMARK    6  A    between atoms: C_8  and  C_14
REMARK    7  A    between atoms: C_13  and  C_17
REMARK    8  A    between atoms: C_15  and  C_18
REMARK                            x       y       z     vdW  Elec       q    Type
REMARK                         _______ _______ _______ _____ _____    ______ ____
ROOT
ATOM      3  O   UNL     1      -4.008 -10.523  16.219  0.00  0.00    -0.272 OA
ATOM      5  N   UNL     1      -6.246 -10.781  16.820  0.00  0.00    -0.279 N 
ATOM      6  N   UNL     1      -9.871 -10.394  17.696  0.00  0.00    -0.328 N 
ATOM      7  N   UNL     1      -9.172 -10.596  19.807  0.00  0.00    -0.240 NA
ATOM      8  C   UNL     1      -5.895 -11.439  18.108  0.00  0.00    +0.191 C 
ATOM      9  C   UNL     1      -6.713 -10.950  19.322  0.00  0.00    +0.091 C 
ATOM     10  C   UNL     1      -8.524 -10.598  17.636  0.00  0.00    +0.059 A 
ATOM     11  C   UNL     1      -7.682 -10.685  16.430  0.00  0.00    +0.164 C 
ATOM     12  C   UNL     1      -8.121 -10.722  18.941  0.00  0.00    +0.066 A 
ATOM     15  C   UNL     1      -5.207 -10.457  15.936  0.00  0.00    +0.254 C 
ATOM     16  C   UNL     1     -10.213 -10.401  19.025  0.00  0.00    +0.200 A 
ENDROOT
BRANCH   8  14
ATOM      2  O   UNL     1      -7.112 -13.519  18.019  0.00  0.00    -0.249 OA
ATOM     14  C   UNL     1      -6.057 -12.915  17.878  0.00  0.00    +0.328 C 
BRANCH  14   1
ATOM      1  O   UNL     1      -4.862 -13.450  17.496  0.00  0.00    -0.467 OA
ATOM     21  C   UNL     1      -4.892 -14.221  16.290  0.00  0.00    +0.280 C 
ENDBRANCH  14   1
ENDBRANCH   8  14
BRANCH   6  13
ATOM     13  C   UNL     1     -10.776 -10.210  16.587  0.00  0.00    +0.158 C 
BRANCH  13  17
ATOM     17  C   UNL     1     -11.098  -8.762  16.312  0.00  0.00    -0.028 A 
ATOM     19  C   UNL     1     -10.077  -7.872  15.981  0.00  0.00    +0.005 A 
ATOM     20  C   UNL     1     -12.417  -8.315  16.388  0.00  0.00    +0.005 A 
ATOM     22  C   UNL     1     -10.375  -6.534  15.726  0.00  0.00    +0.000 A 
ATOM     23  C   UNL     1     -12.715  -6.977  16.133  0.00  0.00    +0.000 A 
ATOM     24  C   UNL     1     -11.693  -6.086  15.802  0.00  0.00    +0.000 A 
ENDBRANCH  13  17
ENDBRANCH   6  13
BRANCH  15  18
ATOM     18  C   UNL     1      -5.617  -9.995  14.559  0.00  0.00    +0.324 C 
BRANCH  18   4
ATOM      4  O   UNL     1      -4.854 -10.740  13.642  0.00  0.00    -0.483 OA
BRANCH   4  25
ATOM     25  C   UNL     1      -4.540 -10.138  12.443  0.00  0.00    +0.121 A 
ATOM     26  C   UNL     1      -3.283 -10.331  11.874  0.00  0.00    +0.045 A 
ATOM     27  C   UNL     1      -5.482  -9.336  11.799  0.00  0.00    +0.045 A 
ATOM     28  C   UNL     1      -2.965  -9.722  10.660  0.00  0.00    +0.004 A 
ATOM     29  C   UNL     1      -5.165  -8.726  10.585  0.00  0.00    +0.004 A 
ATOM     30  C   UNL     1      -3.906  -8.919  10.015  0.00  0.00    +0.000 A 
ENDBRANCH   4  25
ENDBRANCH  18   4
ENDBRANCH  15  18
TORSDOF 7
ENDMDL
MODEL 6
REMARK VINA RESULT:      -6.1      6.103      9.484
REMARK  Name = 25338966
REMARK  8 active torsions:
REMARK  status: ('A' for Active; 'I' for Inactive)
REMARK    1  A    between atoms: O_1  and  C_14
REMARK    2  A    between atoms: O_1  and  C_21
REMARK    3  A    between atoms: O_4  and  C_18
REMARK    4  A    between atoms: O_4  and  C_25
REMARK    5  A    between atoms: N_6  and  C_13
REMARK    6  A    between atoms: C_8  and  C_14
REMARK    7  A    between atoms: C_13  and  C_17
REMARK    8  A    between atoms: C_15  and  C_18
REMARK                            x       y       z     vdW  Elec       q    Type
REMARK                         _______ _______ _______ _____ _____    ______ ____
ROOT
ATOM      3  O   UNL     1      17.061   8.824  21.631  0.00  0.00    -0.272 OA
ATOM      5  N   UNL     1      18.988   7.522  21.805  0.00  0.00    -0.279 N 
ATOM      6  N   UNL     1      21.570   4.852  22.318  0.00  0.00    -0.328 N 
ATOM      7  N   UNL     1      21.982   5.907  24.243  0.00  0.00    -0.240 NA
ATOM      8  C   UNL     1      19.626   8.471  22.758  0.00  0.00    +0.191 C 
ATOM      9  C   UNL     1      20.328   7.801  23.958  0.00  0.00    +0.091 C 
ATOM     10  C   UNL     1      20.745   5.937  22.346  0.00  0.00    +0.059 A 
ATOM     11  C   UNL     1      19.778   6.356  21.315  0.00  0.00    +0.164 C 
ATOM     12  C   UNL     1      21.020   6.568  23.532  0.00  0.00    +0.066 A 
ATOM     15  C   UNL     1      17.745   7.868  21.255  0.00  0.00    +0.254 C 
ATOM     16  C   UNL     1      22.295   4.877  23.483  0.00  0.00    +0.200 A 
ENDROOT
BRANCH   8  14
ATOM      2  O   UNL     1      20.296   9.795  20.858  0.00  0.00    -0.249 OA
ATOM     14  C   UNL     1      20.575   9.302  21.943  0.00  0.00    +0.328 C 
BRANCH  14   1
ATOM      1  O   UNL     1      21.765   9.412  22.600  0.00  0.00    -0.467 OA
ATOM     21  C   UNL     1      22.932   9.279  21.783  0.00  0.00    +0.280 C 
ENDBRANCH  14   1
ENDBRANCH   8  14
BRANCH   6  13
ATOM     13  C   UNL     1      21.676   3.862  21.273  0.00  0.00    +0.158 C 
BRANCH  13  17
ATOM     17  C   UNL     1      23.101   3.507  20.930  0.00  0.00    -0.028 A 
ATOM     19  C   UNL     1      23.603   2.247  21.255  0.00  0.00    +0.005 A 
ATOM     20  C   UNL     1      23.916   4.437  20.285  0.00  0.00    +0.005 A 
ATOM     22  C   UNL     1      24.920   1.917  20.937  0.00  0.00    +0.000 A 
ATOM     23  C   UNL     1      25.233   4.108  19.967  0.00  0.00    +0.000 A 
ATOM     24  C   UNL     1      25.736   2.848  20.293  0.00  0.00    +0.000 A 
ENDBRANCH  13  17
ENDBRANCH   6  13
BRANCH  15  18
ATOM     18  C   UNL     1      17.238   6.991  20.137  0.00  0.00    +0.324 C 
BRANCH  18   4
ATOM      4  O   UNL     1      16.005   6.468  20.566  0.00  0.00    -0.483 OA
BRANCH   4  25
ATOM     25  C   UNL     1      14.885   6.813  19.843  0.00  0.00    +0.121 A 
ATOM     26  C   UNL     1      13.622   6.723  20.426  0.00  0.00    +0.045 A 
ATOM     27  C   UNL     1      15.015   7.254  18.526  0.00  0.00    +0.045 A 
ATOM     28  C   UNL     1      12.488   7.073  19.694  0.00  0.00    +0.004 A 
ATOM     29  C   UNL     1      13.881   7.603  17.792  0.00  0.00    +0.004 A 
ATOM     30  C   UNL     1      12.617   7.513  18.376  0.00  0.00    +0.000 A 
ENDBRANCH   4  25
ENDBRANCH  18   4
ENDBRANCH  15  18
TORSDOF 7
ENDMDL
MODEL 7
REMARK VINA RESULT:      -6.0     27.202     29.399
REMARK  Name = 25338966
REMARK  8 active torsions:
REMARK  status: ('A' for Active; 'I' for Inactive)
REMARK    1  A    between atoms: O_1  and  C_14
REMARK    2  A    between atoms: O_1  and  C_21
REMARK    3  A    between atoms: O_4  and  C_18
REMARK    4  A    between atoms: O_4  and  C_25
REMARK    5  A    between atoms: N_6  and  C_13
REMARK    6  A    between atoms: C_8  and  C_14
REMARK    7  A    between atoms: C_13  and  C_17
REMARK    8  A    between atoms: C_15  and  C_18
REMARK                            x       y       z     vdW  Elec       q    Type
REMARK                         _______ _______ _______ _____ _____    ______ ____
ROOT
ATOM      3  O   UNL     1      -1.450 -11.979  14.645  0.00  0.00    -0.272 OA
ATOM      5  N   UNL     1      -3.418 -11.283  13.604  0.00  0.00    -0.279 N 
ATOM      6  N   UNL     1      -6.938 -10.613  12.500  0.00  0.00    -0.328 N 
ATOM      7  N   UNL     1      -6.513 -12.130  10.918  0.00  0.00    -0.240 NA
ATOM      8  C   UNL     1      -2.996 -11.833  12.287  0.00  0.00    +0.191 C 
ATOM      9  C   UNL     1      -4.101 -12.596  11.526  0.00  0.00    +0.091 C 
ATOM     10  C   UNL     1      -5.640 -10.995  12.673  0.00  0.00    +0.059 A 
ATOM     11  C   UNL     1      -4.687 -10.506  13.685  0.00  0.00    +0.164 C 
ATOM     12  C   UNL     1      -5.404 -11.921  11.689  0.00  0.00    +0.066 A 
ATOM     15  C   UNL     1      -2.510 -11.348  14.671  0.00  0.00    +0.254 C 
ATOM     16  C   UNL     1      -7.420 -11.325  11.431  0.00  0.00    +0.200 A 
ENDROOT
BRANCH   8  14
ATOM      2  O   UNL     1      -1.564  -9.937  11.873  0.00  0.00    -0.249 OA
ATOM     14  C   UNL     1      -2.473 -10.666  11.498  0.00  0.00    +0.328 C 
BRANCH  14   1
ATOM      1  O   UNL     1      -3.164 -10.561  10.327  0.00  0.00    -0.467 OA
ATOM     21  C   UNL     1      -3.511  -9.229   9.935  0.00  0.00    +0.280 C 
ENDBRANCH  14   1
ENDBRANCH   8  14
BRANCH   6  13
ATOM     13  C   UNL     1      -7.674  -9.646  13.278  0.00  0.00    +0.158 C 
BRANCH  13  17
ATOM     17  C   UNL     1      -8.371 -10.246  14.474  0.00  0.00    -0.028 A 
ATOM     19  C   UNL     1      -9.255  -9.473  15.226  0.00  0.00    +0.005 A 
ATOM     20  C   UNL     1      -8.132 -11.575  14.826  0.00  0.00    +0.005 A 
ATOM     22  C   UNL     1      -9.900 -10.028  16.331  0.00  0.00    +0.000 A 
ATOM     23  C   UNL     1      -8.777 -12.129  15.931  0.00  0.00    +0.000 A 
ATOM     24  C   UNL     1      -9.661 -11.355  16.684  0.00  0.00    +0.000 A 
ENDBRANCH  13  17
ENDBRANCH   6  13
BRANCH  15  18
ATOM     18  C   UNL     1      -2.888 -10.591  15.921  0.00  0.00    +0.324 C 
BRANCH  18   4
ATOM      4  O   UNL     1      -3.326 -11.549  16.853  0.00  0.00    -0.483 OA
BRANCH   4  25
ATOM     25  C   UNL     1      -4.417 -11.226  17.628  0.00  0.00    +0.121 A 
ATOM     26  C   UNL     1      -5.381 -10.343  17.142  0.00  0.00    +0.045 A 
ATOM     27  C   UNL     1      -4.560 -11.783  18.899  0.00  0.00    +0.045 A 
ATOM     28  C   UNL     1      -6.487 -10.016  17.926  0.00  0.00    +0.004 A 
ATOM     29  C   UNL     1      -5.665 -11.456  19.684  0.00  0.00    +0.004 A 
ATOM     30  C   UNL     1      -6.629 -10.572  19.197  0.00  0.00    +0.000 A 
ENDBRANCH   4  25
ENDBRANCH  18   4
ENDBRANCH  15  18
TORSDOF 7
ENDMDL
MODEL 8
REMARK VINA RESULT:      -6.0     26.640     29.606
REMARK  Name = 25338966
REMARK  8 active torsions:
REMARK  status: ('A' for Active; 'I' for Inactive)
REMARK    1  A    between atoms: O_1  and  C_14
REMARK    2  A    between atoms: O_1  and  C_21
REMARK    3  A    between atoms: O_4  and  C_18
REMARK    4  A    between atoms: O_4  and  C_25
REMARK    5  A    between atoms: N_6  and  C_13
REMARK    6  A    between atoms: C_8  and  C_14
REMARK    7  A    between atoms: C_13  and  C_17
REMARK    8  A    between atoms: C_15  and  C_18
REMARK                            x       y       z     vdW  Elec       q    Type
REMARK                         _______ _______ _______ _____ _____    ______ ____
ROOT
ATOM      3  O   UNL     1      -5.807 -10.682  19.269  0.00  0.00    -0.272 OA
ATOM      5  N   UNL     1      -7.088 -10.735  17.321  0.00  0.00    -0.279 N 
ATOM      6  N   UNL     1      -8.528 -10.405  13.875  0.00  0.00    -0.328 N 
ATOM      7  N   UNL     1      -9.766  -8.776  14.770  0.00  0.00    -0.240 NA
ATOM      8  C   UNL     1      -8.247 -10.078  17.984  0.00  0.00    +0.191 C 
ATOM      9  C   UNL     1      -8.922  -8.971  17.148  0.00  0.00    +0.091 C 
ATOM     10  C   UNL     1      -8.202 -10.358  15.199  0.00  0.00    +0.059 A 
ATOM     11  C   UNL     1      -7.238 -11.211  15.917  0.00  0.00    +0.164 C 
ATOM     12  C   UNL     1      -8.976  -9.355  15.724  0.00  0.00    +0.066 A 
ATOM     15  C   UNL     1      -5.970 -11.055  18.105  0.00  0.00    +0.254 C 
ATOM     16  C   UNL     1      -9.474  -9.434  13.666  0.00  0.00    +0.200 A 
ENDROOT
BRANCH   8  14
ATOM      2  O   UNL     1      -8.918 -12.372  18.309  0.00  0.00    -0.249 OA
ATOM     14  C   UNL     1      -9.205 -11.182  18.334  0.00  0.00    +0.328 C 
BRANCH  14   1
ATOM      1  O   UNL     1     -10.412 -10.647  18.675  0.00  0.00    -0.467 OA
ATOM     21  C   UNL     1     -10.597 -10.387  20.070  0.00  0.00    +0.280 C 
ENDBRANCH  14   1
ENDBRANCH   8  14
BRANCH   6  13
ATOM     13  C   UNL     1      -7.996 -11.301  12.876  0.00  0.00    +0.158 C 
BRANCH  13  17
ATOM     17  C   UNL     1      -6.865 -10.703  12.079  0.00  0.00    -0.028 A 
ATOM     19  C   UNL     1      -6.605  -9.334  12.156  0.00  0.00    +0.005 A 
ATOM     20  C   UNL     1      -6.078 -11.518  11.265  0.00  0.00    +0.005 A 
ATOM     22  C   UNL     1      -5.558  -8.781  11.419  0.00  0.00    +0.000 A 
ATOM     23  C   UNL     1      -5.031 -10.964  10.528  0.00  0.00    +0.000 A 
ATOM     24  C   UNL     1      -4.772  -9.596  10.604  0.00  0.00    +0.000 A 
ENDBRANCH  13  17
ENDBRANCH   6  13
BRANCH  15  18
ATOM     18  C   UNL     1      -4.912 -11.909  17.448  0.00  0.00    +0.324 C 
BRANCH  18   4
ATOM      4  O   UNL     1      -3.727 -11.152  17.450  0.00  0.00    -0.483 OA
BRANCH   4  25
ATOM     25  C   UNL     1      -3.153 -10.872  16.230  0.00  0.00    +0.121 A 
ATOM     26  C   UNL     1      -3.919 -10.938  15.067  0.00  0.00    +0.045 A 
ATOM     27  C   UNL     1      -1.804 -10.523  16.158  0.00  0.00    +0.045 A 
ATOM     28  C   UNL     1      -3.337 -10.655  13.831  0.00  0.00    +0.004 A 
ATOM     29  C   UNL     1      -1.222 -10.241  14.922  0.00  0.00    +0.004 A 
ATOM     30  C   UNL     1      -1.988 -10.306  13.759  0.00  0.00    +0.000 A 
ENDBRANCH   4  25
ENDBRANCH  18   4
ENDBRANCH  15  18
TORSDOF 7
ENDMDL
MODEL 9
REMARK VINA RESULT:      -6.0     14.307     18.188
REMARK  Name = 25338966
REMARK  8 active torsions:
REMARK  status: ('A' for Active; 'I' for Inactive)
REMARK    1  A    between atoms: O_1  and  C_14
REMARK    2  A    between atoms: O_1  and  C_21
REMARK    3  A    between atoms: O_4  and  C_18
REMARK    4  A    between atoms: O_4  and  C_25
REMARK    5  A    between atoms: N_6  and  C_13
REMARK    6  A    between atoms: C_8  and  C_14
REMARK    7  A    between atoms: C_13  and  C_17
REMARK    8  A    between atoms: C_15  and  C_18
REMARK                            x       y       z     vdW  Elec       q    Type
REMARK                         _______ _______ _______ _____ _____    ______ ____
ROOT
ATOM      3  O   UNL     1      10.030   4.641   5.738  0.00  0.00    -0.272 OA
ATOM      5  N   UNL     1      11.608   6.313   5.343  0.00  0.00    -0.279 N 
ATOM      6  N   UNL     1      14.519   8.423   4.283  0.00  0.00    -0.328 N 
ATOM      7  N   UNL     1      15.282   8.047   6.347  0.00  0.00    -0.240 NA
ATOM      8  C   UNL     1      11.842   6.530   6.796  0.00  0.00    +0.191 C 
ATOM      9  C   UNL     1      13.326   6.680   7.192  0.00  0.00    +0.091 C 
ATOM     10  C   UNL     1      13.568   7.676   4.913  0.00  0.00    +0.059 A 
ATOM     11  C   UNL     1      12.282   7.211   4.363  0.00  0.00    +0.164 C 
ATOM     12  C   UNL     1      14.058   7.462   6.176  0.00  0.00    +0.066 A 
ATOM     15  C   UNL     1      10.612   5.401   4.960  0.00  0.00    +0.254 C 
ATOM     16  C   UNL     1      15.531   8.620   5.188  0.00  0.00    +0.200 A 
ENDROOT
BRANCH   8  14
ATOM      2  O   UNL     1      11.475   8.884   7.173  0.00  0.00    -0.249 OA
ATOM     14  C   UNL     1      11.035   7.741   7.169  0.00  0.00    +0.328 C 
BRANCH  14   1
ATOM      1  O   UNL     1       9.766   7.362   7.492  0.00  0.00    -0.467 OA
ATOM     21  C   UNL     1       8.729   8.246   7.054  0.00  0.00    +0.280 C 
ENDBRANCH  14   1
ENDBRANCH   8  14
BRANCH   6  13
ATOM     13  C   UNL     1      14.482   8.923   2.929  0.00  0.00    +0.158 C 
BRANCH  13  17
ATOM     17  C   UNL     1      15.248   8.064   1.954  0.00  0.00    -0.028 A 
ATOM     19  C   UNL     1      14.640   6.946   1.383  0.00  0.00    +0.005 A 
ATOM     20  C   UNL     1      16.563   8.390   1.621  0.00  0.00    +0.005 A 
ATOM     22  C   UNL     1      15.348   6.152   0.481  0.00  0.00    +0.000 A 
ATOM     23  C   UNL     1      17.270   7.596   0.719  0.00  0.00    +0.000 A 
ATOM     24  C   UNL     1      16.663   6.477   0.149  0.00  0.00    +0.000 A 
ENDBRANCH  13  17
ENDBRANCH   6  13
BRANCH  15  18
ATOM     18  C   UNL     1      10.258   5.371   3.494  0.00  0.00    +0.324 C 
BRANCH  18   4
ATOM      4  O   UNL     1      10.549   4.072   3.038  0.00  0.00    -0.483 OA
BRANCH   4  25
ATOM     25  C   UNL     1      11.262   3.957   1.866  0.00  0.00    +0.121 A 
ATOM     26  C   UNL     1      12.539   3.399   1.878  0.00  0.00    +0.045 A 
ATOM     27  C   UNL     1      10.704   4.398   0.665  0.00  0.00    +0.045 A 
ATOM     28  C   UNL     1      13.262   3.282   0.690  0.00  0.00    +0.004 A 
ATOM     29  C   UNL     1      11.426   4.282  -0.523  0.00  0.00    +0.004 A 
ATOM     30  C   UNL     1      12.704   3.724  -0.511  0.00  0.00    +0.000 A 
ENDBRANCH   4  25
ENDBRANCH  18   4
ENDBRANCH  15  18
TORSDOF 7
ENDMDL
MODEL 10
REMARK VINA RESULT:      -6.0     15.444     18.718
REMARK  Name = 25338966
REMARK  8 active torsions:
REMARK  status: ('A' for Active; 'I' for Inactive)
REMARK    1  A    between atoms: O_1  and  C_14
REMARK    2  A    between atoms: O_1  and  C_21
REMARK    3  A    between atoms: O_4  and  C_18
REMARK    4  A    between atoms: O_4  and  C_25
REMARK    5  A    between atoms: N_6  and  C_13
REMARK    6  A    between atoms: C_8  and  C_14
REMARK    7  A    between atoms: C_13  and  C_17
REMARK    8  A    between atoms: C_15  and  C_18
REMARK                            x       y       z     vdW  Elec       q    Type
REMARK                         _______ _______ _______ _____ _____    ______ ____
ROOT
ATOM      3  O   UNL     1      16.732   7.723   2.137  0.00  0.00    -0.272 OA
ATOM      5  N   UNL     1      14.691   6.637   1.828  0.00  0.00    -0.279 N 
ATOM      6  N   UNL     1      11.365   4.934   2.138  0.00  0.00    -0.328 N 
ATOM      7  N   UNL     1      12.530   3.053   1.840  0.00  0.00    -0.240 NA
ATOM      8  C   UNL     1      15.327   5.498   1.112  0.00  0.00    +0.191 C 
ATOM      9  C   UNL     1      14.811   4.106   1.533  0.00  0.00    +0.091 C 
ATOM     10  C   UNL     1      12.662   5.312   1.950  0.00  0.00    +0.059 A 
ATOM     11  C   UNL     1      13.204   6.682   1.930  0.00  0.00    +0.164 C 
ATOM     12  C   UNL     1      13.353   4.142   1.766  0.00  0.00    +0.066 A 
ATOM     15  C   UNL     1      15.500   7.719   2.205  0.00  0.00    +0.254 C 
ATOM     16  C   UNL     1      11.337   3.565   2.063  0.00  0.00    +0.200 A 
ENDROOT
BRANCH   8  14
ATOM      2  O   UNL     1      14.927   6.869  -0.831  0.00  0.00    -0.249 OA
ATOM     14  C   UNL     1      15.114   5.759  -0.352  0.00  0.00    +0.328 C 
BRANCH  14   1
ATOM      1  O   UNL     1      15.164   4.580  -1.037  0.00  0.00    -0.467 OA
ATOM     21  C   UNL     1      14.307   4.497  -2.181  0.00  0.00    +0.280 C 
ENDBRANCH  14   1
ENDBRANCH   8  14
BRANCH   6  13
ATOM     13  C   UNL     1      10.230   5.795   2.367  0.00  0.00    +0.158 C 
BRANCH  13  17
ATOM     17  C   UNL     1       9.815   5.864   3.816  0.00  0.00    -0.028 A 
ATOM     19  C   UNL     1      10.274   4.905   4.719  0.00  0.00    +0.005 A 
ATOM     20  C   UNL     1       8.973   6.887   4.252  0.00  0.00    +0.005 A 
ATOM     22  C   UNL     1       9.890   4.969   6.058  0.00  0.00    +0.000 A 
ATOM     23  C   UNL     1       8.590   6.951   5.591  0.00  0.00    +0.000 A 
ATOM     24  C   UNL     1       9.048   5.992   6.494  0.00  0.00    +0.000 A 
ENDBRANCH  13  17
ENDBRANCH   6  13
BRANCH  15  18
ATOM     18  C   UNL     1      14.785   8.940   2.731  0.00  0.00    +0.324 C 
BRANCH  18   4
ATOM      4  O   UNL     1      15.139   9.059   4.087  0.00  0.00    -0.483 OA
BRANCH   4  25
ATOM     25  C   UNL     1      14.329   8.436   5.010  0.00  0.00    +0.121 A 
ATOM     26  C   UNL     1      12.958   8.689   5.017  0.00  0.00    +0.045 A 
ATOM     27  C   UNL     1      14.880   7.550   5.936  0.00  0.00    +0.045 A 
ATOM     28  C   UNL     1      12.136   8.057   5.952  0.00  0.00    +0.004 A 
ATOM     29  C   UNL     1      14.060   6.919   6.870  0.00  0.00    +0.004 A 
ATOM     30  C   UNL     1      12.688   7.172   6.879  0.00  0.00    +0.000 A 
ENDBRANCH   4  25
ENDBRANCH  18   4
ENDBRANCH  15  18
TORSDOF 7
ENDMDL
