MODEL 1
REMARK VINA RESULT:      -6.3      0.000      0.000
REMARK  Name = 45783414
REMARK  9 active torsions:
REMARK  status: ('A' for Active; 'I' for Inactive)
REMARK    1  A    between atoms: O_3  and  C_21
REMARK    2  A    between atoms: O_3  and  C_25
REMARK    3  A    between atoms: O_4  and  C_26
REMARK    4  A    between atoms: O_4  and  C_27
REMARK    5  A    between atoms: N_5  and  C_13
REMARK    6  A    between atoms: C_9  and  C_14
REMARK    7  A    between atoms: C_13  and  C_15
REMARK    8  A    between atoms: C_16  and  C_19
REMARK    9  A    between atoms: C_25  and  C_26
REMARK                            x       y       z     vdW  Elec       q    Type
REMARK                         _______ _______ _______ _____ _____    ______ ____
ROOT
ATOM      1  O   UNL     1      14.415   9.493  22.682  0.00  0.00    -0.336 OA
ATOM      6  N   UNL     1      15.393   9.773  20.686  0.00  0.00    -0.190 NA
ATOM      7  N   UNL     1      15.019   8.268  22.368  0.00  0.00    -0.056 NA
ATOM     14  C   UNL     1      14.683  10.322  21.640  0.00  0.00    +0.245 A 
ATOM     16  C   UNL     1      15.575   8.513  21.178  0.00  0.00    +0.207 A 
ENDROOT
BRANCH  16  19
ATOM      8  N   UNL     1      16.403   5.818  18.741  0.00  0.00    -0.221 NA
ATOM     19  C   UNL     1      16.317   7.522  20.453  0.00  0.00    +0.084 A 
ATOM     21  C   UNL     1      15.742   6.761  19.448  0.00  0.00    +0.226 A 
ATOM     22  C   UNL     1      17.657   7.300  20.753  0.00  0.00    +0.018 A 
ATOM     23  C   UNL     1      18.371   6.338  20.047  0.00  0.00    +0.021 A 
ATOM     24  C   UNL     1      17.703   5.631  19.059  0.00  0.00    +0.114 A 
BRANCH  21   3
ATOM      3  O   UNL     1      14.424   6.944  19.117  0.00  0.00    -0.474 OA
BRANCH   3  25
ATOM     25  C   UNL     1      14.160   7.685  17.932  0.00  0.00    +0.258 C 
BRANCH  25  26
ATOM     26  C   UNL     1      12.662   7.731  17.700  0.00  0.00    +0.200 C 
BRANCH  26   4
ATOM      4  O   UNL     1      12.296   9.043  17.290  0.00  0.00    -0.380 OA
ATOM     27  C   UNL     1      11.336   9.013  16.243  0.00  0.00    +0.194 C 
ENDBRANCH  26   4
ENDBRANCH  25  26
ENDBRANCH   3  25
ENDBRANCH  21   3
ENDBRANCH  16  19
BRANCH  14   9
ATOM      5  N   UNL     1      12.858  11.788  22.484  0.00  0.00    -0.284 NA
ATOM      9  C   UNL     1      14.132  11.729  21.738  0.00  0.00    +0.146 C 
ATOM     10  C   UNL     1      15.072  12.686  22.494  0.00  0.00    +0.030 C 
ATOM     11  C   UNL     1      14.222  13.282  23.607  0.00  0.00    +0.017 C 
ATOM     12  C   UNL     1      12.804  13.112  23.103  0.00  0.00    +0.085 C 
BRANCH   5  13
ATOM     13  C   UNL     1      11.692  11.524  21.650  0.00  0.00    +0.159 C 
BRANCH  13  15
ATOM      2  O   UNL     1      11.314   9.379  20.564  0.00  0.00    -0.467 OA
ATOM     15  C   UNL     1      11.263  10.083  21.726  0.00  0.00    +0.119 A 
ATOM     17  C   UNL     1      10.811   9.288  22.753  0.00  0.00    +0.046 A 
ATOM     18  C   UNL     1      10.571   8.014  22.188  0.00  0.00    +0.041 A 
ATOM     20  C   UNL     1      10.891   8.120  20.855  0.00  0.00    +0.195 A 
ENDBRANCH  13  15
ENDBRANCH   5  13
ENDBRANCH  14   9
TORSDOF 8
ENDMDL
MODEL 2
REMARK VINA RESULT:      -6.1      1.677      6.122
REMARK  Name = 45783414
REMARK  9 active torsions:
REMARK  status: ('A' for Active; 'I' for Inactive)
REMARK    1  A    between atoms: O_3  and  C_21
REMARK    2  A    between atoms: O_3  and  C_25
REMARK    3  A    between atoms: O_4  and  C_26
REMARK    4  A    between atoms: O_4  and  C_27
REMARK    5  A    between atoms: N_5  and  C_13
REMARK    6  A    between atoms: C_9  and  C_14
REMARK    7  A    between atoms: C_13  and  C_15
REMARK    8  A    between atoms: C_16  and  C_19
REMARK    9  A    between atoms: C_25  and  C_26
REMARK                            x       y       z     vdW  Elec       q    Type
REMARK                         _______ _______ _______ _____ _____    ______ ____
ROOT
ATOM      1  O   UNL     1      16.269   9.475  21.183  0.00  0.00    -0.336 OA
ATOM      6  N   UNL     1      14.521   8.792  22.407  0.00  0.00    -0.190 NA
ATOM      7  N   UNL     1      15.823  10.600  21.890  0.00  0.00    -0.056 NA
ATOM     14  C   UNL     1      15.449   8.455  21.545  0.00  0.00    +0.245 A 
ATOM     16  C   UNL     1      14.792  10.117  22.588  0.00  0.00    +0.207 A 
ENDROOT
BRANCH  16  19
ATOM      8  N   UNL     1      11.899  11.961  24.044  0.00  0.00    -0.221 NA
ATOM     19  C   UNL     1      14.010  10.931  23.473  0.00  0.00    +0.084 A 
ATOM     21  C   UNL     1      12.672  11.201  23.237  0.00  0.00    +0.226 A 
ATOM     22  C   UNL     1      14.593  11.477  24.612  0.00  0.00    +0.018 A 
ATOM     23  C   UNL     1      13.830  12.265  25.467  0.00  0.00    +0.021 A 
ATOM     24  C   UNL     1      12.500  12.475  25.140  0.00  0.00    +0.114 A 
BRANCH  21   3
ATOM      3  O   UNL     1      12.053  10.684  22.127  0.00  0.00    -0.474 OA
BRANCH   3  25
ATOM     25  C   UNL     1      10.913   9.866  22.356  0.00  0.00    +0.258 C 
BRANCH  25  26
ATOM     26  C   UNL     1      10.968   8.668  21.427  0.00  0.00    +0.200 C 
BRANCH  26   4
ATOM      4  O   UNL     1      11.235   7.499  22.192  0.00  0.00    -0.380 OA
ATOM     27  C   UNL     1      11.539   6.390  21.358  0.00  0.00    +0.194 C 
ENDBRANCH  26   4
ENDBRANCH  25  26
ENDBRANCH   3  25
ENDBRANCH  21   3
ENDBRANCH  16  19
BRANCH  14   9
ATOM      5  N   UNL     1      15.738   7.169  19.435  0.00  0.00    -0.284 NA
ATOM      9  C   UNL     1      15.725   7.108  20.910  0.00  0.00    +0.146 C 
ATOM     10  C   UNL     1      17.105   6.543  21.290  0.00  0.00    +0.030 C 
ATOM     11  C   UNL     1      17.798   6.259  19.965  0.00  0.00    +0.017 C 
ATOM     12  C   UNL     1      16.651   6.118  18.986  0.00  0.00    +0.085 C 
BRANCH   5  13
ATOM     13  C   UNL     1      14.412   7.035  18.843  0.00  0.00    +0.159 C 
BRANCH  13  15
ATOM      2  O   UNL     1      13.626   7.895  16.706  0.00  0.00    -0.467 OA
ATOM     15  C   UNL     1      14.075   8.201  17.952  0.00  0.00    +0.119 A 
ATOM     17  C   UNL     1      14.124   9.564  18.127  0.00  0.00    +0.046 A 
ATOM     18  C   UNL     1      13.675  10.133  16.912  0.00  0.00    +0.041 A 
ATOM     20  C   UNL     1      13.384   9.078  16.080  0.00  0.00    +0.195 A 
ENDBRANCH  13  15
ENDBRANCH   5  13
ENDBRANCH  14   9
TORSDOF 8
ENDMDL
MODEL 3
REMARK VINA RESULT:      -5.9      2.185      4.686
REMARK  Name = 45783414
REMARK  9 active torsions:
REMARK  status: ('A' for Active; 'I' for Inactive)
REMARK    1  A    between atoms: O_3  and  C_21
REMARK    2  A    between atoms: O_3  and  C_25
REMARK    3  A    between atoms: O_4  and  C_26
REMARK    4  A    between atoms: O_4  and  C_27
REMARK    5  A    between atoms: N_5  and  C_13
REMARK    6  A    between atoms: C_9  and  C_14
REMARK    7  A    between atoms: C_13  and  C_15
REMARK    8  A    between atoms: C_16  and  C_19
REMARK    9  A    between atoms: C_25  and  C_26
REMARK                            x       y       z     vdW  Elec       q    Type
REMARK                         _______ _______ _______ _____ _____    ______ ____
ROOT
ATOM      1  O   UNL     1      13.833   6.580  19.808  0.00  0.00    -0.336 OA
ATOM      6  N   UNL     1      15.564   7.672  18.898  0.00  0.00    -0.190 NA
ATOM      7  N   UNL     1      14.912   6.401  20.684  0.00  0.00    -0.056 NA
ATOM     14  C   UNL     1      14.302   7.340  18.785  0.00  0.00    +0.245 A 
ATOM     16  C   UNL     1      15.895   7.073  20.079  0.00  0.00    +0.207 A 
ENDROOT
BRANCH  16  19
ATOM      8  N   UNL     1      18.827   8.319  22.012  0.00  0.00    -0.221 NA
ATOM     19  C   UNL     1      17.218   7.165  20.625  0.00  0.00    +0.084 A 
ATOM     21  C   UNL     1      17.593   8.194  21.474  0.00  0.00    +0.226 A 
ATOM     22  C   UNL     1      18.171   6.203  20.306  0.00  0.00    +0.018 A 
ATOM     23  C   UNL     1      19.452   6.298  20.839  0.00  0.00    +0.021 A 
ATOM     24  C   UNL     1      19.726   7.366  21.679  0.00  0.00    +0.114 A 
BRANCH  21   3
ATOM      3  O   UNL     1      16.688   9.165  21.818  0.00  0.00    -0.474 OA
BRANCH   3  25
ATOM     25  C   UNL     1      16.880  10.449  21.238  0.00  0.00    +0.258 C 
BRANCH  25  26
ATOM     26  C   UNL     1      16.883  11.494  22.338  0.00  0.00    +0.200 C 
BRANCH  26   4
ATOM      4  O   UNL     1      16.727  12.782  21.755  0.00  0.00    -0.380 OA
ATOM     27  C   UNL     1      16.578  12.700  20.344  0.00  0.00    +0.194 C 
ENDBRANCH  26   4
ENDBRANCH  25  26
ENDBRANCH   3  25
ENDBRANCH  21   3
ENDBRANCH  16  19
BRANCH  14   9
ATOM      5  N   UNL     1      12.407   8.783  18.066  0.00  0.00    -0.284 NA
ATOM      9  C   UNL     1      13.314   7.681  17.688  0.00  0.00    +0.146 C 
ATOM     10  C   UNL     1      14.001   8.163  16.398  0.00  0.00    +0.030 C 
ATOM     11  C   UNL     1      13.371   9.516  16.094  0.00  0.00    +0.017 C 
ATOM     12  C   UNL     1      12.044   9.463  16.822  0.00  0.00    +0.085 C 
BRANCH   5  13
ATOM     13  C   UNL     1      11.235   8.334  18.808  0.00  0.00    +0.159 C 
BRANCH  13  15
ATOM      2  O   UNL     1      10.575   8.072  21.136  0.00  0.00    -0.467 OA
ATOM     15  C   UNL     1      11.249   8.828  20.230  0.00  0.00    +0.119 A 
ATOM     17  C   UNL     1      11.817   9.922  20.841  0.00  0.00    +0.046 A 
ATOM     18  C   UNL     1      11.471   9.832  22.210  0.00  0.00    +0.041 A 
ATOM     20  C   UNL     1      10.715   8.690  22.339  0.00  0.00    +0.195 A 
ENDBRANCH  13  15
ENDBRANCH   5  13
ENDBRANCH  14   9
TORSDOF 8
ENDMDL
MODEL 4
REMARK VINA RESULT:      -5.7     26.148     28.938
REMARK  Name = 45783414
REMARK  9 active torsions:
REMARK  status: ('A' for Active; 'I' for Inactive)
REMARK    1  A    between atoms: O_3  and  C_21
REMARK    2  A    between atoms: O_3  and  C_25
REMARK    3  A    between atoms: O_4  and  C_26
REMARK    4  A    between atoms: O_4  and  C_27
REMARK    5  A    between atoms: N_5  and  C_13
REMARK    6  A    between atoms: C_9  and  C_14
REMARK    7  A    between atoms: C_13  and  C_15
REMARK    8  A    between atoms: C_16  and  C_19
REMARK    9  A    between atoms: C_25  and  C_26
REMARK                            x       y       z     vdW  Elec       q    Type
REMARK                         _______ _______ _______ _____ _____    ______ ____
ROOT
ATOM      1  O   UNL     1      -5.651 -12.396  15.357  0.00  0.00    -0.336 OA
ATOM      6  N   UNL     1      -5.647 -10.160  15.220  0.00  0.00    -0.190 NA
ATOM      7  N   UNL     1      -6.949 -11.983  15.685  0.00  0.00    -0.056 NA
ATOM     14  C   UNL     1      -4.950 -11.262  15.097  0.00  0.00    +0.245 A 
ATOM     16  C   UNL     1      -6.867 -10.653  15.582  0.00  0.00    +0.207 A 
ENDROOT
BRANCH  16  19
ATOM      8  N   UNL     1      -9.316  -8.499  17.386  0.00  0.00    -0.221 NA
ATOM     19  C   UNL     1      -7.984  -9.789  15.835  0.00  0.00    +0.084 A 
ATOM     21  C   UNL     1      -8.275  -9.315  17.103  0.00  0.00    +0.226 A 
ATOM     22  C   UNL     1      -8.814  -9.401  14.788  0.00  0.00    +0.018 A 
ATOM     23  C   UNL     1      -9.895  -8.563  15.039  0.00  0.00    +0.021 A 
ATOM     24  C   UNL     1     -10.100  -8.144  16.344  0.00  0.00    +0.114 A 
BRANCH  21   3
ATOM      3  O   UNL     1      -7.486  -9.669  18.167  0.00  0.00    -0.474 OA
BRANCH   3  25
ATOM     25  C   UNL     1      -7.963 -10.725  18.992  0.00  0.00    +0.258 C 
BRANCH  25  26
ATOM     26  C   UNL     1      -6.801 -11.628  19.361  0.00  0.00    +0.200 C 
BRANCH  26   4
ATOM      4  O   UNL     1      -5.590 -11.032  18.914  0.00  0.00    -0.380 OA
ATOM     27  C   UNL     1      -4.545 -11.990  18.813  0.00  0.00    +0.194 C 
ENDBRANCH  26   4
ENDBRANCH  25  26
ENDBRANCH   3  25
ENDBRANCH  21   3
ENDBRANCH  16  19
BRANCH  14   9
ATOM      5  N   UNL     1      -3.096 -10.565  13.591  0.00  0.00    -0.284 NA
ATOM      9  C   UNL     1      -3.496 -11.440  14.711  0.00  0.00    +0.146 C 
ATOM     10  C   UNL     1      -2.530 -11.080  15.854  0.00  0.00    +0.030 C 
ATOM     11  C   UNL     1      -1.585 -10.042  15.264  0.00  0.00    +0.017 C 
ATOM     12  C   UNL     1      -1.670 -10.290  13.772  0.00  0.00    +0.085 C 
BRANCH   5  13
ATOM     13  C   UNL     1      -3.381 -11.140  12.282  0.00  0.00    +0.159 C 
BRANCH  13  15
ATOM      2  O   UNL     1      -4.957  -9.373  11.715  0.00  0.00    -0.467 OA
ATOM     15  C   UNL     1      -3.883 -10.104  11.312  0.00  0.00    +0.119 A 
ATOM     17  C   UNL     1      -3.480  -9.717  10.056  0.00  0.00    +0.046 A 
ATOM     18  C   UNL     1      -4.360  -8.682   9.661  0.00  0.00    +0.041 A 
ATOM     20  C   UNL     1      -5.240  -8.510  10.704  0.00  0.00    +0.195 A 
ENDBRANCH  13  15
ENDBRANCH   5  13
ENDBRANCH  14   9
TORSDOF 8
ENDMDL
MODEL 5
REMARK VINA RESULT:      -5.6      2.044      3.495
REMARK  Name = 45783414
REMARK  9 active torsions:
REMARK  status: ('A' for Active; 'I' for Inactive)
REMARK    1  A    between atoms: O_3  and  C_21
REMARK    2  A    between atoms: O_3  and  C_25
REMARK    3  A    between atoms: O_4  and  C_26
REMARK    4  A    between atoms: O_4  and  C_27
REMARK    5  A    between atoms: N_5  and  C_13
REMARK    6  A    between atoms: C_9  and  C_14
REMARK    7  A    between atoms: C_13  and  C_15
REMARK    8  A    between atoms: C_16  and  C_19
REMARK    9  A    between atoms: C_25  and  C_26
REMARK                            x       y       z     vdW  Elec       q    Type
REMARK                         _______ _______ _______ _____ _____    ______ ____
ROOT
ATOM      1  O   UNL     1      15.173  11.386  20.925  0.00  0.00    -0.336 OA
ATOM      6  N   UNL     1      13.329  11.133  19.677  0.00  0.00    -0.190 NA
ATOM      7  N   UNL     1      15.593  10.809  19.719  0.00  0.00    -0.056 NA
ATOM     14  C   UNL     1      13.828  11.544  20.816  0.00  0.00    +0.245 A 
ATOM     16  C   UNL     1      14.451  10.691  19.037  0.00  0.00    +0.207 A 
ENDROOT
BRANCH  16  19
ATOM      8  N   UNL     1      14.011   8.240  16.264  0.00  0.00    -0.221 NA
ATOM     19  C   UNL     1      14.394  10.135  17.716  0.00  0.00    +0.084 A 
ATOM     21  C   UNL     1      14.077   8.805  17.490  0.00  0.00    +0.226 A 
ATOM     22  C   UNL     1      14.662  10.937  16.612  0.00  0.00    +0.018 A 
ATOM     23  C   UNL     1      14.605  10.393  15.334  0.00  0.00    +0.021 A 
ATOM     24  C   UNL     1      14.279   9.051  15.215  0.00  0.00    +0.114 A 
BRANCH  21   3
ATOM      3  O   UNL     1      13.804   7.975  18.547  0.00  0.00    -0.474 OA
BRANCH   3  25
ATOM     25  C   UNL     1      14.777   6.981  18.845  0.00  0.00    +0.258 C 
BRANCH  25  26
ATOM     26  C   UNL     1      15.281   7.191  20.261  0.00  0.00    +0.200 C 
BRANCH  26   4
ATOM      4  O   UNL     1      14.343   7.986  20.974  0.00  0.00    -0.380 OA
ATOM     27  C   UNL     1      14.720   8.141  22.336  0.00  0.00    +0.194 C 
ENDBRANCH  26   4
ENDBRANCH  25  26
ENDBRANCH   3  25
ENDBRANCH  21   3
ENDBRANCH  16  19
BRANCH  14   9
ATOM      5  N   UNL     1      12.452  11.149  22.851  0.00  0.00    -0.284 NA
ATOM      9  C   UNL     1      13.121  12.159  22.007  0.00  0.00    +0.146 C 
ATOM     10  C   UNL     1      14.086  12.888  22.959  0.00  0.00    +0.030 C 
ATOM     11  C   UNL     1      13.843  12.264  24.326  0.00  0.00    +0.017 C 
ATOM     12  C   UNL     1      12.447  11.687  24.212  0.00  0.00    +0.085 C 
BRANCH   5  13
ATOM     13  C   UNL     1      11.110  10.813  22.390  0.00  0.00    +0.159 C 
BRANCH  13  15
ATOM      2  O   UNL     1      10.972   8.413  22.774  0.00  0.00    -0.467 OA
ATOM     15  C   UNL     1      11.038   9.409  21.851  0.00  0.00    +0.119 A 
ATOM     17  C   UNL     1      11.024   8.890  20.578  0.00  0.00    +0.046 A 
ATOM     18  C   UNL     1      10.943   7.485  20.727  0.00  0.00    +0.041 A 
ATOM     20  C   UNL     1      10.914   7.245  22.081  0.00  0.00    +0.195 A 
ENDBRANCH  13  15
ENDBRANCH   5  13
ENDBRANCH  14   9
TORSDOF 8
ENDMDL
MODEL 6
REMARK VINA RESULT:      -5.5     14.693     18.465
REMARK  Name = 45783414
REMARK  9 active torsions:
REMARK  status: ('A' for Active; 'I' for Inactive)
REMARK    1  A    between atoms: O_3  and  C_21
REMARK    2  A    between atoms: O_3  and  C_25
REMARK    3  A    between atoms: O_4  and  C_26
REMARK    4  A    between atoms: O_4  and  C_27
REMARK    5  A    between atoms: N_5  and  C_13
REMARK    6  A    between atoms: C_9  and  C_14
REMARK    7  A    between atoms: C_13  and  C_15
REMARK    8  A    between atoms: C_16  and  C_19
REMARK    9  A    between atoms: C_25  and  C_26
REMARK                            x       y       z     vdW  Elec       q    Type
REMARK                         _______ _______ _______ _____ _____    ______ ____
ROOT
ATOM      1  O   UNL     1      11.012   4.635   3.797  0.00  0.00    -0.336 OA
ATOM      6  N   UNL     1      11.220   6.178   2.185  0.00  0.00    -0.190 NA
ATOM      7  N   UNL     1      10.834   3.958   2.582  0.00  0.00    -0.056 NA
ATOM     14  C   UNL     1      11.234   5.935   3.472  0.00  0.00    +0.245 A 
ATOM     16  C   UNL     1      10.970   4.934   1.681  0.00  0.00    +0.207 A 
ENDROOT
BRANCH  16  19
ATOM      8  N   UNL     1      11.658   3.603  -1.731  0.00  0.00    -0.221 NA
ATOM     19  C   UNL     1      10.863   4.702   0.269  0.00  0.00    +0.084 A 
ATOM     21  C   UNL     1      11.723   3.850  -0.404  0.00  0.00    +0.226 A 
ATOM     22  C   UNL     1       9.871   5.342  -0.467  0.00  0.00    +0.018 A 
ATOM     23  C   UNL     1       9.772   5.113  -1.835  0.00  0.00    +0.021 A 
ATOM     24  C   UNL     1      10.682   4.242  -2.414  0.00  0.00    +0.114 A 
BRANCH  21   3
ATOM      3  O   UNL     1      12.717   3.197   0.279  0.00  0.00    -0.474 OA
BRANCH   3  25
ATOM     25  C   UNL     1      14.027   3.740   0.174  0.00  0.00    +0.258 C 
BRANCH  25  26
ATOM     26  C   UNL     1      14.545   4.056   1.565  0.00  0.00    +0.200 C 
BRANCH  26   4
ATOM      4  O   UNL     1      15.124   5.355   1.560  0.00  0.00    -0.380 OA
ATOM     27  C   UNL     1      14.476   6.210   0.628  0.00  0.00    +0.194 C 
ENDBRANCH  26   4
ENDBRANCH  25  26
ENDBRANCH   3  25
ENDBRANCH  21   3
ENDBRANCH  16  19
BRANCH  14   9
ATOM      5  N   UNL     1      11.235   6.254   5.940  0.00  0.00    -0.284 NA
ATOM      9  C   UNL     1      11.461   6.890   4.626  0.00  0.00    +0.146 C 
ATOM     10  C   UNL     1      12.906   7.415   4.689  0.00  0.00    +0.030 C 
ATOM     11  C   UNL     1      13.389   7.085   6.094  0.00  0.00    +0.017 C 
ATOM     12  C   UNL     1      12.107   6.947   6.889  0.00  0.00    +0.085 C 
BRANCH   5  13
ATOM     13  C   UNL     1       9.839   6.280   6.359  0.00  0.00    +0.159 C 
BRANCH  13  15
ATOM      2  O   UNL     1       9.118   6.182   8.682  0.00  0.00    -0.467 OA
ATOM     15  C   UNL     1       9.618   5.492   7.623  0.00  0.00    +0.119 A 
ATOM     17  C   UNL     1       9.820   4.173   7.957  0.00  0.00    +0.046 A 
ATOM     18  C   UNL     1       9.416   4.044   9.307  0.00  0.00    +0.041 A 
ATOM     20  C   UNL     1       8.997   5.293   9.703  0.00  0.00    +0.195 A 
ENDBRANCH  13  15
ENDBRANCH   5  13
ENDBRANCH  14   9
TORSDOF 8
ENDMDL
MODEL 7
REMARK VINA RESULT:      -5.5     14.369     18.238
REMARK  Name = 45783414
REMARK  9 active torsions:
REMARK  status: ('A' for Active; 'I' for Inactive)
REMARK    1  A    between atoms: O_3  and  C_21
REMARK    2  A    between atoms: O_3  and  C_25
REMARK    3  A    between atoms: O_4  and  C_26
REMARK    4  A    between atoms: O_4  and  C_27
REMARK    5  A    between atoms: N_5  and  C_13
REMARK    6  A    between atoms: C_9  and  C_14
REMARK    7  A    between atoms: C_13  and  C_15
REMARK    8  A    between atoms: C_16  and  C_19
REMARK    9  A    between atoms: C_25  and  C_26
REMARK                            x       y       z     vdW  Elec       q    Type
REMARK                         _______ _______ _______ _____ _____    ______ ____
ROOT
ATOM      1  O   UNL     1      11.432   6.760   3.849  0.00  0.00    -0.336 OA
ATOM      6  N   UNL     1      10.698   4.705   3.345  0.00  0.00    -0.190 NA
ATOM      7  N   UNL     1      11.838   6.513   2.531  0.00  0.00    -0.056 NA
ATOM     14  C   UNL     1      10.768   5.646   4.253  0.00  0.00    +0.245 A 
ATOM     16  C   UNL     1      11.368   5.283   2.306  0.00  0.00    +0.207 A 
ENDROOT
BRANCH  16  19
ATOM      8  N   UNL     1      12.788   3.029  -0.300  0.00  0.00    -0.221 NA
ATOM     19  C   UNL     1      11.552   4.602   1.057  0.00  0.00    +0.084 A 
ATOM     21  C   UNL     1      12.579   3.693   0.858  0.00  0.00    +0.226 A 
ATOM     22  C   UNL     1      10.684   4.846  -0.002  0.00  0.00    +0.018 A 
ATOM     23  C   UNL     1      10.867   4.183  -1.210  0.00  0.00    +0.021 A 
ATOM     24  C   UNL     1      11.925   3.293  -1.307  0.00  0.00    +0.114 A 
BRANCH  21   3
ATOM      3  O   UNL     1      13.459   3.419   1.873  0.00  0.00    -0.474 OA
BRANCH   3  25
ATOM     25  C   UNL     1      14.834   3.666   1.609  0.00  0.00    +0.258 C 
BRANCH  25  26
ATOM     26  C   UNL     1      15.065   5.164   1.542  0.00  0.00    +0.200 C 
BRANCH  26   4
ATOM      4  O   UNL     1      15.523   5.505   0.239  0.00  0.00    -0.380 OA
ATOM     27  C   UNL     1      14.646   6.424  -0.397  0.00  0.00    +0.194 C 
ENDBRANCH  26   4
ENDBRANCH  25  26
ENDBRANCH   3  25
ENDBRANCH  21   3
ENDBRANCH  16  19
BRANCH  14   9
ATOM      5  N   UNL     1      10.800   6.742   6.486  0.00  0.00    -0.284 NA
ATOM      9  C   UNL     1      10.219   5.662   5.664  0.00  0.00    +0.146 C 
ATOM     10  C   UNL     1       8.700   5.910   5.710  0.00  0.00    +0.030 C 
ATOM     11  C   UNL     1       8.520   7.109   6.630  0.00  0.00    +0.017 C 
ATOM     12  C   UNL     1       9.780   7.107   7.470  0.00  0.00    +0.085 C 
BRANCH   5  13
ATOM     13  C   UNL     1      12.061   6.370   7.116  0.00  0.00    +0.159 C 
BRANCH  13  15
ATOM      2  O   UNL     1      12.856   8.664   6.941  0.00  0.00    -0.467 OA
ATOM     15  C   UNL     1      13.160   7.348   6.792  0.00  0.00    +0.119 A 
ATOM     17  C   UNL     1      14.457   7.196   6.360  0.00  0.00    +0.046 A 
ATOM     18  C   UNL     1      14.985   8.504   6.237  0.00  0.00    +0.041 A 
ATOM     20  C   UNL     1      13.973   9.361   6.601  0.00  0.00    +0.195 A 
ENDBRANCH  13  15
ENDBRANCH   5  13
ENDBRANCH  14   9
TORSDOF 8
ENDMDL
MODEL 8
REMARK VINA RESULT:      -5.4     26.279     29.014
REMARK  Name = 45783414
REMARK  9 active torsions:
REMARK  status: ('A' for Active; 'I' for Inactive)
REMARK    1  A    between atoms: O_3  and  C_21
REMARK    2  A    between atoms: O_3  and  C_25
REMARK    3  A    between atoms: O_4  and  C_26
REMARK    4  A    between atoms: O_4  and  C_27
REMARK    5  A    between atoms: N_5  and  C_13
REMARK    6  A    between atoms: C_9  and  C_14
REMARK    7  A    between atoms: C_13  and  C_15
REMARK    8  A    between atoms: C_16  and  C_19
REMARK    9  A    between atoms: C_25  and  C_26
REMARK                            x       y       z     vdW  Elec       q    Type
REMARK                         _______ _______ _______ _____ _____    ______ ____
ROOT
ATOM      1  O   UNL     1      -5.093  -9.720  16.212  0.00  0.00    -0.336 OA
ATOM      6  N   UNL     1      -5.343 -11.798  17.009  0.00  0.00    -0.190 NA
ATOM      7  N   UNL     1      -6.260  -9.703  16.988  0.00  0.00    -0.056 NA
ATOM     14  C   UNL     1      -4.617 -10.990  16.279  0.00  0.00    +0.245 A 
ATOM     16  C   UNL     1      -6.340 -10.963  17.424  0.00  0.00    +0.207 A 
ENDROOT
BRANCH  16  19
ATOM      8  N   UNL     1      -9.683 -11.230  19.048  0.00  0.00    -0.221 NA
ATOM     19  C   UNL     1      -7.402 -11.421  18.272  0.00  0.00    +0.084 A 
ATOM     21  C   UNL     1      -8.655 -10.831  18.267  0.00  0.00    +0.226 A 
ATOM     22  C   UNL     1      -7.189 -12.490  19.136  0.00  0.00    +0.018 A 
ATOM     23  C   UNL     1      -8.223 -12.930  19.956  0.00  0.00    +0.021 A 
ATOM     24  C   UNL     1      -9.440 -12.271  19.875  0.00  0.00    +0.114 A 
BRANCH  21   3
ATOM      3  O   UNL     1      -8.912  -9.774  17.432  0.00  0.00    -0.474 OA
BRANCH   3  25
ATOM     25  C   UNL     1     -10.163  -9.118  17.599  0.00  0.00    +0.258 C 
BRANCH  25  26
ATOM     26  C   UNL     1     -10.029  -7.674  17.155  0.00  0.00    +0.200 C 
BRANCH  26   4
ATOM      4  O   UNL     1     -11.203  -7.295  16.446  0.00  0.00    -0.380 OA
ATOM     27  C   UNL     1     -11.043  -6.035  15.809  0.00  0.00    +0.194 C 
ENDBRANCH  26   4
ENDBRANCH  25  26
ENDBRANCH   3  25
ENDBRANCH  21   3
ENDBRANCH  16  19
BRANCH  14   9
ATOM      5  N   UNL     1      -3.254 -10.505  14.254  0.00  0.00    -0.284 NA
ATOM      9  C   UNL     1      -3.342 -11.274  15.511  0.00  0.00    +0.146 C 
ATOM     10  C   UNL     1      -2.076 -10.885  16.296  0.00  0.00    +0.030 C 
ATOM     11  C   UNL     1      -1.310  -9.945  15.376  0.00  0.00    +0.017 C 
ATOM     12  C   UNL     1      -1.830 -10.295  13.997  0.00  0.00    +0.085 C 
BRANCH   5  13
ATOM     13  C   UNL     1      -3.923 -11.157  13.134  0.00  0.00    +0.159 C 
BRANCH  13  15
ATOM      2  O   UNL     1      -4.984  -9.403  11.821  0.00  0.00    -0.467 OA
ATOM     15  C   UNL     1      -3.950 -10.281  11.910  0.00  0.00    +0.119 A 
ATOM     17  C   UNL     1      -3.125 -10.168  10.815  0.00  0.00    +0.046 A 
ATOM     18  C   UNL     1      -3.687  -9.155  10.002  0.00  0.00    +0.041 A 
ATOM     20  C   UNL     1      -4.816  -8.722  10.657  0.00  0.00    +0.195 A 
ENDBRANCH  13  15
ENDBRANCH   5  13
ENDBRANCH  14   9
TORSDOF 8
ENDMDL
MODEL 9
REMARK VINA RESULT:      -5.4     26.460     28.601
REMARK  Name = 45783414
REMARK  9 active torsions:
REMARK  status: ('A' for Active; 'I' for Inactive)
REMARK    1  A    between atoms: O_3  and  C_21
REMARK    2  A    between atoms: O_3  and  C_25
REMARK    3  A    between atoms: O_4  and  C_26
REMARK    4  A    between atoms: O_4  and  C_27
REMARK    5  A    between atoms: N_5  and  C_13
REMARK    6  A    between atoms: C_9  and  C_14
REMARK    7  A    between atoms: C_13  and  C_15
REMARK    8  A    between atoms: C_16  and  C_19
REMARK    9  A    between atoms: C_25  and  C_26
REMARK                            x       y       z     vdW  Elec       q    Type
REMARK                         _______ _______ _______ _____ _____    ______ ____
ROOT
ATOM      1  O   UNL     1      -2.000 -10.316  14.568  0.00  0.00    -0.336 OA
ATOM      6  N   UNL     1      -4.106 -11.067  14.704  0.00  0.00    -0.190 NA
ATOM      7  N   UNL     1      -2.335 -10.294  15.928  0.00  0.00    -0.056 NA
ATOM     14  C   UNL     1      -3.097 -10.785  13.918  0.00  0.00    +0.245 A 
ATOM     16  C   UNL     1      -3.591 -10.749  15.927  0.00  0.00    +0.207 A 
ENDROOT
BRANCH  16  19
ATOM      8  N   UNL     1      -6.346 -10.400  18.413  0.00  0.00    -0.221 NA
ATOM     19  C   UNL     1      -4.359 -10.899  17.130  0.00  0.00    +0.084 A 
ATOM     21  C   UNL     1      -5.590 -10.285  17.298  0.00  0.00    +0.226 A 
ATOM     22  C   UNL     1      -3.872 -11.680  18.173  0.00  0.00    +0.018 A 
ATOM     23  C   UNL     1      -4.621 -11.822  19.336  0.00  0.00    +0.021 A 
ATOM     24  C   UNL     1      -5.841 -11.166  19.405  0.00  0.00    +0.114 A 
BRANCH  21   3
ATOM      3  O   UNL     1      -6.111  -9.506  16.298  0.00  0.00    -0.474 OA
BRANCH   3  25
ATOM     25  C   UNL     1      -7.470  -9.738  15.950  0.00  0.00    +0.258 C 
BRANCH  25  26
ATOM     26  C   UNL     1      -7.555 -10.060  14.470  0.00  0.00    +0.200 C 
BRANCH  26   4
ATOM      4  O   UNL     1      -8.793  -9.579  13.962  0.00  0.00    -0.380 OA
ATOM     27  C   UNL     1      -9.368 -10.496  13.041  0.00  0.00    +0.194 C 
ENDBRANCH  26   4
ENDBRANCH  25  26
ENDBRANCH   3  25
ENDBRANCH  21   3
ENDBRANCH  16  19
BRANCH  14   9
ATOM      5  N   UNL     1      -4.088 -10.214  11.708  0.00  0.00    -0.284 NA
ATOM      9  C   UNL     1      -2.990 -10.907  12.412  0.00  0.00    +0.146 C 
ATOM     10  C   UNL     1      -1.705 -10.270  11.854  0.00  0.00    +0.030 C 
ATOM     11  C   UNL     1      -2.177  -9.278  10.800  0.00  0.00    +0.017 C 
ATOM     12  C   UNL     1      -3.549  -9.793  10.415  0.00  0.00    +0.085 C 
BRANCH   5  13
ATOM     13  C   UNL     1      -5.285 -11.034  11.563  0.00  0.00    +0.159 C 
BRANCH  13  15
ATOM      2  O   UNL     1      -6.793  -9.187  11.075  0.00  0.00    -0.467 OA
ATOM     15  C   UNL     1      -6.303 -10.386  10.663  0.00  0.00    +0.119 A 
ATOM     17  C   UNL     1      -6.872 -10.754   9.466  0.00  0.00    +0.046 A 
ATOM     18  C   UNL     1      -7.767  -9.715   9.120  0.00  0.00    +0.041 A 
ATOM     20  C   UNL     1      -7.683  -8.785  10.129  0.00  0.00    +0.195 A 
ENDBRANCH  13  15
ENDBRANCH   5  13
ENDBRANCH  14   9
TORSDOF 8
ENDMDL
MODEL 10
REMARK VINA RESULT:      -5.4     26.357     28.643
REMARK  Name = 45783414
REMARK  9 active torsions:
REMARK  status: ('A' for Active; 'I' for Inactive)
REMARK    1  A    between atoms: O_3  and  C_21
REMARK    2  A    between atoms: O_3  and  C_25
REMARK    3  A    between atoms: O_4  and  C_26
REMARK    4  A    between atoms: O_4  and  C_27
REMARK    5  A    between atoms: N_5  and  C_13
REMARK    6  A    between atoms: C_9  and  C_14
REMARK    7  A    between atoms: C_13  and  C_15
REMARK    8  A    between atoms: C_16  and  C_19
REMARK    9  A    between atoms: C_25  and  C_26
REMARK                            x       y       z     vdW  Elec       q    Type
REMARK                         _______ _______ _______ _____ _____    ______ ____
ROOT
ATOM      1  O   UNL     1      -6.335 -12.323  17.514  0.00  0.00    -0.336 OA
ATOM      6  N   UNL     1      -5.551 -10.256  17.147  0.00  0.00    -0.190 NA
ATOM      7  N   UNL     1      -5.192 -12.474  16.718  0.00  0.00    -0.056 NA
ATOM     14  C   UNL     1      -6.474 -10.987  17.720  0.00  0.00    +0.245 A 
ATOM     16  C   UNL     1      -4.787 -11.213  16.544  0.00  0.00    +0.207 A 
ENDROOT
BRANCH  16  19
ATOM      8  N   UNL     1      -2.617 -10.335  13.644  0.00  0.00    -0.221 NA
ATOM     19  C   UNL     1      -3.625 -10.874  15.774  0.00  0.00    +0.084 A 
ATOM     21  C   UNL     1      -3.685 -10.656  14.407  0.00  0.00    +0.226 A 
ATOM     22  C   UNL     1      -2.387 -10.755  16.399  0.00  0.00    +0.018 A 
ATOM     23  C   UNL     1      -1.265 -10.426  15.647  0.00  0.00    +0.021 A 
ATOM     24  C   UNL     1      -1.432 -10.229  14.285  0.00  0.00    +0.114 A 
BRANCH  21   3
ATOM      3  O   UNL     1      -4.883 -10.762  13.748  0.00  0.00    -0.474 OA
BRANCH   3  25
ATOM     25  C   UNL     1      -4.891 -10.387  12.376  0.00  0.00    +0.258 C 
BRANCH  25  26
ATOM     26  C   UNL     1      -5.935  -9.308  12.163  0.00  0.00    +0.200 C 
BRANCH  26   4
ATOM      4  O   UNL     1      -5.509  -8.451  11.111  0.00  0.00    -0.380 OA
ATOM     27  C   UNL     1      -4.358  -8.965  10.456  0.00  0.00    +0.194 C 
ENDBRANCH  26   4
ENDBRANCH  25  26
ENDBRANCH   3  25
ENDBRANCH  21   3
ENDBRANCH  16  19
BRANCH  14   9
ATOM      5  N   UNL     1      -8.784 -10.062  17.751  0.00  0.00    -0.284 NA
ATOM      9  C   UNL     1      -7.654 -10.553  18.565  0.00  0.00    +0.146 C 
ATOM     10  C   UNL     1      -8.244 -11.705  19.398  0.00  0.00    +0.030 C 
ATOM     11  C   UNL     1      -9.721 -11.746  19.032  0.00  0.00    +0.017 C 
ATOM     12  C   UNL     1      -9.998 -10.350  18.514  0.00  0.00    +0.085 C 
BRANCH   5  13
ATOM     13  C   UNL     1      -8.673  -8.650  17.407  0.00  0.00    +0.159 C 
BRANCH  13  15
ATOM      2  O   UNL     1     -10.010  -8.802  15.378  0.00  0.00    -0.467 OA
ATOM     15  C   UNL     1      -9.838  -8.182  16.576  0.00  0.00    +0.119 A 
ATOM     17  C   UNL     1     -10.808  -7.226  16.769  0.00  0.00    +0.046 A 
ATOM     18  C   UNL     1     -11.629  -7.261  15.616  0.00  0.00    +0.041 A 
ATOM     20  C   UNL     1     -11.102  -8.235  14.801  0.00  0.00    +0.195 A 
ENDBRANCH  13  15
ENDBRANCH   5  13
ENDBRANCH  14   9
TORSDOF 8
ENDMDL
