REMARK  Name = 38027302
REMARK  11 active torsions:
REMARK  status: ('A' for Active; 'I' for Inactive)
REMARK    1  A    between atoms: N_3  and  C_15
REMARK    2  A    between atoms: N_4  and  C_14
REMARK    3  A    between atoms: C_6  and  C_10
REMARK    4  A    between atoms: C_7  and  C_14
REMARK    5  A    between atoms: C_9  and  C_13
REMARK    6  A    between atoms: C_10  and  C_16
REMARK    7  A    between atoms: C_10  and  C_17
REMARK    8  A    between atoms: C_11  and  C_20
REMARK    9  A    between atoms: C_13  and  C_21
REMARK   10  A    between atoms: C_24  and  C_25
REMARK   11  A    between atoms: C_30  and  C_31
REMARK                            x       y       z     vdW  Elec       q    Type
REMARK                         _______ _______ _______ _____ _____    ______ ____
ROOT
ATOM      6  C   UNL     1      -2.424  -1.077   0.638  0.00  0.00    +0.000 C 
ATOM      7  C   UNL     1      -2.356  -2.537   0.124  0.00  0.00    +0.032 C 
ATOM      8  C   UNL     1      -3.273  -0.214  -0.308  0.00  0.00    +0.012 C 
ATOM      9  C   UNL     1      -2.714  -0.201  -1.743  0.00  0.00    +0.023 C 
ATOM     11  C   UNL     1      -2.368  -1.595  -2.226  0.00  0.00    -0.073 C 
ATOM     12  C   UNL     1      -2.226  -2.629  -1.379  0.00  0.00    -0.022 C 
ATOM     20  C   UNL     1      -2.235  -1.783  -3.712  0.00  0.00    +0.039 C 
ENDROOT
BRANCH   6  10
ATOM     10  C   UNL     1      -2.991  -1.001   2.059  0.00  0.00    -0.013 C 
ATOM     16  C   UNL     1      -2.512   0.270   2.755  0.00  0.00    +0.007 C 
ATOM     17  C   UNL     1      -4.514  -1.059   2.028  0.00  0.00    +0.007 C 
ENDBRANCH   6  10
BRANCH   9  13
ATOM     13  C   UNL     1      -1.505   0.735  -1.857  0.00  0.00    +0.103 C 
BRANCH  13  21
ATOM      1  O   UNL     1      -2.929   2.644  -1.433  0.00  0.00    -0.276 OA
ATOM      3  N   UNL     1      -0.687   2.732  -0.828  0.00  0.00    -0.312 N 
ATOM     21  C   UNL     1      -1.817   2.129  -1.362  0.00  0.00    +0.214 C 
ATOM     32  H   UNL     1       0.179   2.203  -0.779  0.00  0.00    +0.149 HD
BRANCH   3  15
ATOM     15  C   UNL     1      -0.690   4.066  -0.282  0.00  0.00    +0.073 C 
ATOM     18  C   UNL     1       0.682   4.720  -0.386  0.00  0.00    +0.022 C 
ATOM     19  C   UNL     1      -0.950   4.066   1.220  0.00  0.00    +0.022 C 
ATOM     22  C   UNL     1       1.459   4.175   0.809  0.00  0.00    +0.002 C 
ATOM     23  C   UNL     1       0.412   3.795   1.857  0.00  0.00    +0.002 C 
ENDBRANCH   3  15
ENDBRANCH  13  21
ENDBRANCH   9  13
BRANCH   7  14
ATOM     14  C   UNL     1      -1.205  -3.304   0.784  0.00  0.00    +0.112 C 
BRANCH  14   4
ATOM      2  O   UNL     1       0.790  -2.183   2.519  0.00  0.00    -0.270 OA
ATOM      4  N   UNL     1       0.058  -2.759   0.394  0.00  0.00    -0.311 N 
ATOM     24  C   UNL     1       0.972  -2.232   1.306  0.00  0.00    +0.244 C 
ATOM     33  H   UNL     1       0.273  -2.759  -0.597  0.00  0.00    +0.149 HD
BRANCH  24  25
ATOM     25  C   UNL     1       2.228  -1.680   0.737  0.00  0.00    +0.037 A 
ATOM     26  C   UNL     1       2.917  -0.673   1.414  0.00  0.00    +0.014 A 
ATOM     27  C   UNL     1       2.720  -2.168  -0.474  0.00  0.00    +0.014 A 
ATOM     28  C   UNL     1       4.097  -0.155   0.881  0.00  0.00    +0.019 A 
ATOM     29  C   UNL     1       3.900  -1.649  -1.007  0.00  0.00    +0.019 A 
ATOM     30  C   UNL     1       4.588  -0.643  -0.330  0.00  0.00    +0.052 A 
BRANCH  30  31
ATOM      5  N   UNL     1       6.778   0.321  -1.321  0.00  0.00    -0.191 NA
ATOM     31  C   UNL     1       5.797  -0.111  -0.877  0.00  0.00    +0.099 C 
ENDBRANCH  30  31
ENDBRANCH  24  25
ENDBRANCH  14   4
ENDBRANCH   7  14
TORSDOF 8
