MODEL 1
REMARK VINA RESULT:      -6.0      0.000      0.000
REMARK  Name = 75537115
REMARK  5 active torsions:
REMARK  status: ('A' for Active; 'I' for Inactive)
REMARK    1  A    between atoms: O_2  and  C_18
REMARK    2  A    between atoms: O_2  and  C_20
REMARK    3  A    between atoms: N_4  and  C_13
REMARK    4  A    between atoms: N_5  and  C_14
REMARK    5  A    between atoms: C_13  and  C_15
REMARK                            x       y       z     vdW  Elec       q    Type
REMARK                         _______ _______ _______ _____ _____    ______ ____
ROOT
ATOM      1  O   UNL     1      10.678  11.875  25.624  0.00  0.00    -0.252 OA
ATOM      3  N   UNL     1      11.681  10.940  23.716  0.00  0.00    -0.278 N 
ATOM      4  N   UNL     1      12.377   9.004  21.798  0.00  0.00    -0.293 NA
ATOM      5  N   UNL     1      12.926  12.271  25.029  0.00  0.00    -0.287 N 
ATOM      7  C   UNL     1      12.940  11.069  23.013  0.00  0.00    +0.109 C 
ATOM      8  C   UNL     1      13.438   9.698  22.557  0.00  0.00    +0.109 C 
ATOM      9  C   UNL     1      13.845  11.779  24.018  0.00  0.00    +0.132 C 
ATOM     10  C   UNL     1      10.618  10.151  23.129  0.00  0.00    +0.125 C 
ATOM     11  C   UNL     1      11.172   8.814  22.632  0.00  0.00    +0.104 C 
ATOM     12  C   UNL     1      11.638  11.718  24.881  0.00  0.00    +0.305 C 
ATOM     14  C   UNL     1      13.367  13.106  26.125  0.00  0.00    +0.133 C 
ENDROOT
BRANCH   4  13
ATOM     13  C   UNL     1      12.864   7.716  21.305  0.00  0.00    +0.140 C 
BRANCH  13  15
ATOM      6  N   UNL     1      11.997   7.711  19.032  0.00  0.00    -0.217 NA
ATOM     15  C   UNL     1      13.097   7.737  19.818  0.00  0.00    +0.059 A 
ATOM     16  C   UNL     1      14.394   7.782  19.335  0.00  0.00    +0.025 A 
ATOM     17  C   UNL     1      14.576   7.803  17.956  0.00  0.00    +0.007 A 
ATOM     18  C   UNL     1      12.212   7.732  17.698  0.00  0.00    +0.215 A 
ATOM     19  C   UNL     1      13.469   7.777  17.115  0.00  0.00    +0.067 A 
BRANCH  18   2
ATOM      2  O   UNL     1      11.106   7.707  16.890  0.00  0.00    -0.480 OA
ATOM     20  C   UNL     1      10.816   8.896  16.165  0.00  0.00    +0.279 C 
ENDBRANCH  18   2
ENDBRANCH  13  15
ENDBRANCH   4  13
TORSDOF 3
ENDMDL
MODEL 2
REMARK VINA RESULT:      -5.5     28.957     30.489
REMARK  Name = 75537115
REMARK  5 active torsions:
REMARK  status: ('A' for Active; 'I' for Inactive)
REMARK    1  A    between atoms: O_2  and  C_18
REMARK    2  A    between atoms: O_2  and  C_20
REMARK    3  A    between atoms: N_4  and  C_13
REMARK    4  A    between atoms: N_5  and  C_14
REMARK    5  A    between atoms: C_13  and  C_15
REMARK                            x       y       z     vdW  Elec       q    Type
REMARK                         _______ _______ _______ _____ _____    ______ ____
ROOT
ATOM      1  O   UNL     1     -17.589   2.907  21.877  0.00  0.00    -0.252 OA
ATOM      3  N   UNL     1     -16.772   2.634  24.063  0.00  0.00    -0.278 N 
ATOM      4  N   UNL     1     -16.795   2.129  26.830  0.00  0.00    -0.293 NA
ATOM      5  N   UNL     1     -16.028   4.378  22.860  0.00  0.00    -0.287 N 
ATOM      7  C   UNL     1     -15.758   3.244  24.897  0.00  0.00    +0.109 C 
ATOM      8  C   UNL     1     -16.275   3.416  26.325  0.00  0.00    +0.109 C 
ATOM      9  C   UNL     1     -15.429   4.548  24.172  0.00  0.00    +0.132 C 
ATOM     10  C   UNL     1     -17.456   1.447  24.533  0.00  0.00    +0.125 C 
ATOM     11  C   UNL     1     -17.903   1.640  25.984  0.00  0.00    +0.104 C 
ATOM     12  C   UNL     1     -16.883   3.258  22.814  0.00  0.00    +0.305 C 
ATOM     14  C   UNL     1     -15.856   5.355  21.806  0.00  0.00    +0.133 C 
ENDROOT
BRANCH   4  13
ATOM     13  C   UNL     1     -17.237   2.268  28.217  0.00  0.00    +0.140 C 
BRANCH  13  15
ATOM      6  N   UNL     1     -15.715   0.575  29.075  0.00  0.00    -0.217 NA
ATOM     15  C   UNL     1     -16.170   1.842  29.191  0.00  0.00    +0.059 A 
ATOM     16  C   UNL     1     -15.715   2.746  30.136  0.00  0.00    +0.025 A 
ATOM     17  C   UNL     1     -14.727   2.323  31.020  0.00  0.00    +0.007 A 
ATOM     18  C   UNL     1     -14.756   0.198  29.950  0.00  0.00    +0.215 A 
ATOM     19  C   UNL     1     -14.233   1.026  30.931  0.00  0.00    +0.067 A 
BRANCH  18   2
ATOM      2  O   UNL     1     -14.285  -1.083  29.842  0.00  0.00    -0.480 OA
ATOM     20  C   UNL     1     -13.087  -1.265  29.095  0.00  0.00    +0.279 C 
ENDBRANCH  18   2
ENDBRANCH  13  15
ENDBRANCH   4  13
TORSDOF 3
ENDMDL
MODEL 3
REMARK VINA RESULT:      -5.4      1.575      2.385
REMARK  Name = 75537115
REMARK  5 active torsions:
REMARK  status: ('A' for Active; 'I' for Inactive)
REMARK    1  A    between atoms: O_2  and  C_18
REMARK    2  A    between atoms: O_2  and  C_20
REMARK    3  A    between atoms: N_4  and  C_13
REMARK    4  A    between atoms: N_5  and  C_14
REMARK    5  A    between atoms: C_13  and  C_15
REMARK                            x       y       z     vdW  Elec       q    Type
REMARK                         _______ _______ _______ _____ _____    ______ ____
ROOT
ATOM      1  O   UNL     1      13.340  14.601  24.023  0.00  0.00    -0.252 OA
ATOM      3  N   UNL     1      12.562  12.390  23.861  0.00  0.00    -0.278 N 
ATOM      4  N   UNL     1      11.680   9.998  22.673  0.00  0.00    -0.293 NA
ATOM      5  N   UNL     1      11.633  13.734  25.401  0.00  0.00    -0.287 N 
ATOM      7  C   UNL     1      11.662  11.529  24.599  0.00  0.00    +0.109 C 
ATOM      8  C   UNL     1      10.811  10.699  23.639  0.00  0.00    +0.109 C 
ATOM      9  C   UNL     1      10.876  12.497  25.481  0.00  0.00    +0.132 C 
ATOM     10  C   UNL     1      13.355  11.831  22.786  0.00  0.00    +0.125 C 
ATOM     11  C   UNL     1      12.476  10.961  21.884  0.00  0.00    +0.104 C 
ATOM     12  C   UNL     1      12.608  13.689  24.384  0.00  0.00    +0.305 C 
ATOM     14  C   UNL     1      11.286  14.898  26.189  0.00  0.00    +0.133 C 
ENDROOT
BRANCH   4  13
ATOM     13  C   UNL     1      10.880   9.153  21.787  0.00  0.00    +0.140 C 
BRANCH  13  15
ATOM      6  N   UNL     1      11.359   8.277  19.569  0.00  0.00    -0.217 NA
ATOM     15  C   UNL     1      11.741   8.333  20.864  0.00  0.00    +0.059 A 
ATOM     16  C   UNL     1      12.859   7.691  21.371  0.00  0.00    +0.025 A 
ATOM     17  C   UNL     1      13.635   6.943  20.492  0.00  0.00    +0.007 A 
ATOM     18  C   UNL     1      12.137   7.541  18.744  0.00  0.00    +0.215 A 
ATOM     19  C   UNL     1      13.274   6.862  19.152  0.00  0.00    +0.067 A 
BRANCH  18   2
ATOM      2  O   UNL     1      11.761   7.477  17.428  0.00  0.00    -0.480 OA
ATOM     20  C   UNL     1      11.013   8.576  16.922  0.00  0.00    +0.279 C 
ENDBRANCH  18   2
ENDBRANCH  13  15
ENDBRANCH   4  13
TORSDOF 3
ENDMDL
MODEL 4
REMARK VINA RESULT:      -5.4     28.964     30.595
REMARK  Name = 75537115
REMARK  5 active torsions:
REMARK  status: ('A' for Active; 'I' for Inactive)
REMARK    1  A    between atoms: O_2  and  C_18
REMARK    2  A    between atoms: O_2  and  C_20
REMARK    3  A    between atoms: N_4  and  C_13
REMARK    4  A    between atoms: N_5  and  C_14
REMARK    5  A    between atoms: C_13  and  C_15
REMARK                            x       y       z     vdW  Elec       q    Type
REMARK                         _______ _______ _______ _____ _____    ______ ____
ROOT
ATOM      1  O   UNL     1     -15.673  -0.372  30.150  0.00  0.00    -0.252 OA
ATOM      3  N   UNL     1     -15.174   1.779  30.953  0.00  0.00    -0.278 N 
ATOM      4  N   UNL     1     -15.054   3.955  32.732  0.00  0.00    -0.293 NA
ATOM      5  N   UNL     1     -15.990   1.585  28.870  0.00  0.00    -0.287 N 
ATOM      7  C   UNL     1     -15.126   3.123  30.417  0.00  0.00    +0.109 C 
ATOM      8  C   UNL     1     -15.711   4.118  31.419  0.00  0.00    +0.109 C 
ATOM      9  C   UNL     1     -15.890   3.016  29.099  0.00  0.00    +0.132 C 
ATOM     10  C   UNL     1     -14.692   1.534  32.297  0.00  0.00    +0.125 C 
ATOM     11  C   UNL     1     -15.254   2.587  33.255  0.00  0.00    +0.104 C 
ATOM     12  C   UNL     1     -15.615   0.843  30.009  0.00  0.00    +0.305 C 
ATOM     14  C   UNL     1     -16.559   1.040  27.656  0.00  0.00    +0.133 C 
ENDROOT
BRANCH   4  13
ATOM     13  C   UNL     1     -15.564   4.942  33.683  0.00  0.00    +0.140 C 
BRANCH  13  15
ATOM      6  N   UNL     1     -14.004   6.071  35.169  0.00  0.00    -0.217 NA
ATOM     15  C   UNL     1     -14.566   6.040  33.940  0.00  0.00    +0.059 A 
ATOM     16  C   UNL     1     -14.276   6.944  32.931  0.00  0.00    +0.025 A 
ATOM     17  C   UNL     1     -13.348   7.945  33.201  0.00  0.00    +0.007 A 
ATOM     18  C   UNL     1     -13.108   7.058  35.395  0.00  0.00    +0.215 A 
ATOM     19  C   UNL     1     -12.749   8.009  34.454  0.00  0.00    +0.067 A 
BRANCH  18   2
ATOM      2  O   UNL     1     -12.530   7.100  36.636  0.00  0.00    -0.480 OA
ATOM     20  C   UNL     1     -11.356   7.893  36.770  0.00  0.00    +0.279 C 
ENDBRANCH  18   2
ENDBRANCH  13  15
ENDBRANCH   4  13
TORSDOF 3
ENDMDL
MODEL 5
REMARK VINA RESULT:      -5.3     26.317     27.637
REMARK  Name = 75537115
REMARK  5 active torsions:
REMARK  status: ('A' for Active; 'I' for Inactive)
REMARK    1  A    between atoms: O_2  and  C_18
REMARK    2  A    between atoms: O_2  and  C_20
REMARK    3  A    between atoms: N_4  and  C_13
REMARK    4  A    between atoms: N_5  and  C_14
REMARK    5  A    between atoms: C_13  and  C_15
REMARK                            x       y       z     vdW  Elec       q    Type
REMARK                         _______ _______ _______ _____ _____    ______ ____
ROOT
ATOM      1  O   UNL     1      -8.082 -10.887  19.948  0.00  0.00    -0.252 OA
ATOM      3  N   UNL     1      -6.628 -11.223  18.132  0.00  0.00    -0.278 N 
ATOM      4  N   UNL     1      -4.219 -11.346  16.686  0.00  0.00    -0.293 NA
ATOM      5  N   UNL     1      -8.544 -10.107  17.770  0.00  0.00    -0.287 N 
ATOM      7  C   UNL     1      -6.656 -11.004  16.701  0.00  0.00    +0.109 C 
ATOM      8  C   UNL     1      -5.309 -10.466  16.219  0.00  0.00    +0.109 C 
ATOM      9  C   UNL     1      -7.835 -10.054  16.503  0.00  0.00    +0.132 C 
ATOM     10  C   UNL     1      -5.520 -11.949  18.717  0.00  0.00    +0.125 C 
ATOM     11  C   UNL     1      -4.196 -11.419  18.162  0.00  0.00    +0.104 C 
ATOM     12  C   UNL     1      -7.789 -10.760  18.766  0.00  0.00    +0.305 C 
ATOM     14  C   UNL     1      -9.802  -9.423  17.975  0.00  0.00    +0.133 C 
ENDROOT
BRANCH   4  13
ATOM     13  C   UNL     1      -2.931 -10.874  16.180  0.00  0.00    +0.140 C 
BRANCH  13  15
ATOM      6  N   UNL     1      -2.357 -10.385  13.867  0.00  0.00    -0.217 NA
ATOM     15  C   UNL     1      -2.679 -11.339  14.770  0.00  0.00    +0.059 A 
ATOM     16  C   UNL     1      -2.783 -12.687  14.471  0.00  0.00    +0.025 A 
ATOM     17  C   UNL     1      -2.541 -13.084  13.159  0.00  0.00    +0.007 A 
ATOM     18  C   UNL     1      -2.129 -10.808  12.603  0.00  0.00    +0.215 A 
ATOM     19  C   UNL     1      -2.207 -12.132  12.202  0.00  0.00    +0.067 A 
BRANCH  18   2
ATOM      2  O   UNL     1      -1.801  -9.852  11.678  0.00  0.00    -0.480 OA
ATOM     20  C   UNL     1      -2.783  -9.548  10.695  0.00  0.00    +0.279 C 
ENDBRANCH  18   2
ENDBRANCH  13  15
ENDBRANCH   4  13
TORSDOF 3
ENDMDL
MODEL 6
REMARK VINA RESULT:      -5.2     26.751     29.101
REMARK  Name = 75537115
REMARK  5 active torsions:
REMARK  status: ('A' for Active; 'I' for Inactive)
REMARK    1  A    between atoms: O_2  and  C_18
REMARK    2  A    between atoms: O_2  and  C_20
REMARK    3  A    between atoms: N_4  and  C_13
REMARK    4  A    between atoms: N_5  and  C_14
REMARK    5  A    between atoms: C_13  and  C_15
REMARK                            x       y       z     vdW  Elec       q    Type
REMARK                         _______ _______ _______ _____ _____    ______ ____
ROOT
ATOM      1  O   UNL     1     -12.270  -8.074  13.159  0.00  0.00    -0.252 OA
ATOM      3  N   UNL     1     -10.629  -8.210  14.834  0.00  0.00    -0.278 N 
ATOM      4  N   UNL     1      -9.087  -9.307  16.916  0.00  0.00    -0.293 NA
ATOM      5  N   UNL     1     -11.862  -6.338  14.703  0.00  0.00    -0.287 N 
ATOM      7  C   UNL     1     -10.050  -7.324  15.822  0.00  0.00    +0.109 C 
ATOM      8  C   UNL     1      -9.846  -8.060  17.145  0.00  0.00    +0.109 C 
ATOM      9  C   UNL     1     -11.032  -6.156  15.881  0.00  0.00    +0.132 C 
ATOM     10  C   UNL     1     -10.051  -9.523  14.635  0.00  0.00    +0.125 C 
ATOM     11  C   UNL     1      -9.810 -10.200  15.986  0.00  0.00    +0.104 C 
ATOM     12  C   UNL     1     -11.661  -7.600  14.109  0.00  0.00    +0.305 C 
ATOM     14  C   UNL     1     -12.869  -5.373  14.318  0.00  0.00    +0.133 C 
ENDROOT
BRANCH   4  13
ATOM     13  C   UNL     1      -8.835  -9.989  18.184  0.00  0.00    +0.140 C 
BRANCH  13  15
ATOM      6  N   UNL     1      -6.577 -10.106  17.286  0.00  0.00    -0.217 NA
ATOM     15  C   UNL     1      -7.395 -10.407  18.320  0.00  0.00    +0.059 A 
ATOM     16  C   UNL     1      -6.983 -11.062  19.469  0.00  0.00    +0.025 A 
ATOM     17  C   UNL     1      -5.645 -11.432  19.564  0.00  0.00    +0.007 A 
ATOM     18  C   UNL     1      -5.284 -10.481  17.414  0.00  0.00    +0.215 A 
ATOM     19  C   UNL     1      -4.774 -11.139  18.521  0.00  0.00    +0.067 A 
BRANCH  18   2
ATOM      2  O   UNL     1      -4.445 -10.180  16.374  0.00  0.00    -0.480 OA
ATOM     20  C   UNL     1      -3.169 -10.810  16.379  0.00  0.00    +0.279 C 
ENDBRANCH  18   2
ENDBRANCH  13  15
ENDBRANCH   4  13
TORSDOF 3
ENDMDL
MODEL 7
REMARK VINA RESULT:      -5.2     29.429     30.700
REMARK  Name = 75537115
REMARK  5 active torsions:
REMARK  status: ('A' for Active; 'I' for Inactive)
REMARK    1  A    between atoms: O_2  and  C_18
REMARK    2  A    between atoms: O_2  and  C_20
REMARK    3  A    between atoms: N_4  and  C_13
REMARK    4  A    between atoms: N_5  and  C_14
REMARK    5  A    between atoms: C_13  and  C_15
REMARK                            x       y       z     vdW  Elec       q    Type
REMARK                         _______ _______ _______ _____ _____    ______ ____
ROOT
ATOM      1  O   UNL     1     -17.119   1.865  22.646  0.00  0.00    -0.252 OA
ATOM      3  N   UNL     1     -16.468   2.319  24.857  0.00  0.00    -0.278 N 
ATOM      4  N   UNL     1     -16.503   2.260  27.669  0.00  0.00    -0.293 NA
ATOM      5  N   UNL     1     -16.507   4.019  23.389  0.00  0.00    -0.287 N 
ATOM      7  C   UNL     1     -15.929   3.445  25.590  0.00  0.00    +0.109 C 
ATOM      8  C   UNL     1     -16.592   3.554  26.963  0.00  0.00    +0.109 C 
ATOM      9  C   UNL     1     -16.175   4.633  24.663  0.00  0.00    +0.132 C 
ATOM     10  C   UNL     1     -16.566   1.030  25.509  0.00  0.00    +0.125 C 
ATOM     11  C   UNL     1     -17.180   1.193  26.902  0.00  0.00    +0.104 C 
ATOM     12  C   UNL     1     -16.742   2.635  23.520  0.00  0.00    +0.305 C 
ATOM     14  C   UNL     1     -16.712   4.801  22.190  0.00  0.00    +0.133 C 
ENDROOT
BRANCH   4  13
ATOM     13  C   UNL     1     -17.081   2.369  29.008  0.00  0.00    +0.140 C 
BRANCH  13  15
ATOM      6  N   UNL     1     -15.577   3.108  30.771  0.00  0.00    -0.217 NA
ATOM     15  C   UNL     1     -16.073   2.056  30.082  0.00  0.00    +0.059 A 
ATOM     16  C   UNL     1     -15.712   0.739  30.310  0.00  0.00    +0.025 A 
ATOM     17  C   UNL     1     -14.780   0.483  31.311  0.00  0.00    +0.007 A 
ATOM     18  C   UNL     1     -14.674   2.821  31.736  0.00  0.00    +0.215 A 
ATOM     19  C   UNL     1     -14.247   1.539  32.042  0.00  0.00    +0.067 A 
BRANCH  18   2
ATOM      2  O   UNL     1     -14.164   3.878  32.442  0.00  0.00    -0.480 OA
ATOM     20  C   UNL     1     -14.696   5.164  32.145  0.00  0.00    +0.279 C 
ENDBRANCH  18   2
ENDBRANCH  13  15
ENDBRANCH   4  13
TORSDOF 3
ENDMDL
MODEL 8
REMARK VINA RESULT:      -5.2      2.313      3.748
REMARK  Name = 75537115
REMARK  5 active torsions:
REMARK  status: ('A' for Active; 'I' for Inactive)
REMARK    1  A    between atoms: O_2  and  C_18
REMARK    2  A    between atoms: O_2  and  C_20
REMARK    3  A    between atoms: N_4  and  C_13
REMARK    4  A    between atoms: N_5  and  C_14
REMARK    5  A    between atoms: C_13  and  C_15
REMARK                            x       y       z     vdW  Elec       q    Type
REMARK                         _______ _______ _______ _____ _____    ______ ____
ROOT
ATOM      1  O   UNL     1      14.006  14.253  26.400  0.00  0.00    -0.252 OA
ATOM      3  N   UNL     1      12.736  12.653  25.239  0.00  0.00    -0.278 N 
ATOM      4  N   UNL     1      11.944  10.938  23.155  0.00  0.00    -0.293 NA
ATOM      5  N   UNL     1      11.648  14.281  26.340  0.00  0.00    -0.287 N 
ATOM      7  C   UNL     1      11.335  12.310  25.105  0.00  0.00    +0.109 C 
ATOM      8  C   UNL     1      11.008  11.966  23.652  0.00  0.00    +0.109 C 
ATOM      9  C   UNL     1      10.607  13.536  25.654  0.00  0.00    +0.132 C 
ATOM     10  C   UNL     1      13.737  11.786  24.654  0.00  0.00    +0.125 C 
ATOM     11  C   UNL     1      13.340  11.419  23.223  0.00  0.00    +0.104 C 
ATOM     12  C   UNL     1      12.934  13.785  26.041  0.00  0.00    +0.305 C 
ATOM     14  C   UNL     1      11.360  15.476  27.104  0.00  0.00    +0.133 C 
ENDROOT
BRANCH   4  13
ATOM     13  C   UNL     1      11.602  10.557  21.785  0.00  0.00    +0.140 C 
BRANCH  13  15
ATOM      6  N   UNL     1      12.614   8.523  20.915  0.00  0.00    -0.217 NA
ATOM     15  C   UNL     1      11.585   9.063  21.606  0.00  0.00    +0.059 A 
ATOM     16  C   UNL     1      10.542   8.327  22.145  0.00  0.00    +0.025 A 
ATOM     17  C   UNL     1      10.557   6.948  21.964  0.00  0.00    +0.007 A 
ATOM     18  C   UNL     1      12.594   7.181  20.758  0.00  0.00    +0.215 A 
ATOM     19  C   UNL     1      11.599   6.356  21.259  0.00  0.00    +0.067 A 
BRANCH  18   2
ATOM      2  O   UNL     1      13.632   6.622  20.061  0.00  0.00    -0.480 OA
ATOM     20  C   UNL     1      14.885   7.293  20.129  0.00  0.00    +0.279 C 
ENDBRANCH  18   2
ENDBRANCH  13  15
ENDBRANCH   4  13
TORSDOF 3
ENDMDL
MODEL 9
REMARK VINA RESULT:      -5.2      2.322      7.134
REMARK  Name = 75537115
REMARK  5 active torsions:
REMARK  status: ('A' for Active; 'I' for Inactive)
REMARK    1  A    between atoms: O_2  and  C_18
REMARK    2  A    between atoms: O_2  and  C_20
REMARK    3  A    between atoms: N_4  and  C_13
REMARK    4  A    between atoms: N_5  and  C_14
REMARK    5  A    between atoms: C_13  and  C_15
REMARK                            x       y       z     vdW  Elec       q    Type
REMARK                         _______ _______ _______ _____ _____    ______ ____
ROOT
ATOM      1  O   UNL     1      13.948   8.446  15.169  0.00  0.00    -0.252 OA
ATOM      3  N   UNL     1      13.724   8.961  17.451  0.00  0.00    -0.278 N 
ATOM      4  N   UNL     1      12.679   8.916  20.062  0.00  0.00    -0.293 NA
ATOM      5  N   UNL     1      14.103  10.644  16.013  0.00  0.00    -0.287 N 
ATOM      7  C   UNL     1      13.884  10.128  18.292  0.00  0.00    +0.109 C 
ATOM      8  C   UNL     1      12.764  10.196  19.330  0.00  0.00    +0.109 C 
ATOM      9  C   UNL     1      13.911  11.289  17.300  0.00  0.00    +0.132 C 
ATOM     10  C   UNL     1      13.483   7.672  18.066  0.00  0.00    +0.125 C 
ATOM     11  C   UNL     1      12.398   7.798  19.138  0.00  0.00    +0.104 C 
ATOM     12  C   UNL     1      13.931   9.247  16.095  0.00  0.00    +0.305 C 
ATOM     14  C   UNL     1      14.294  11.402  14.795  0.00  0.00    +0.133 C 
ENDROOT
BRANCH   4  13
ATOM     13  C   UNL     1      11.650   8.990  21.098  0.00  0.00    +0.140 C 
BRANCH  13  15
ATOM      6  N   UNL     1      10.989  10.532  22.860  0.00  0.00    -0.217 NA
ATOM     15  C   UNL     1      12.014   9.970  22.182  0.00  0.00    +0.059 A 
ATOM     16  C   UNL     1      13.350  10.242  22.429  0.00  0.00    +0.025 A 
ATOM     17  C   UNL     1      13.653  11.150  23.439  0.00  0.00    +0.007 A 
ATOM     18  C   UNL     1      11.322  11.410  23.833  0.00  0.00    +0.215 A 
ATOM     19  C   UNL     1      12.625  11.749  24.159  0.00  0.00    +0.067 A 
BRANCH  18   2
ATOM      2  O   UNL     1      10.291  11.986  24.528  0.00  0.00    -0.480 OA
ATOM     20  C   UNL     1      10.607  13.136  25.304  0.00  0.00    +0.279 C 
ENDBRANCH  18   2
ENDBRANCH  13  15
ENDBRANCH   4  13
TORSDOF 3
ENDMDL
MODEL 10
REMARK VINA RESULT:      -5.1      1.978      2.811
REMARK  Name = 75537115
REMARK  5 active torsions:
REMARK  status: ('A' for Active; 'I' for Inactive)
REMARK    1  A    between atoms: O_2  and  C_18
REMARK    2  A    between atoms: O_2  and  C_20
REMARK    3  A    between atoms: N_4  and  C_13
REMARK    4  A    between atoms: N_5  and  C_14
REMARK    5  A    between atoms: C_13  and  C_15
REMARK                            x       y       z     vdW  Elec       q    Type
REMARK                         _______ _______ _______ _____ _____    ______ ____
ROOT
ATOM      1  O   UNL     1      13.407  12.906  26.066  0.00  0.00    -0.252 OA
ATOM      3  N   UNL     1      12.661  11.927  24.064  0.00  0.00    -0.278 N 
ATOM      4  N   UNL     1      12.692  11.098  21.376  0.00  0.00    -0.293 NA
ATOM      5  N   UNL     1      11.221  13.198  25.228  0.00  0.00    -0.287 N 
ATOM      7  C   UNL     1      11.406  11.797  23.354  0.00  0.00    +0.109 C 
ATOM      8  C   UNL     1      11.619  11.993  21.854  0.00  0.00    +0.109 C 
ATOM      9  C   UNL     1      10.505  12.837  24.016  0.00  0.00    +0.132 C 
ATOM     10  C   UNL     1      13.823  11.206  23.588  0.00  0.00    +0.125 C 
ATOM     11  C   UNL     1      13.964  11.381  22.074  0.00  0.00    +0.104 C 
ATOM     12  C   UNL     1      12.539  12.699  25.227  0.00  0.00    +0.305 C 
ATOM     14  C   UNL     1      10.656  14.093  26.215  0.00  0.00    +0.133 C 
ENDROOT
BRANCH   4  13
ATOM     13  C   UNL     1      12.864  11.234  19.931  0.00  0.00    +0.140 C 
BRANCH  13  15
ATOM      6  N   UNL     1      12.329   8.861  19.929  0.00  0.00    -0.217 NA
ATOM     15  C   UNL     1      12.847   9.899  19.235  0.00  0.00    +0.059 A 
ATOM     16  C   UNL     1      13.349   9.798  17.948  0.00  0.00    +0.025 A 
ATOM     17  C   UNL     1      13.318   8.551  17.333  0.00  0.00    +0.007 A 
ATOM     18  C   UNL     1      12.315   7.665  19.300  0.00  0.00    +0.215 A 
ATOM     19  C   UNL     1      12.792   7.459  18.015  0.00  0.00    +0.067 A 
BRANCH  18   2
ATOM      2  O   UNL     1      11.792   6.605  19.992  0.00  0.00    -0.480 OA
ATOM     20  C   UNL     1      11.442   6.838  21.351  0.00  0.00    +0.279 C 
ENDBRANCH  18   2
ENDBRANCH  13  15
ENDBRANCH   4  13
TORSDOF 3
ENDMDL
