MODEL 1
REMARK VINA RESULT:      -7.0      0.000      0.000
REMARK  Name = 75536989
REMARK  5 active torsions:
REMARK  status: ('A' for Active; 'I' for Inactive)
REMARK    1  A    between atoms: O_4  and  C_17
REMARK    2  A    between atoms: O_4  and  C_23
REMARK    3  A    between atoms: N_6  and  C_14
REMARK    4  A    between atoms: C_14  and  C_16
REMARK    5  A    between atoms: C_15  and  C_17
REMARK                            x       y       z     vdW  Elec       q    Type
REMARK                         _______ _______ _______ _____ _____    ______ ____
ROOT
ATOM      2  O   UNL     1      12.061   6.556  20.143  0.00  0.00    -0.252 OA
ATOM      3  O   UNL     1      10.558  11.397  24.912  0.00  0.00    -0.273 OA
ATOM      5  N   UNL     1      12.368   8.352  21.627  0.00  0.00    -0.278 N 
ATOM      6  N   UNL     1      13.985   7.919  20.127  0.00  0.00    -0.279 N 
ATOM      7  N   UNL     1      11.707  10.659  23.033  0.00  0.00    -0.296 N 
ATOM      8  C   UNL     1      13.434   9.279  21.961  0.00  0.00    +0.112 C 
ATOM      9  C   UNL     1      14.426   9.122  20.811  0.00  0.00    +0.133 C 
ATOM     10  C   UNL     1      12.877  10.690  22.135  0.00  0.00    +0.132 C 
ATOM     11  C   UNL     1      11.154   8.330  22.424  0.00  0.00    +0.128 C 
ATOM     12  C   UNL     1      10.630   9.752  22.609  0.00  0.00    +0.127 C 
ATOM     13  C   UNL     1      12.723   7.488  20.580  0.00  0.00    +0.306 C 
ATOM     15  C   UNL     1      11.558  11.423  24.189  0.00  0.00    +0.241 C 
ENDROOT
BRANCH   6  14
ATOM     14  C   UNL     1      14.727   7.350  19.023  0.00  0.00    +0.144 C 
BRANCH  14  16
ATOM      1  F   UNL     1      19.778   5.452  20.632  0.00  0.00    -0.205 F 
ATOM     16  C   UNL     1      16.074   6.844  19.453  0.00  0.00    -0.030 A 
ATOM     18  C   UNL     1      16.638   7.289  20.648  0.00  0.00    +0.008 A 
ATOM     19  C   UNL     1      16.761   5.927  18.657  0.00  0.00    +0.008 A 
ATOM     20  C   UNL     1      17.889   6.820  21.046  0.00  0.00    +0.038 A 
ATOM     21  C   UNL     1      18.012   5.457  19.055  0.00  0.00    +0.038 A 
ATOM     22  C   UNL     1      18.577   5.903  20.250  0.00  0.00    +0.123 A 
ENDBRANCH  14  16
ENDBRANCH   6  14
BRANCH  15  17
ATOM     17  C   UNL     1      12.710  12.325  24.555  0.00  0.00    +0.255 C 
BRANCH  17   4
ATOM      4  O   UNL     1      13.174  11.895  25.812  0.00  0.00    -0.374 OA
ATOM     23  C   UNL     1      13.896  12.918  26.495  0.00  0.00    +0.194 C 
ENDBRANCH  17   4
ENDBRANCH  15  17
TORSDOF 4
ENDMDL
MODEL 2
REMARK VINA RESULT:      -6.7     29.222     31.535
REMARK  Name = 75536989
REMARK  5 active torsions:
REMARK  status: ('A' for Active; 'I' for Inactive)
REMARK    1  A    between atoms: O_4  and  C_17
REMARK    2  A    between atoms: O_4  and  C_23
REMARK    3  A    between atoms: N_6  and  C_14
REMARK    4  A    between atoms: C_14  and  C_16
REMARK    5  A    between atoms: C_15  and  C_17
REMARK                            x       y       z     vdW  Elec       q    Type
REMARK                         _______ _______ _______ _____ _____    ______ ____
ROOT
ATOM      2  O   UNL     1     -14.236   4.610  34.821  0.00  0.00    -0.252 OA
ATOM      3  O   UNL     1     -15.611  -0.450  30.244  0.00  0.00    -0.273 OA
ATOM      5  N   UNL     1     -15.170   3.523  32.959  0.00  0.00    -0.278 N 
ATOM      6  N   UNL     1     -15.376   5.756  33.103  0.00  0.00    -0.279 N 
ATOM      7  N   UNL     1     -15.276   1.782  30.791  0.00  0.00    -0.296 N 
ATOM      8  C   UNL     1     -16.006   3.886  31.829  0.00  0.00    +0.112 C 
ATOM      9  C   UNL     1     -15.959   5.412  31.817  0.00  0.00    +0.133 C 
ATOM     10  C   UNL     1     -15.495   3.221  30.553  0.00  0.00    +0.132 C 
ATOM     11  C   UNL     1     -14.848   2.127  33.200  0.00  0.00    +0.128 C 
ATOM     12  C   UNL     1     -14.367   1.475  31.905  0.00  0.00    +0.127 C 
ATOM     13  C   UNL     1     -14.853   4.627  33.763  0.00  0.00    +0.306 C 
ATOM     15  C   UNL     1     -15.830   0.747  30.040  0.00  0.00    +0.241 C 
ENDROOT
BRANCH   6  14
ATOM     14  C   UNL     1     -15.249   7.128  33.543  0.00  0.00    +0.144 C 
BRANCH  14  16
ATOM      1  F   UNL     1     -11.461   9.974  30.501  0.00  0.00    -0.205 F 
ATOM     16  C   UNL     1     -14.239   7.887  32.732  0.00  0.00    -0.030 A 
ATOM     18  C   UNL     1     -14.661   8.862  31.829  0.00  0.00    +0.008 A 
ATOM     19  C   UNL     1     -12.878   7.618  32.883  0.00  0.00    +0.008 A 
ATOM     20  C   UNL     1     -13.723   9.566  31.074  0.00  0.00    +0.038 A 
ATOM     21  C   UNL     1     -11.940   8.323  32.129  0.00  0.00    +0.038 A 
ATOM     22  C   UNL     1     -12.362   9.297  31.225  0.00  0.00    +0.123 A 
ENDBRANCH  14  16
ENDBRANCH   6  14
BRANCH  15  17
ATOM     17  C   UNL     1     -16.754   1.148  28.917  0.00  0.00    +0.255 C 
BRANCH  17   4
ATOM      4  O   UNL     1     -16.199   0.628  27.734  0.00  0.00    -0.374 OA
ATOM     23  C   UNL     1     -16.941   1.014  26.579  0.00  0.00    +0.194 C 
ENDBRANCH  17   4
ENDBRANCH  15  17
TORSDOF 4
ENDMDL
MODEL 3
REMARK VINA RESULT:      -6.5     27.138     28.589
REMARK  Name = 75536989
REMARK  5 active torsions:
REMARK  status: ('A' for Active; 'I' for Inactive)
REMARK    1  A    between atoms: O_4  and  C_17
REMARK    2  A    between atoms: O_4  and  C_23
REMARK    3  A    between atoms: N_6  and  C_14
REMARK    4  A    between atoms: C_14  and  C_16
REMARK    5  A    between atoms: C_15  and  C_17
REMARK                            x       y       z     vdW  Elec       q    Type
REMARK                         _______ _______ _______ _____ _____    ______ ____
ROOT
ATOM      2  O   UNL     1      -1.675 -11.648  15.092  0.00  0.00    -0.252 OA
ATOM      3  O   UNL     1      -6.177 -10.941  20.352  0.00  0.00    -0.273 OA
ATOM      5  N   UNL     1      -3.728 -11.495  16.224  0.00  0.00    -0.278 N 
ATOM      6  N   UNL     1      -3.736 -12.208  14.093  0.00  0.00    -0.279 N 
ATOM      7  N   UNL     1      -5.541 -11.837  18.306  0.00  0.00    -0.296 N 
ATOM      8  C   UNL     1      -5.134 -11.636  15.891  0.00  0.00    +0.112 C 
ATOM      9  C   UNL     1      -5.118 -12.320  14.527  0.00  0.00    +0.133 C 
ATOM     10  C   UNL     1      -5.865 -12.410  16.986  0.00  0.00    +0.132 C 
ATOM     11  C   UNL     1      -3.342 -11.014  17.539  0.00  0.00    +0.128 C 
ATOM     12  C   UNL     1      -4.105 -11.782  18.616  0.00  0.00    +0.127 C 
ATOM     13  C   UNL     1      -2.893 -11.765  15.130  0.00  0.00    +0.306 C 
ATOM     15  C   UNL     1      -6.472 -11.394  19.243  0.00  0.00    +0.241 C 
ENDROOT
BRANCH   6  14
ATOM     14  C   UNL     1      -3.307 -12.646  12.783  0.00  0.00    +0.144 C 
BRANCH  14  16
ATOM      1  F   UNL     1      -3.741  -8.549   8.945  0.00  0.00    -0.205 F 
ATOM     16  C   UNL     1      -3.423 -11.554  11.759  0.00  0.00    -0.030 A 
ATOM     18  C   UNL     1      -4.517 -11.522  10.894  0.00  0.00    +0.008 A 
ATOM     19  C   UNL     1      -2.438 -10.570  11.675  0.00  0.00    +0.008 A 
ATOM     20  C   UNL     1      -4.624 -10.507   9.943  0.00  0.00    +0.038 A 
ATOM     21  C   UNL     1      -2.545  -9.555  10.723  0.00  0.00    +0.038 A 
ATOM     22  C   UNL     1      -3.638  -9.524   9.857  0.00  0.00    +0.123 A 
ENDBRANCH  14  16
ENDBRANCH   6  14
BRANCH  15  17
ATOM     17  C   UNL     1      -7.924 -11.482  18.844  0.00  0.00    +0.255 C 
BRANCH  17   4
ATOM      4  O   UNL     1      -8.673 -11.033  19.948  0.00  0.00    -0.374 OA
ATOM     23  C   UNL     1     -10.074 -11.042  19.684  0.00  0.00    +0.194 C 
ENDBRANCH  17   4
ENDBRANCH  15  17
TORSDOF 4
ENDMDL
MODEL 4
REMARK VINA RESULT:      -6.4     27.159     28.368
REMARK  Name = 75536989
REMARK  5 active torsions:
REMARK  status: ('A' for Active; 'I' for Inactive)
REMARK    1  A    between atoms: O_4  and  C_17
REMARK    2  A    between atoms: O_4  and  C_23
REMARK    3  A    between atoms: N_6  and  C_14
REMARK    4  A    between atoms: C_14  and  C_16
REMARK    5  A    between atoms: C_15  and  C_17
REMARK                            x       y       z     vdW  Elec       q    Type
REMARK                         _______ _______ _______ _____ _____    ______ ____
ROOT
ATOM      2  O   UNL     1      -1.291 -11.456  15.136  0.00  0.00    -0.252 OA
ATOM      3  O   UNL     1      -7.076 -10.654  18.923  0.00  0.00    -0.273 OA
ATOM      5  N   UNL     1      -3.514 -10.912  15.668  0.00  0.00    -0.278 N 
ATOM      6  N   UNL     1      -2.926 -10.995  13.501  0.00  0.00    -0.279 N 
ATOM      7  N   UNL     1      -5.980 -11.145  16.935  0.00  0.00    -0.296 N 
ATOM      8  C   UNL     1      -4.697 -10.471  14.951  0.00  0.00    +0.112 C 
ATOM      9  C   UNL     1      -4.356 -10.737  13.487  0.00  0.00    +0.133 C 
ATOM     10  C   UNL     1      -5.934 -11.206  15.462  0.00  0.00    +0.132 C 
ATOM     11  C   UNL     1      -3.524 -10.954  17.120  0.00  0.00    +0.128 C 
ATOM     12  C   UNL     1      -4.782 -11.668  17.609  0.00  0.00    +0.127 C 
ATOM     13  C   UNL     1      -2.432 -11.155  14.810  0.00  0.00    +0.306 C 
ATOM     15  C   UNL     1      -7.051 -10.671  17.690  0.00  0.00    +0.241 C 
ENDROOT
BRANCH   6  14
ATOM     14  C   UNL     1      -2.173 -11.194  12.282  0.00  0.00    +0.144 C 
BRANCH  14  16
ATOM      1  F   UNL     1      -5.110  -9.696   7.719  0.00  0.00    -0.205 F 
ATOM     16  C   UNL     1      -2.956 -10.794  11.065  0.00  0.00    -0.030 A 
ATOM     18  C   UNL     1      -3.000  -9.457  10.672  0.00  0.00    +0.008 A 
ATOM     19  C   UNL     1      -3.639 -11.761  10.326  0.00  0.00    +0.008 A 
ATOM     20  C   UNL     1      -3.729  -9.085   9.542  0.00  0.00    +0.038 A 
ATOM     21  C   UNL     1      -4.367 -11.390   9.196  0.00  0.00    +0.038 A 
ATOM     22  C   UNL     1      -4.412 -10.052   8.804  0.00  0.00    +0.123 A 
ENDBRANCH  14  16
ENDBRANCH   6  14
BRANCH  15  17
ATOM     17  C   UNL     1      -8.240 -10.150  16.921  0.00  0.00    +0.255 C 
BRANCH  17   4
ATOM      4  O   UNL     1      -8.441  -8.823  17.342  0.00  0.00    -0.374 OA
ATOM     23  C   UNL     1      -9.466  -8.172  16.593  0.00  0.00    +0.194 C 
ENDBRANCH  17   4
ENDBRANCH  15  17
TORSDOF 4
ENDMDL
MODEL 5
REMARK VINA RESULT:      -6.3     16.433     18.700
REMARK  Name = 75536989
REMARK  5 active torsions:
REMARK  status: ('A' for Active; 'I' for Inactive)
REMARK    1  A    between atoms: O_4  and  C_17
REMARK    2  A    between atoms: O_4  and  C_23
REMARK    3  A    between atoms: N_6  and  C_14
REMARK    4  A    between atoms: C_14  and  C_16
REMARK    5  A    between atoms: C_15  and  C_17
REMARK                            x       y       z     vdW  Elec       q    Type
REMARK                         _______ _______ _______ _____ _____    ______ ____
ROOT
ATOM      2  O   UNL     1       9.773   6.776   1.214  0.00  0.00    -0.252 OA
ATOM      3  O   UNL     1       9.510   8.246   8.012  0.00  0.00    -0.273 OA
ATOM      5  N   UNL     1       9.832   6.446   3.540  0.00  0.00    -0.278 N 
ATOM      6  N   UNL     1      10.561   4.788   2.209  0.00  0.00    -0.279 N 
ATOM      7  N   UNL     1      10.350   7.054   6.204  0.00  0.00    -0.296 N 
ATOM      8  C   UNL     1      10.127   5.352   4.447  0.00  0.00    +0.112 C 
ATOM      9  C   UNL     1      10.817   4.319   3.560  0.00  0.00    +0.133 C 
ATOM     10  C   UNL     1      10.966   5.846   5.623  0.00  0.00    +0.132 C 
ATOM     11  C   UNL     1       9.302   7.693   4.061  0.00  0.00    +0.128 C 
ATOM     12  C   UNL     1      10.138   8.155   5.253  0.00  0.00    +0.127 C 
ATOM     13  C   UNL     1      10.021   6.089   2.196  0.00  0.00    +0.306 C 
ATOM     15  C   UNL     1      10.001   7.216   7.544  0.00  0.00    +0.241 C 
ENDROOT
BRANCH   6  14
ATOM     14  C   UNL     1      10.961   4.028   1.045  0.00  0.00    +0.144 C 
BRANCH  14  16
ATOM      1  F   UNL     1      16.491   4.430   0.065  0.00  0.00    -0.205 F 
ATOM     16  C   UNL     1      12.436   4.135   0.784  0.00  0.00    -0.030 A 
ATOM     18  C   UNL     1      12.905   4.971  -0.229  0.00  0.00    +0.008 A 
ATOM     19  C   UNL     1      13.336   3.400   1.555  0.00  0.00    +0.008 A 
ATOM     20  C   UNL     1      14.275   5.070  -0.472  0.00  0.00    +0.038 A 
ATOM     21  C   UNL     1      14.706   3.499   1.311  0.00  0.00    +0.038 A 
ATOM     22  C   UNL     1      15.176   4.335   0.298  0.00  0.00    +0.123 A 
ENDBRANCH  14  16
ENDBRANCH   6  14
BRANCH  15  17
ATOM     17  C   UNL     1      10.249   6.038   8.453  0.00  0.00    +0.255 C 
BRANCH  17   4
ATOM      4  O   UNL     1       8.987   5.588   8.882  0.00  0.00    -0.374 OA
ATOM     23  C   UNL     1       9.080   4.748  10.030  0.00  0.00    +0.194 C 
ENDBRANCH  17   4
ENDBRANCH  15  17
TORSDOF 4
ENDMDL
MODEL 6
REMARK VINA RESULT:      -6.1     26.825     28.517
REMARK  Name = 75536989
REMARK  5 active torsions:
REMARK  status: ('A' for Active; 'I' for Inactive)
REMARK    1  A    between atoms: O_4  and  C_17
REMARK    2  A    between atoms: O_4  and  C_23
REMARK    3  A    between atoms: N_6  and  C_14
REMARK    4  A    between atoms: C_14  and  C_16
REMARK    5  A    between atoms: C_15  and  C_17
REMARK                            x       y       z     vdW  Elec       q    Type
REMARK                         _______ _______ _______ _____ _____    ______ ____
ROOT
ATOM      2  O   UNL     1      -3.363 -11.894  19.069  0.00  0.00    -0.252 OA
ATOM      3  O   UNL     1     -10.212 -10.673  19.291  0.00  0.00    -0.273 OA
ATOM      5  N   UNL     1      -5.462 -11.020  18.475  0.00  0.00    -0.278 N 
ATOM      6  N   UNL     1      -3.765 -10.802  17.018  0.00  0.00    -0.279 N 
ATOM      7  N   UNL     1      -8.222 -10.985  18.133  0.00  0.00    -0.296 N 
ATOM      8  C   UNL     1      -6.008 -10.217  17.397  0.00  0.00    +0.112 C 
ATOM      9  C   UNL     1      -4.921 -10.259  16.325  0.00  0.00    +0.133 C 
ATOM     10  C   UNL     1      -7.362 -10.768  16.955  0.00  0.00    +0.132 C 
ATOM     11  C   UNL     1      -6.287 -11.339  19.627  0.00  0.00    +0.128 C 
ATOM     12  C   UNL     1      -7.645 -11.861  19.163  0.00  0.00    +0.127 C 
ATOM     13  C   UNL     1      -4.102 -11.310  18.288  0.00  0.00    +0.306 C 
ATOM     15  C   UNL     1      -9.500 -10.457  18.306  0.00  0.00    +0.241 C 
ENDROOT
BRANCH   6  14
ATOM     14  C   UNL     1      -2.472 -10.912  16.379  0.00  0.00    +0.144 C 
BRANCH  14  16
ATOM      1  F   UNL     1      -2.909 -12.474  10.988  0.00  0.00    -0.205 F 
ATOM     16  C   UNL     1      -2.588 -11.329  14.942  0.00  0.00    -0.030 A 
ATOM     18  C   UNL     1      -3.023 -12.615  14.622  0.00  0.00    +0.008 A 
ATOM     19  C   UNL     1      -2.264 -10.429  13.926  0.00  0.00    +0.008 A 
ATOM     20  C   UNL     1      -3.130 -13.002  13.286  0.00  0.00    +0.038 A 
ATOM     21  C   UNL     1      -2.371 -10.817  12.591  0.00  0.00    +0.038 A 
ATOM     22  C   UNL     1      -2.805 -12.103  12.270  0.00  0.00    +0.123 A 
ENDBRANCH  14  16
ENDBRANCH   6  14
BRANCH  15  17
ATOM     17  C   UNL     1     -10.017  -9.565  17.204  0.00  0.00    +0.255 C 
BRANCH  17   4
ATOM      4  O   UNL     1      -9.807  -8.240  17.627  0.00  0.00    -0.374 OA
ATOM     23  C   UNL     1     -10.630  -7.315  16.919  0.00  0.00    +0.194 C 
ENDBRANCH  17   4
ENDBRANCH  15  17
TORSDOF 4
ENDMDL
MODEL 7
REMARK VINA RESULT:      -6.1      4.899      6.083
REMARK  Name = 75536989
REMARK  5 active torsions:
REMARK  status: ('A' for Active; 'I' for Inactive)
REMARK    1  A    between atoms: O_4  and  C_17
REMARK    2  A    between atoms: O_4  and  C_23
REMARK    3  A    between atoms: N_6  and  C_14
REMARK    4  A    between atoms: C_14  and  C_16
REMARK    5  A    between atoms: C_15  and  C_17
REMARK                            x       y       z     vdW  Elec       q    Type
REMARK                         _______ _______ _______ _____ _____    ______ ____
ROOT
ATOM      2  O   UNL     1      14.641   9.783  14.898  0.00  0.00    -0.252 OA
ATOM      3  O   UNL     1      11.858   6.390  20.301  0.00  0.00    -0.273 OA
ATOM      5  N   UNL     1      14.084   9.269  17.122  0.00  0.00    -0.278 N 
ATOM      6  N   UNL     1      14.963  11.291  16.683  0.00  0.00    -0.279 N 
ATOM      7  N   UNL     1      12.518   8.341  19.226  0.00  0.00    -0.296 N 
ATOM      8  C   UNL     1      14.253   9.885  18.426  0.00  0.00    +0.112 C 
ATOM      9  C   UNL     1      14.645  11.325  18.100  0.00  0.00    +0.133 C 
ATOM     10  C   UNL     1      12.977   9.742  19.252  0.00  0.00    +0.132 C 
ATOM     11  C   UNL     1      13.558   7.919  17.025  0.00  0.00    +0.128 C 
ATOM     12  C   UNL     1      12.299   7.790  17.880  0.00  0.00    +0.127 C 
ATOM     13  C   UNL     1      14.574  10.076  16.085  0.00  0.00    +0.306 C 
ATOM     15  C   UNL     1      12.265   7.554  20.348  0.00  0.00    +0.241 C 
ENDROOT
BRANCH   6  14
ATOM     14  C   UNL     1      15.487  12.446  15.988  0.00  0.00    +0.144 C 
BRANCH  14  16
ATOM      1  F   UNL     1      21.061  12.123  15.267  0.00  0.00    -0.205 F 
ATOM     16  C   UNL     1      16.973  12.360  15.796  0.00  0.00    -0.030 A 
ATOM     18  C   UNL     1      17.832  12.888  16.759  0.00  0.00    +0.008 A 
ATOM     19  C   UNL     1      17.495  11.750  14.654  0.00  0.00    +0.008 A 
ATOM     20  C   UNL     1      19.213  12.808  16.580  0.00  0.00    +0.038 A 
ATOM     21  C   UNL     1      18.876  11.671  14.476  0.00  0.00    +0.038 A 
ATOM     22  C   UNL     1      19.736  12.200  15.439  0.00  0.00    +0.123 A 
ENDBRANCH  14  16
ENDBRANCH   6  14
BRANCH  15  17
ATOM     17  C   UNL     1      12.519   8.193  21.691  0.00  0.00    +0.255 C 
BRANCH  17   4
ATOM      4  O   UNL     1      11.306   8.132  22.401  0.00  0.00    -0.374 OA
ATOM     23  C   UNL     1      10.629   9.386  22.414  0.00  0.00    +0.194 C 
ENDBRANCH  17   4
ENDBRANCH  15  17
TORSDOF 4
ENDMDL
MODEL 8
REMARK VINA RESULT:      -6.1     16.788     20.138
REMARK  Name = 75536989
REMARK  5 active torsions:
REMARK  status: ('A' for Active; 'I' for Inactive)
REMARK    1  A    between atoms: O_4  and  C_17
REMARK    2  A    between atoms: O_4  and  C_23
REMARK    3  A    between atoms: N_6  and  C_14
REMARK    4  A    between atoms: C_14  and  C_16
REMARK    5  A    between atoms: C_15  and  C_17
REMARK                            x       y       z     vdW  Elec       q    Type
REMARK                         _______ _______ _______ _____ _____    ______ ____
ROOT
ATOM      2  O   UNL     1      12.198   7.871   4.803  0.00  0.00    -0.252 OA
ATOM      3  O   UNL     1      14.871   4.346  -0.571  0.00  0.00    -0.273 OA
ATOM      5  N   UNL     1      12.410   6.227   3.138  0.00  0.00    -0.278 N 
ATOM      6  N   UNL     1      10.448   6.400   4.221  0.00  0.00    -0.279 N 
ATOM      7  N   UNL     1      13.074   5.159   0.656  0.00  0.00    -0.296 N 
ATOM      8  C   UNL     1      11.613   5.123   2.631  0.00  0.00    +0.112 C 
ATOM      9  C   UNL     1      10.225   5.381   3.211  0.00  0.00    +0.133 C 
ATOM     10  C   UNL     1      11.672   5.081   1.106  0.00  0.00    +0.132 C 
ATOM     11  C   UNL     1      13.773   6.407   2.670  0.00  0.00    +0.128 C 
ATOM     12  C   UNL     1      13.812   6.333   1.145  0.00  0.00    +0.127 C 
ATOM     13  C   UNL     1      11.744   6.947   4.140  0.00  0.00    +0.306 C 
ATOM     15  C   UNL     1      13.702   4.245  -0.188  0.00  0.00    +0.241 C 
ENDROOT
BRANCH   6  14
ATOM     14  C   UNL     1       9.389   6.861   5.092  0.00  0.00    +0.144 C 
BRANCH  14  16
ATOM      1  F   UNL     1       9.560   4.353  10.129  0.00  0.00    -0.205 F 
ATOM     16  C   UNL     1       9.434   6.193   6.435  0.00  0.00    -0.030 A 
ATOM     18  C   UNL     1       9.036   6.890   7.575  0.00  0.00    +0.008 A 
ATOM     19  C   UNL     1       9.874   4.873   6.543  0.00  0.00    +0.008 A 
ATOM     20  C   UNL     1       9.079   6.269   8.823  0.00  0.00    +0.038 A 
ATOM     21  C   UNL     1       9.917   4.252   7.791  0.00  0.00    +0.038 A 
ATOM     22  C   UNL     1       9.519   4.950   8.932  0.00  0.00    +0.123 A 
ENDBRANCH  14  16
ENDBRANCH   6  14
BRANCH  15  17
ATOM     17  C   UNL     1      12.876   3.068  -0.642  0.00  0.00    +0.255 C 
BRANCH  17   4
ATOM      4  O   UNL     1      12.726   3.194  -2.035  0.00  0.00    -0.374 OA
ATOM     23  C   UNL     1      11.395   3.553  -2.400  0.00  0.00    +0.194 C 
ENDBRANCH  17   4
ENDBRANCH  15  17
TORSDOF 4
ENDMDL
MODEL 9
REMARK VINA RESULT:      -6.1     26.797     28.623
REMARK  Name = 75536989
REMARK  5 active torsions:
REMARK  status: ('A' for Active; 'I' for Inactive)
REMARK    1  A    between atoms: O_4  and  C_17
REMARK    2  A    between atoms: O_4  and  C_23
REMARK    3  A    between atoms: N_6  and  C_14
REMARK    4  A    between atoms: C_14  and  C_16
REMARK    5  A    between atoms: C_15  and  C_17
REMARK                            x       y       z     vdW  Elec       q    Type
REMARK                         _______ _______ _______ _____ _____    ______ ____
ROOT
ATOM      2  O   UNL     1      -6.001 -12.507  18.995  0.00  0.00    -0.252 OA
ATOM      3  O   UNL     1     -11.522  -8.639  17.261  0.00  0.00    -0.273 OA
ATOM      5  N   UNL     1      -7.247 -10.736  18.083  0.00  0.00    -0.278 N 
ATOM      6  N   UNL     1      -5.084 -10.928  17.503  0.00  0.00    -0.279 N 
ATOM      7  N   UNL     1      -9.400  -9.486  16.841  0.00  0.00    -0.296 N 
ATOM      8  C   UNL     1      -6.982  -9.564  17.267  0.00  0.00    +0.112 C 
ATOM      9  C   UNL     1      -5.584  -9.818  16.709  0.00  0.00    +0.133 C 
ATOM     10  C   UNL     1      -8.070  -9.394  16.210  0.00  0.00    +0.132 C 
ATOM     11  C   UNL     1      -8.563 -10.927  18.665  0.00  0.00    +0.128 C 
ATOM     12  C   UNL     1      -9.637 -10.725  17.598  0.00  0.00    +0.127 C 
ATOM     13  C   UNL     1      -6.098 -11.514  18.286  0.00  0.00    +0.306 C 
ATOM     15  C   UNL     1     -10.407  -8.528  16.744  0.00  0.00    +0.241 C 
ENDROOT
BRANCH   6  14
ATOM     14  C   UNL     1      -3.732 -11.421  17.363  0.00  0.00    +0.144 C 
BRANCH  14  16
ATOM      1  F   UNL     1      -1.867 -10.989  12.068  0.00  0.00    -0.205 F 
ATOM     16  C   UNL     1      -3.234 -11.306  15.951  0.00  0.00    -0.030 A 
ATOM     18  C   UNL     1      -3.794 -12.096  14.948  0.00  0.00    +0.008 A 
ATOM     19  C   UNL     1      -2.213 -10.407  15.642  0.00  0.00    +0.008 A 
ATOM     20  C   UNL     1      -3.332 -11.990  13.636  0.00  0.00    +0.038 A 
ATOM     21  C   UNL     1      -1.751 -10.301  14.331  0.00  0.00    +0.038 A 
ATOM     22  C   UNL     1      -2.310 -11.092  13.327  0.00  0.00    +0.123 A 
ENDBRANCH  14  16
ENDBRANCH   6  14
BRANCH  15  17
ATOM     17  C   UNL     1     -10.082  -7.286  15.952  0.00  0.00    +0.255 C 
BRANCH  17   4
ATOM      4  O   UNL     1     -11.003  -6.301  16.352  0.00  0.00    -0.374 OA
ATOM     23  C   UNL     1     -11.760  -5.797  15.254  0.00  0.00    +0.194 C 
ENDBRANCH  17   4
ENDBRANCH  15  17
TORSDOF 4
ENDMDL
MODEL 10
REMARK VINA RESULT:      -6.0     27.549     28.836
REMARK  Name = 75536989
REMARK  5 active torsions:
REMARK  status: ('A' for Active; 'I' for Inactive)
REMARK    1  A    between atoms: O_4  and  C_17
REMARK    2  A    between atoms: O_4  and  C_23
REMARK    3  A    between atoms: N_6  and  C_14
REMARK    4  A    between atoms: C_14  and  C_16
REMARK    5  A    between atoms: C_15  and  C_17
REMARK                            x       y       z     vdW  Elec       q    Type
REMARK                         _______ _______ _______ _____ _____    ______ ____
ROOT
ATOM      2  O   UNL     1      -2.789 -14.404  14.018  0.00  0.00    -0.252 OA
ATOM      3  O   UNL     1      -7.602 -12.705  18.749  0.00  0.00    -0.273 OA
ATOM      5  N   UNL     1      -4.057 -13.080  15.487  0.00  0.00    -0.278 N 
ATOM      6  N   UNL     1      -2.737 -12.046  13.992  0.00  0.00    -0.279 N 
ATOM      7  N   UNL     1      -6.313 -12.230  16.876  0.00  0.00    -0.296 N 
ATOM      8  C   UNL     1      -4.169 -11.671  15.814  0.00  0.00    +0.112 C 
ATOM      9  C   UNL     1      -3.445 -10.972  14.666  0.00  0.00    +0.133 C 
ATOM     10  C   UNL     1      -5.635 -11.277  15.978  0.00  0.00    +0.132 C 
ATOM     11  C   UNL     1      -4.768 -14.065  16.284  0.00  0.00    +0.128 C 
ATOM     12  C   UNL     1      -6.224 -13.638  16.459  0.00  0.00    +0.127 C 
ATOM     13  C   UNL     1      -3.146 -13.315  14.447  0.00  0.00    +0.306 C 
ATOM     15  C   UNL     1      -7.022 -11.890  18.026  0.00  0.00    +0.241 C 
ENDROOT
BRANCH   6  14
ATOM     14  C   UNL     1      -1.831 -11.794  12.892  0.00  0.00    +0.144 C 
BRANCH  14  16
ATOM      1  F   UNL     1      -4.405  -9.243   8.584  0.00  0.00    -0.205 F 
ATOM     16  C   UNL     1      -2.517 -11.114  11.743  0.00  0.00    -0.030 A 
ATOM     18  C   UNL     1      -2.176  -9.805  11.404  0.00  0.00    +0.008 A 
ATOM     19  C   UNL     1      -3.495 -11.791  11.015  0.00  0.00    +0.008 A 
ATOM     20  C   UNL     1      -2.814  -9.173  10.337  0.00  0.00    +0.038 A 
ATOM     21  C   UNL     1      -4.133 -11.159   9.948  0.00  0.00    +0.038 A 
ATOM     22  C   UNL     1      -3.793  -9.850   9.608  0.00  0.00    +0.123 A 
ENDBRANCH  14  16
ENDBRANCH   6  14
BRANCH  15  17
ATOM     17  C   UNL     1      -7.062 -10.426  18.386  0.00  0.00    +0.255 C 
BRANCH  17   4
ATOM      4  O   UNL     1      -8.360  -9.973  18.086  0.00  0.00    -0.374 OA
ATOM     23  C   UNL     1      -8.359  -8.977  17.066  0.00  0.00    +0.194 C 
ENDBRANCH  17   4
ENDBRANCH  15  17
TORSDOF 4
ENDMDL
