REMARK  Name = 51137819
REMARK  6 active torsions:
REMARK  status: ('A' for Active; 'I' for Inactive)
REMARK    1  A    between atoms: O_3  and  C_17
REMARK    2  A    between atoms: O_3  and  C_28
REMARK    3  A    between atoms: N_6  and  C_15
REMARK    4  A    between atoms: C_8  and  C_12
REMARK    5  A    between atoms: C_14  and  C_16
REMARK    6  A    between atoms: C_24  and  C_27
REMARK                            x       y       z     vdW  Elec       q    Type
REMARK                         _______ _______ _______ _____ _____    ______ ____
ROOT
ATOM      2  O   UNL     1       1.937  -1.060   2.128  0.00  0.00    -0.252 OA
ATOM      4  N   UNL     1       0.917  -2.130   0.372  0.00  0.00    -0.285 N 
ATOM      6  N   UNL     1       2.663  -0.630  -0.047  0.00  0.00    -0.266 N 
ATOM      8  C   UNL     1      -1.085  -3.410   0.258  0.00  0.00    +0.096 C 
ATOM      9  C   UNL     1      -0.274  -3.616  -1.030  0.00  0.00    +0.033 C 
ATOM     10  C   UNL     1      -0.021  -2.861   1.217  0.00  0.00    +0.122 C 
ATOM     11  C   UNL     1       0.711  -2.452  -1.038  0.00  0.00    +0.110 C 
ATOM     13  C   UNL     1       1.861  -1.248   0.913  0.00  0.00    +0.307 C 
ATOM     29  H   UNL     1       2.491  -0.850  -1.023  0.00  0.00    +0.156 HD
ENDROOT
BRANCH   6  15
ATOM     15  C   UNL     1       3.704   0.307   0.163  0.00  0.00    +0.077 A 
ATOM     17  C   UNL     1       4.398   0.853  -0.916  0.00  0.00    +0.141 A 
ATOM     18  C   UNL     1       4.032   0.683   1.466  0.00  0.00    +0.027 A 
ATOM     23  C   UNL     1       5.421   1.776  -0.693  0.00  0.00    +0.047 A 
ATOM     25  C   UNL     1       5.055   1.605   1.689  0.00  0.00    +0.002 A 
ATOM     26  C   UNL     1       5.749   2.151   0.609  0.00  0.00    +0.004 A 
BRANCH  17   3
ATOM      3  O   UNL     1       4.094   0.499  -2.197  0.00  0.00    -0.493 OA
ATOM     28  C   UNL     1       3.106   1.280  -2.867  0.00  0.00    +0.277 C 
ENDBRANCH  17   3
ENDBRANCH   6  15
BRANCH   8  12
ATOM      1  O   UNL     1      -2.139  -1.193   0.188  0.00  0.00    -0.420 OA
ATOM      5  N   UNL     1      -3.519  -2.873  -0.338  0.00  0.00    -0.112 NA
ATOM      7  N   UNL     1      -4.234  -1.692  -0.416  0.00  0.00    -0.107 NA
ATOM     12  C   UNL     1      -2.302  -2.534   0.017  0.00  0.00    +0.222 A 
ATOM     14  C   UNL     1      -3.389  -0.739  -0.102  0.00  0.00    +0.248 A 
BRANCH  14  16
ATOM     16  C   UNL     1      -3.576   0.680  -0.017  0.00  0.00    +0.038 A 
ATOM     19  C   UNL     1      -4.824   1.237  -0.297  0.00  0.00    +0.013 A 
ATOM     20  C   UNL     1      -2.510   1.504   0.345  0.00  0.00    +0.013 A 
ATOM     21  C   UNL     1      -5.006   2.618  -0.214  0.00  0.00    +0.004 A 
ATOM     22  C   UNL     1      -2.692   2.885   0.427  0.00  0.00    +0.004 A 
ATOM     24  C   UNL     1      -3.940   3.442   0.147  0.00  0.00    -0.050 A 
ATOM     27  C   UNL     1      -4.135   4.918   0.235  0.00  0.00    +0.044 C 
ENDBRANCH  14  16
ENDBRANCH   8  12
TORSDOF 4
