MODEL 1
REMARK VINA RESULT:      -6.0      0.000      0.000
REMARK  Name = 75368502
REMARK  3 active torsions:
REMARK  status: ('A' for Active; 'I' for Inactive)
REMARK    1  A    between atoms: N_4  and  C_10
REMARK    2  A    between atoms: N_7  and  C_20
REMARK    3  A    between atoms: C_20  and  C_21
REMARK                            x       y       z     vdW  Elec       q    Type
REMARK                         _______ _______ _______ _____ _____    ______ ____
ROOT
ATOM      2  O   UNL     1      11.956   7.248  19.609  0.00  0.00    -0.252 OA
ATOM      3  O   UNL     1      10.885  10.843  25.418  0.00  0.00    -0.253 OA
ATOM      4  N   UNL     1      12.835   9.366  19.065  0.00  0.00    -0.280 N 
ATOM      5  N   UNL     1      12.054   9.024  21.144  0.00  0.00    -0.278 N 
ATOM      6  N   UNL     1      11.181  10.775  23.120  0.00  0.00    -0.282 N 
ATOM      7  N   UNL     1      11.936  12.611  24.404  0.00  0.00    -0.300 N 
ATOM      8  C   UNL     1      12.623  10.362  21.181  0.00  0.00    +0.112 C 
ATOM      9  C   UNL     1      12.943  10.659  19.718  0.00  0.00    +0.133 C 
ATOM     11  C   UNL     1      11.641  11.332  21.831  0.00  0.00    +0.133 C 
ATOM     12  C   UNL     1      11.471   8.451  22.345  0.00  0.00    +0.128 C 
ATOM     13  C   UNL     1      12.249   8.399  19.904  0.00  0.00    +0.305 C 
ATOM     14  C   UNL     1      10.529   9.460  23.002  0.00  0.00    +0.128 C 
ATOM     19  C   UNL     1      11.304  11.374  24.383  0.00  0.00    +0.302 C 
ATOM     22  H   UNL     1      12.312  13.029  23.566  0.00  0.00    +0.150 HD
ENDROOT
BRANCH   4  10
ATOM      1  O   UNL     1      13.301  10.256  15.005  0.00  0.00    -0.380 OA
ATOM     10  C   UNL     1      13.169   9.185  17.674  0.00  0.00    +0.082 C 
ATOM     15  C   UNL     1      14.254  10.171  17.239  0.00  0.00    +0.050 C 
ATOM     16  C   UNL     1      11.933   9.329  16.786  0.00  0.00    +0.050 C 
ATOM     17  C   UNL     1      14.509  10.063  15.741  0.00  0.00    +0.161 C 
ATOM     18  C   UNL     1      12.320   9.266  15.314  0.00  0.00    +0.161 C 
ENDBRANCH   4  10
BRANCH   7  20
ATOM     20  C   UNL     1      12.142  13.349  25.630  0.00  0.00    +0.102 C 
ATOM     21  C   UNL     1      11.006  14.316  25.892  0.00  0.00    +0.024 C 
ENDBRANCH   7  20
TORSDOF 2
ENDMDL
MODEL 2
REMARK VINA RESULT:      -5.8      6.651      8.711
REMARK  Name = 75368502
REMARK  3 active torsions:
REMARK  status: ('A' for Active; 'I' for Inactive)
REMARK    1  A    between atoms: N_4  and  C_10
REMARK    2  A    between atoms: N_7  and  C_20
REMARK    3  A    between atoms: C_20  and  C_21
REMARK                            x       y       z     vdW  Elec       q    Type
REMARK                         _______ _______ _______ _____ _____    ______ ____
ROOT
ATOM      2  O   UNL     1      16.262   9.773  21.697  0.00  0.00    -0.252 OA
ATOM      3  O   UNL     1      22.301   6.407  21.769  0.00  0.00    -0.253 OA
ATOM      4  N   UNL     1      15.681   7.668  20.810  0.00  0.00    -0.280 N 
ATOM      5  N   UNL     1      17.793   8.002  21.499  0.00  0.00    -0.278 N 
ATOM      6  N   UNL     1      20.181   6.715  20.885  0.00  0.00    -0.282 N 
ATOM      7  N   UNL     1      21.181   4.575  20.966  0.00  0.00    -0.300 N 
ATOM      8  C   UNL     1      17.745   6.596  21.131  0.00  0.00    +0.112 C 
ATOM      9  C   UNL     1      16.381   6.444  20.463  0.00  0.00    +0.133 C 
ATOM     11  C   UNL     1      18.936   6.244  20.246  0.00  0.00    +0.133 C 
ATOM     12  C   UNL     1      19.022   8.573  22.023  0.00  0.00    +0.128 C 
ATOM     13  C   UNL     1      16.543   8.625  21.380  0.00  0.00    +0.305 C 
ATOM     14  C   UNL     1      20.205   8.164  21.144  0.00  0.00    +0.128 C 
ATOM     19  C   UNL     1      21.289   5.932  21.240  0.00  0.00    +0.302 C 
ATOM     22  H   UNL     1      20.341   4.178  20.569  0.00  0.00    +0.150 HD
ENDROOT
BRANCH   4  10
ATOM      1  O   UNL     1      11.715   6.788  19.817  0.00  0.00    -0.380 OA
ATOM     10  C   UNL     1      14.299   7.882  20.456  0.00  0.00    +0.082 C 
ATOM     15  C   UNL     1      13.367   7.305  21.523  0.00  0.00    +0.050 C 
ATOM     16  C   UNL     1      13.979   7.281  19.088  0.00  0.00    +0.050 C 
ATOM     17  C   UNL     1      11.913   7.417  21.083  0.00  0.00    +0.161 C 
ATOM     18  C   UNL     1      12.490   7.397  18.786  0.00  0.00    +0.161 C 
ENDBRANCH   4  10
BRANCH   7  20
ATOM     20  C   UNL     1      22.237   3.639  21.278  0.00  0.00    +0.102 C 
ATOM     21  C   UNL     1      22.214   3.245  22.741  0.00  0.00    +0.024 C 
ENDBRANCH   7  20
TORSDOF 2
ENDMDL
MODEL 3
REMARK VINA RESULT:      -5.8     26.800     28.351
REMARK  Name = 75368502
REMARK  3 active torsions:
REMARK  status: ('A' for Active; 'I' for Inactive)
REMARK    1  A    between atoms: N_4  and  C_10
REMARK    2  A    between atoms: N_7  and  C_20
REMARK    3  A    between atoms: C_20  and  C_21
REMARK                            x       y       z     vdW  Elec       q    Type
REMARK                         _______ _______ _______ _____ _____    ______ ____
ROOT
ATOM      2  O   UNL     1      -5.547 -12.339  18.416  0.00  0.00    -0.252 OA
ATOM      3  O   UNL     1     -11.087  -8.272  17.656  0.00  0.00    -0.253 OA
ATOM      4  N   UNL     1      -4.950 -11.008  16.565  0.00  0.00    -0.280 N 
ATOM      5  N   UNL     1      -6.905 -10.605  17.597  0.00  0.00    -0.278 N 
ATOM      6  N   UNL     1      -9.228  -9.325  16.760  0.00  0.00    -0.282 N 
ATOM      7  N   UNL     1      -9.975  -7.238  15.939  0.00  0.00    -0.300 N 
ATOM      8  C   UNL     1      -6.792  -9.552  16.601  0.00  0.00    +0.112 C 
ATOM      9  C   UNL     1      -5.581  -9.968  15.770  0.00  0.00    +0.133 C 
ATOM     11  C   UNL     1      -8.095  -9.428  15.817  0.00  0.00    +0.133 C 
ATOM     12  C   UNL     1      -8.055 -10.644  18.485  0.00  0.00    +0.128 C 
ATOM     13  C   UNL     1      -5.771 -11.429  17.629  0.00  0.00    +0.305 C 
ATOM     14  C   UNL     1      -9.343 -10.470  17.680  0.00  0.00    +0.128 C 
ATOM     19  C   UNL     1     -10.160  -8.280  16.839  0.00  0.00    +0.302 C 
ATOM     22  H   UNL     1      -9.196  -7.224  15.296  0.00  0.00    +0.150 HD
ENDROOT
BRANCH   4  10
ATOM      1  O   UNL     1      -1.532 -11.808  14.292  0.00  0.00    -0.380 OA
ATOM     10  C   UNL     1      -3.695 -11.605  16.180  0.00  0.00    +0.082 C 
ATOM     15  C   UNL     1      -2.596 -10.546  16.075  0.00  0.00    +0.050 C 
ATOM     16  C   UNL     1      -3.826 -12.368  14.863  0.00  0.00    +0.050 C 
ATOM     17  C   UNL     1      -1.307 -11.160  15.544  0.00  0.00    +0.161 C 
ATOM     18  C   UNL     1      -2.468 -12.881  14.402  0.00  0.00    +0.161 C 
ENDBRANCH   4  10
BRANCH   7  20
ATOM     20  C   UNL     1     -10.850  -6.088  15.901  0.00  0.00    +0.102 C 
ATOM     21  C   UNL     1     -11.722  -6.096  14.664  0.00  0.00    +0.024 C 
ENDBRANCH   7  20
TORSDOF 2
ENDMDL
MODEL 4
REMARK VINA RESULT:      -5.5     26.844     28.401
REMARK  Name = 75368502
REMARK  3 active torsions:
REMARK  status: ('A' for Active; 'I' for Inactive)
REMARK    1  A    between atoms: N_4  and  C_10
REMARK    2  A    between atoms: N_7  and  C_20
REMARK    3  A    between atoms: C_20  and  C_21
REMARK                            x       y       z     vdW  Elec       q    Type
REMARK                         _______ _______ _______ _____ _____    ______ ____
ROOT
ATOM      2  O   UNL     1      -3.554 -11.886  18.692  0.00  0.00    -0.252 OA
ATOM      3  O   UNL     1     -10.153 -10.797  20.448  0.00  0.00    -0.253 OA
ATOM      4  N   UNL     1      -4.476 -11.034  16.698  0.00  0.00    -0.280 N 
ATOM      5  N   UNL     1      -5.783 -11.164  18.521  0.00  0.00    -0.278 N 
ATOM      6  N   UNL     1      -8.546 -11.229  18.835  0.00  0.00    -0.282 N 
ATOM      7  N   UNL     1     -10.476  -9.957  18.339  0.00  0.00    -0.300 N 
ATOM      8  C   UNL     1      -6.607 -10.496  17.525  0.00  0.00    +0.112 C 
ATOM      9  C   UNL     1      -5.791 -10.617  16.241  0.00  0.00    +0.133 C 
ATOM     11  C   UNL     1      -7.989 -11.141  17.469  0.00  0.00    +0.133 C 
ATOM     12  C   UNL     1      -6.306 -11.398  19.856  0.00  0.00    +0.128 C 
ATOM     13  C   UNL     1      -4.486 -11.416  18.053  0.00  0.00    +0.305 C 
ATOM     14  C   UNL     1      -7.709 -11.999  19.771  0.00  0.00    +0.128 C 
ATOM     19  C   UNL     1      -9.752 -10.672  19.285  0.00  0.00    +0.302 C 
ATOM     22  H   UNL     1     -10.133  -9.822  17.399  0.00  0.00    +0.150 HD
ENDROOT
BRANCH   4  10
ATOM      1  O   UNL     1      -1.457  -9.920  14.027  0.00  0.00    -0.380 OA
ATOM     10  C   UNL     1      -3.361 -11.162  15.793  0.00  0.00    +0.082 C 
ATOM     15  C   UNL     1      -2.147 -10.388  16.310  0.00  0.00    +0.050 C 
ATOM     16  C   UNL     1      -3.732 -10.691  14.387  0.00  0.00    +0.050 C 
ATOM     17  C   UNL     1      -1.016 -10.419  15.290  0.00  0.00    +0.161 C 
ATOM     18  C   UNL     1      -2.512 -10.708  13.476  0.00  0.00    +0.161 C 
ENDBRANCH   4  10
BRANCH   7  20
ATOM     20  C   UNL     1     -11.735  -9.320  18.653  0.00  0.00    +0.102 C 
ATOM     21  C   UNL     1     -12.910 -10.179  18.234  0.00  0.00    +0.024 C 
ENDBRANCH   7  20
TORSDOF 2
ENDMDL
MODEL 5
REMARK VINA RESULT:      -5.5     27.230     29.576
REMARK  Name = 75368502
REMARK  3 active torsions:
REMARK  status: ('A' for Active; 'I' for Inactive)
REMARK    1  A    between atoms: N_4  and  C_10
REMARK    2  A    between atoms: N_7  and  C_20
REMARK    3  A    between atoms: C_20  and  C_21
REMARK                            x       y       z     vdW  Elec       q    Type
REMARK                         _______ _______ _______ _____ _____    ______ ____
ROOT
ATOM      2  O   UNL     1     -15.130   1.762  33.972  0.00  0.00    -0.252 OA
ATOM      3  O   UNL     1     -12.995   8.193  35.349  0.00  0.00    -0.253 OA
ATOM      4  N   UNL     1     -14.683   2.621  31.822  0.00  0.00    -0.280 N 
ATOM      5  N   UNL     1     -14.247   3.910  33.611  0.00  0.00    -0.278 N 
ATOM      6  N   UNL     1     -13.956   6.660  33.901  0.00  0.00    -0.282 N 
ATOM      7  N   UNL     1     -12.648   8.458  33.098  0.00  0.00    -0.300 N 
ATOM      8  C   UNL     1     -13.753   4.675  32.477  0.00  0.00    +0.112 C 
ATOM      9  C   UNL     1     -14.254   3.893  31.266  0.00  0.00    +0.133 C 
ATOM     11  C   UNL     1     -14.249   6.115  32.560  0.00  0.00    +0.133 C 
ATOM     12  C   UNL     1     -14.105   4.436  34.957  0.00  0.00    +0.128 C 
ATOM     13  C   UNL     1     -14.732   2.651  33.230  0.00  0.00    +0.305 C 
ATOM     14  C   UNL     1     -14.564   5.893  35.001  0.00  0.00    +0.128 C 
ATOM     19  C   UNL     1     -13.189   7.798  34.194  0.00  0.00    +0.302 C 
ATOM     22  H   UNL     1     -12.773   8.116  32.156  0.00  0.00    +0.150 HD
ENDROOT
BRANCH   4  10
ATOM      1  O   UNL     1     -15.151   0.243  28.414  0.00  0.00    -0.380 OA
ATOM     10  C   UNL     1     -15.133   1.536  30.986  0.00  0.00    +0.082 C 
ATOM     15  C   UNL     1     -13.950   0.714  30.473  0.00  0.00    +0.050 C 
ATOM     16  C   UNL     1     -15.969   2.051  29.815  0.00  0.00    +0.050 C 
ATOM     17  C   UNL     1     -14.420  -0.348  29.487  0.00  0.00    +0.161 C 
ATOM     18  C   UNL     1     -16.327   0.913  28.868  0.00  0.00    +0.161 C 
ENDBRANCH   4  10
BRANCH   7  20
ATOM     20  C   UNL     1     -11.831   9.642  33.239  0.00  0.00    +0.102 C 
ATOM     21  C   UNL     1     -10.555   9.535  32.429  0.00  0.00    +0.024 C 
ENDBRANCH   7  20
TORSDOF 2
ENDMDL
MODEL 6
REMARK VINA RESULT:      -5.5     13.690     17.973
REMARK  Name = 75368502
REMARK  3 active torsions:
REMARK  status: ('A' for Active; 'I' for Inactive)
REMARK    1  A    between atoms: N_4  and  C_10
REMARK    2  A    between atoms: N_7  and  C_20
REMARK    3  A    between atoms: C_20  and  C_21
REMARK                            x       y       z     vdW  Elec       q    Type
REMARK                         _______ _______ _______ _____ _____    ______ ____
ROOT
ATOM      2  O   UNL     1       9.824   7.331   0.975  0.00  0.00    -0.252 OA
ATOM      3  O   UNL     1       8.242   7.684   7.697  0.00  0.00    -0.253 OA
ATOM      4  N   UNL     1      10.971   5.475   1.865  0.00  0.00    -0.280 N 
ATOM      5  N   UNL     1       9.687   6.708   3.236  0.00  0.00    -0.278 N 
ATOM      6  N   UNL     1       9.673   7.019   6.000  0.00  0.00    -0.282 N 
ATOM      7  N   UNL     1       9.445   5.754   7.984  0.00  0.00    -0.300 N 
ATOM      8  C   UNL     1      10.141   5.597   4.058  0.00  0.00    +0.112 C 
ATOM      9  C   UNL     1      11.180   4.901   3.184  0.00  0.00    +0.133 C 
ATOM     11  C   UNL     1      10.670   6.114   5.393  0.00  0.00    +0.133 C 
ATOM     12  C   UNL     1       8.799   7.711   3.799  0.00  0.00    +0.128 C 
ATOM     13  C   UNL     1      10.119   6.596   1.907  0.00  0.00    +0.305 C 
ATOM     14  C   UNL     1       9.327   8.175   5.157  0.00  0.00    +0.128 C 
ATOM     19  C   UNL     1       9.066   6.875   7.257  0.00  0.00    +0.302 C 
ATOM     22  H   UNL     1      10.090   5.072   7.611  0.00  0.00    +0.150 HD
ENDROOT
BRANCH   4  10
ATOM      1  O   UNL     1      12.372   2.845  -1.069  0.00  0.00    -0.380 OA
ATOM     10  C   UNL     1      11.691   5.005   0.707  0.00  0.00    +0.082 C 
ATOM     15  C   UNL     1      10.727   4.488  -0.361  0.00  0.00    +0.050 C 
ATOM     16  C   UNL     1      12.698   3.920   1.084  0.00  0.00    +0.050 C 
ATOM     17  C   UNL     1      11.494   3.874  -1.526  0.00  0.00    +0.161 C 
ATOM     18  C   UNL     1      13.356   3.341  -0.161  0.00  0.00    +0.161 C 
ENDBRANCH   4  10
BRANCH   7  20
ATOM     20  C   UNL     1       8.903   5.465   9.293  0.00  0.00    +0.102 C 
ATOM     21  C   UNL     1       9.644   4.326   9.961  0.00  0.00    +0.024 C 
ENDBRANCH   7  20
TORSDOF 2
ENDMDL
MODEL 7
REMARK VINA RESULT:      -5.4     27.515     29.351
REMARK  Name = 75368502
REMARK  3 active torsions:
REMARK  status: ('A' for Active; 'I' for Inactive)
REMARK    1  A    between atoms: N_4  and  C_10
REMARK    2  A    between atoms: N_7  and  C_20
REMARK    3  A    between atoms: C_20  and  C_21
REMARK                            x       y       z     vdW  Elec       q    Type
REMARK                         _______ _______ _______ _____ _____    ______ ____
ROOT
ATOM      2  O   UNL     1     -10.583  -9.996  19.348  0.00  0.00    -0.252 OA
ATOM      3  O   UNL     1      -4.035 -11.875  18.161  0.00  0.00    -0.253 OA
ATOM      4  N   UNL     1     -10.121  -8.955  17.284  0.00  0.00    -0.280 N 
ATOM      5  N   UNL     1      -8.543 -10.258  18.211  0.00  0.00    -0.278 N 
ATOM      6  N   UNL     1      -5.788 -10.390  17.856  0.00  0.00    -0.282 N 
ATOM      7  N   UNL     1      -4.175 -10.753  16.166  0.00  0.00    -0.300 N 
ATOM      8  C   UNL     1      -7.995  -9.881  16.918  0.00  0.00    +0.112 C 
ATOM      9  C   UNL     1      -8.972  -8.827  16.404  0.00  0.00    +0.133 C 
ATOM     11  C   UNL     1      -6.557  -9.397  17.078  0.00  0.00    +0.133 C 
ATOM     12  C   UNL     1      -7.790 -11.137  19.089  0.00  0.00    +0.128 C 
ATOM     13  C   UNL     1      -9.844  -9.769  18.399  0.00  0.00    +0.305 C 
ATOM     14  C   UNL     1      -6.342 -10.657  19.194  0.00  0.00    +0.128 C 
ATOM     19  C   UNL     1      -4.626 -11.059  17.444  0.00  0.00    +0.302 C 
ATOM     22  H   UNL     1      -4.676 -10.115  15.565  0.00  0.00    +0.150 HD
ENDROOT
BRANCH   4  10
ATOM      1  O   UNL     1     -13.281  -7.117  15.252  0.00  0.00    -0.380 OA
ATOM     10  C   UNL     1     -11.331  -8.199  17.072  0.00  0.00    +0.082 C 
ATOM     15  C   UNL     1     -12.407  -9.064  16.415  0.00  0.00    +0.050 C 
ATOM     16  C   UNL     1     -11.064  -6.952  16.230  0.00  0.00    +0.050 C 
ATOM     17  C   UNL     1     -13.635  -8.229  16.075  0.00  0.00    +0.161 C 
ATOM     18  C   UNL     1     -12.367  -6.235  15.903  0.00  0.00    +0.161 C 
ENDBRANCH   4  10
BRANCH   7  20
ATOM     20  C   UNL     1      -2.994 -11.364  15.599  0.00  0.00    +0.102 C 
ATOM     21  C   UNL     1      -1.758 -10.528  15.857  0.00  0.00    +0.024 C 
ENDBRANCH   7  20
TORSDOF 2
ENDMDL
MODEL 8
REMARK VINA RESULT:      -5.3      1.858      2.816
REMARK  Name = 75368502
REMARK  3 active torsions:
REMARK  status: ('A' for Active; 'I' for Inactive)
REMARK    1  A    between atoms: N_4  and  C_10
REMARK    2  A    between atoms: N_7  and  C_20
REMARK    3  A    between atoms: C_20  and  C_21
REMARK                            x       y       z     vdW  Elec       q    Type
REMARK                         _______ _______ _______ _____ _____    ______ ____
ROOT
ATOM      2  O   UNL     1      13.799   8.036  16.759  0.00  0.00    -0.252 OA
ATOM      3  O   UNL     1      10.651   8.523  22.896  0.00  0.00    -0.253 OA
ATOM      4  N   UNL     1      14.221  10.273  17.371  0.00  0.00    -0.280 N 
ATOM      5  N   UNL     1      13.123   8.949  18.816  0.00  0.00    -0.278 N 
ATOM      6  N   UNL     1      11.440   9.515  20.957  0.00  0.00    -0.282 N 
ATOM      7  N   UNL     1      11.423  10.678  23.015  0.00  0.00    -0.300 N 
ATOM      8  C   UNL     1      13.320  10.196  19.538  0.00  0.00    +0.112 C 
ATOM      9  C   UNL     1      13.862  11.147  18.475  0.00  0.00    +0.133 C 
ATOM     11  C   UNL     1      12.012  10.639  20.187  0.00  0.00    +0.133 C 
ATOM     12  C   UNL     1      12.456   7.833  19.465  0.00  0.00    +0.128 C 
ATOM     13  C   UNL     1      13.727   8.966  17.551  0.00  0.00    +0.305 C 
ATOM     14  C   UNL     1      11.175   8.314  20.148  0.00  0.00    +0.128 C 
ATOM     19  C   UNL     1      11.136   9.506  22.326  0.00  0.00    +0.302 C 
ATOM     22  H   UNL     1      11.854  11.470  22.560  0.00  0.00    +0.150 HD
ENDROOT
BRANCH   4  10
ATOM      1  O   UNL     1      15.405  12.952  14.386  0.00  0.00    -0.380 OA
ATOM     10  C   UNL     1      14.879  10.770  16.188  0.00  0.00    +0.082 C 
ATOM     15  C   UNL     1      15.842  11.906  16.536  0.00  0.00    +0.050 C 
ATOM     16  C   UNL     1      13.864  11.234  15.144  0.00  0.00    +0.050 C 
ATOM     17  C   UNL     1      16.436  12.513  15.271  0.00  0.00    +0.161 C 
ATOM     18  C   UNL     1      14.570  11.877  13.957  0.00  0.00    +0.161 C 
ENDBRANCH   4  10
BRANCH   7  20
ATOM     20  C   UNL     1      11.172  10.821  24.431  0.00  0.00    +0.102 C 
ATOM     21  C   UNL     1      10.878  12.260  24.801  0.00  0.00    +0.024 C 
ENDBRANCH   7  20
TORSDOF 2
ENDMDL
MODEL 9
REMARK VINA RESULT:      -5.3     27.084     28.643
REMARK  Name = 75368502
REMARK  3 active torsions:
REMARK  status: ('A' for Active; 'I' for Inactive)
REMARK    1  A    between atoms: N_4  and  C_10
REMARK    2  A    between atoms: N_7  and  C_20
REMARK    3  A    between atoms: C_20  and  C_21
REMARK                            x       y       z     vdW  Elec       q    Type
REMARK                         _______ _______ _______ _____ _____    ______ ____
ROOT
ATOM      2  O   UNL     1      -6.237  -9.803  13.048  0.00  0.00    -0.252 OA
ATOM      3  O   UNL     1     -11.340  -9.163  17.668  0.00  0.00    -0.253 OA
ATOM      4  N   UNL     1      -5.191 -10.462  15.055  0.00  0.00    -0.280 N 
ATOM      5  N   UNL     1      -7.379  -9.954  15.095  0.00  0.00    -0.278 N 
ATOM      6  N   UNL     1      -9.080  -9.194  17.161  0.00  0.00    -0.282 N 
ATOM      7  N   UNL     1      -9.883  -9.962  19.248  0.00  0.00    -0.300 N 
ATOM      8  C   UNL     1      -7.087 -10.426  16.439  0.00  0.00    +0.112 C 
ATOM      9  C   UNL     1      -5.566 -10.553  16.455  0.00  0.00    +0.133 C 
ATOM     11  C   UNL     1      -7.660  -9.461  17.472  0.00  0.00    +0.133 C 
ATOM     12  C   UNL     1      -8.732  -9.556  14.745  0.00  0.00    +0.128 C 
ATOM     13  C   UNL     1      -6.267 -10.046  14.247  0.00  0.00    +0.305 C 
ATOM     14  C   UNL     1      -9.299  -8.628  15.820  0.00  0.00    +0.128 C 
ATOM     19  C   UNL     1     -10.179  -9.420  18.003  0.00  0.00    +0.302 C 
ATOM     22  H   UNL     1      -8.939 -10.207  19.509  0.00  0.00    +0.150 HD
ENDROOT
BRANCH   4  10
ATOM      1  O   UNL     1      -1.432 -12.237  14.598  0.00  0.00    -0.380 OA
ATOM     10  C   UNL     1      -3.829 -10.643  14.617  0.00  0.00    +0.082 C 
ATOM     15  C   UNL     1      -3.692 -11.907  13.768  0.00  0.00    +0.050 C 
ATOM     16  C   UNL     1      -2.868 -10.694  15.805  0.00  0.00    +0.050 C 
ATOM     17  C   UNL     1      -2.231 -12.164  13.418  0.00  0.00    +0.161 C 
ATOM     18  C   UNL     1      -1.455 -11.017  15.339  0.00  0.00    +0.161 C 
ENDBRANCH   4  10
BRANCH   7  20
ATOM     20  C   UNL     1     -10.908 -10.256  20.223  0.00  0.00    +0.102 C 
ATOM     21  C   UNL     1     -11.268 -11.727  20.223  0.00  0.00    +0.024 C 
ENDBRANCH   7  20
TORSDOF 2
ENDMDL
MODEL 10
REMARK VINA RESULT:      -5.3     27.334     29.602
REMARK  Name = 75368502
REMARK  3 active torsions:
REMARK  status: ('A' for Active; 'I' for Inactive)
REMARK    1  A    between atoms: N_4  and  C_10
REMARK    2  A    between atoms: N_7  and  C_20
REMARK    3  A    between atoms: C_20  and  C_21
REMARK                            x       y       z     vdW  Elec       q    Type
REMARK                         _______ _______ _______ _____ _____    ______ ____
ROOT
ATOM      2  O   UNL     1      -5.272 -10.972   7.131  0.00  0.00    -0.252 OA
ATOM      3  O   UNL     1     -10.490  -6.490   6.428  0.00  0.00    -0.253 OA
ATOM      4  N   UNL     1      -5.123  -9.703   9.112  0.00  0.00    -0.280 N 
ATOM      5  N   UNL     1      -6.805  -9.280   7.684  0.00  0.00    -0.278 N 
ATOM      6  N   UNL     1      -8.426  -7.049   7.320  0.00  0.00    -0.282 N 
ATOM      7  N   UNL     1      -9.946  -5.677   8.501  0.00  0.00    -0.300 N 
ATOM      8  C   UNL     1      -7.073  -8.427   8.831  0.00  0.00    +0.112 C 
ATOM      9  C   UNL     1      -5.814  -8.561   9.684  0.00  0.00    +0.133 C 
ATOM     11  C   UNL     1      -7.385  -7.007   8.368  0.00  0.00    +0.133 C 
ATOM     12  C   UNL     1      -7.721  -9.286   6.556  0.00  0.00    +0.128 C 
ATOM     13  C   UNL     1      -5.685 -10.099   7.882  0.00  0.00    +0.305 C 
ATOM     14  C   UNL     1      -8.054  -7.853   6.144  0.00  0.00    +0.128 C 
ATOM     19  C   UNL     1      -9.674  -6.409   7.352  0.00  0.00    +0.302 C 
ATOM     22  H   UNL     1      -9.297  -5.641   9.274  0.00  0.00    +0.150 HD
ENDROOT
BRANCH   4  10
ATOM      1  O   UNL     1      -2.326 -10.734  12.046  0.00  0.00    -0.380 OA
ATOM     10  C   UNL     1      -3.920 -10.239   9.701  0.00  0.00    +0.082 C 
ATOM     15  C   UNL     1      -4.249 -11.354  10.694  0.00  0.00    +0.050 C 
ATOM     16  C   UNL     1      -3.103  -9.143  10.383  0.00  0.00    +0.050 C 
ATOM     17  C   UNL     1      -2.988 -11.827  11.408  0.00  0.00    +0.161 C 
ATOM     18  C   UNL     1      -1.906  -9.740  11.112  0.00  0.00    +0.161 C 
ENDBRANCH   4  10
BRANCH   7  20
ATOM     20  C   UNL     1     -11.191  -4.967   8.685  0.00  0.00    +0.102 C 
ATOM     21  C   UNL     1     -10.974  -3.634   9.369  0.00  0.00    +0.024 C 
ENDBRANCH   7  20
TORSDOF 2
ENDMDL
