REMARK  Name = 7143880
REMARK  8 active torsions:
REMARK  status: ('A' for Active; 'I' for Inactive)
REMARK    1  A    between atoms: N_5  and  C_20
REMARK    2  A    between atoms: N_6  and  C_25
REMARK    3  A    between atoms: N_6  and  C_29
REMARK    4  A    between atoms: N_6  and  C_30
REMARK    5  A    between atoms: C_17  and  C_19
REMARK    6  A    between atoms: C_20  and  C_23
REMARK    7  A    between atoms: C_20  and  C_24
REMARK    8  A    between atoms: C_21  and  C_25
REMARK                            x       y       z     vdW  Elec       q    Type
REMARK                         _______ _______ _______ _____ _____    ______ ____
ROOT
ATOM      1  O   UNL     1       1.157   1.502   1.763  0.00  0.00    -0.267 OA
ATOM      2  O   UNL     1      -2.928  -1.648   1.576  0.00  0.00    -0.253 OA
ATOM      3  N   UNL     1      -3.379   0.162   0.200  0.00  0.00    -0.285 N 
ATOM      4  N   UNL     1      -0.696   1.821   0.384  0.00  0.00    -0.311 N 
ATOM      5  N   UNL     1      -2.660  -1.911  -0.685  0.00  0.00    -0.297 N 
ATOM      7  C   UNL     1      -3.023   2.364   1.308  0.00  0.00    +0.027 C 
ATOM      8  C   UNL     1      -2.690   2.147  -1.121  0.00  0.00    +0.054 C 
ATOM      9  C   UNL     1      -3.234   3.067  -0.028  0.00  0.00    +0.018 C 
ATOM     10  C   UNL     1      -3.760   1.012   1.332  0.00  0.00    +0.114 C 
ATOM     11  C   UNL     1      -1.516   2.203   1.544  0.00  0.00    +0.130 C 
ATOM     12  C   UNL     1      -3.482   0.824  -1.112  0.00  0.00    +0.119 C 
ATOM     13  C   UNL     1      -1.214   1.864  -0.913  0.00  0.00    +0.027 A 
ATOM     14  C   UNL     1      -0.417   1.623  -1.965  0.00  0.00    +0.022 A 
ATOM     15  C   UNL     1       0.655   1.515   0.638  0.00  0.00    +0.259 A 
ATOM     16  C   UNL     1      -2.989  -1.166   0.440  0.00  0.00    +0.302 C 
ATOM     17  C   UNL     1       1.515   1.211  -0.559  0.00  0.00    +0.047 A 
ATOM     18  C   UNL     1       0.966   1.287  -1.781  0.00  0.00    +0.015 A 
ATOM     31  H   UNL     1      -2.852  -1.563  -1.614  0.00  0.00    +0.150 HD
ENDROOT
BRANCH  17  19
ATOM     19  C   UNL     1       2.929   0.828  -0.406  0.00  0.00    -0.008 A 
ATOM     21  C   UNL     1       3.310  -0.508  -0.257  0.00  0.00    -0.026 A 
ATOM     22  C   UNL     1       3.903   1.830  -0.410  0.00  0.00    +0.009 A 
ATOM     26  C   UNL     1       4.657  -0.840  -0.114  0.00  0.00    +0.005 A 
ATOM     27  C   UNL     1       5.250   1.498  -0.266  0.00  0.00    +0.001 A 
ATOM     28  C   UNL     1       5.627   0.163  -0.118  0.00  0.00    +0.000 A 
BRANCH  21  25
ATOM     25  C   UNL     1       2.299  -1.608  -0.247  0.00  0.00    +0.119 C 
BRANCH  25   6
ATOM      6  N   UNL     1       2.543  -2.576   0.822  0.00  0.00    -0.304 NA
ATOM     29  C   UNL     1       1.532  -3.633   0.795  0.00  0.00    +0.104 C 
ATOM     30  C   UNL     1       2.550  -1.908   2.123  0.00  0.00    +0.104 C 
ENDBRANCH  25   6
ENDBRANCH  21  25
ENDBRANCH  17  19
BRANCH   5  20
ATOM     20  C   UNL     1      -2.230  -3.288  -0.597  0.00  0.00    +0.068 C 
ATOM     23  C   UNL     1      -3.429  -4.227  -0.630  0.00  0.00    +0.027 C 
ATOM     24  C   UNL     1      -1.247  -3.609  -1.716  0.00  0.00    +0.027 C 
ENDBRANCH   5  20
TORSDOF 4
