REMARK  Name = 38026862
REMARK  13 active torsions:
REMARK  status: ('A' for Active; 'I' for Inactive)
REMARK    1  A    between atoms: S_1  and  N_7
REMARK    2  A    between atoms: S_1  and  C_27
REMARK    3  A    between atoms: O_6  and  C_34
REMARK    4  A    between atoms: O_6  and  C_35
REMARK    5  A    between atoms: N_7  and  C_17
REMARK    6  A    between atoms: C_10  and  C_14
REMARK    7  A    between atoms: C_11  and  C_17
REMARK    8  A    between atoms: C_13  and  C_18
REMARK    9  A    between atoms: C_14  and  C_19
REMARK   10  A    between atoms: C_14  and  C_20
REMARK   11  A    between atoms: C_15  and  C_21
REMARK   12  A    between atoms: C_18  and  C_22
REMARK   13  A    between atoms: C_28  and  C_31
REMARK                            x       y       z     vdW  Elec       q    Type
REMARK                         _______ _______ _______ _____ _____    ______ ____
ROOT
ATOM     10  C   UNL     1      -0.371  -2.236  -0.578  0.00  0.00    +0.000 C 
ATOM     11  C   UNL     1      -1.502  -2.208   0.479  0.00  0.00    +0.030 C 
ATOM     12  C   UNL     1       0.883  -2.914  -0.005  0.00  0.00    +0.012 C 
ATOM     13  C   UNL     1       1.409  -2.198   1.254  0.00  0.00    +0.023 C 
ATOM     15  C   UNL     1       0.295  -1.894   2.235  0.00  0.00    -0.073 C 
ATOM     16  C   UNL     1      -1.001  -1.917   1.874  0.00  0.00    -0.023 C 
ATOM     21  C   UNL     1       0.702  -1.608   3.654  0.00  0.00    +0.039 C 
ENDROOT
BRANCH  10  14
ATOM     14  C   UNL     1      -0.808  -2.952  -1.860  0.00  0.00    -0.013 C 
ATOM     19  C   UNL     1       0.021  -2.471  -3.047  0.00  0.00    +0.007 C 
ATOM     20  C   UNL     1      -0.686  -4.463  -1.693  0.00  0.00    +0.007 C 
ENDBRANCH  10  14
BRANCH  11  17
ATOM     17  C   UNL     1      -2.586  -1.192   0.104  0.00  0.00    +0.113 C 
BRANCH  17   7
ATOM      7  N   UNL     1      -2.013   0.163   0.151  0.00  0.00    -0.189 NA
ATOM     36  H   UNL     1      -1.621   0.458   1.054  0.00  0.00    +0.148 HD
BRANCH   7   1
ATOM      1  S   UNL     1      -2.611   1.383  -0.876  0.00  0.00    +0.058 S 
ATOM      3  O   UNL     1      -2.567   0.917  -2.249  0.00  0.00    -0.153 OA
ATOM      4  O   UNL     1      -2.002   2.649  -0.515  0.00  0.00    -0.153 OA
BRANCH   1  27
ATOM     27  C   UNL     1      -4.307   1.468  -0.384  0.00  0.00    +0.105 A 
ATOM     29  C   UNL     1      -5.257   0.667  -1.017  0.00  0.00    +0.032 A 
ATOM     30  C   UNL     1      -4.695   2.337   0.635  0.00  0.00    +0.032 A 
ATOM     32  C   UNL     1      -6.596   0.736  -0.631  0.00  0.00    +0.047 A 
ATOM     33  C   UNL     1      -6.034   2.406   1.021  0.00  0.00    +0.047 A 
ATOM     34  C   UNL     1      -6.984   1.605   0.388  0.00  0.00    +0.120 A 
BRANCH  34   6
ATOM      6  O   UNL     1      -8.290   1.672   0.764  0.00  0.00    -0.495 OA
ATOM     35  C   UNL     1      -9.209   0.826   0.075  0.00  0.00    +0.277 C 
ENDBRANCH  34   6
ENDBRANCH   1  27
ENDBRANCH   7   1
ENDBRANCH  17   7
ENDBRANCH  11  17
BRANCH  13  18
ATOM     18  C   UNL     1       2.177  -0.924   0.884  0.00  0.00    +0.103 C 
BRANCH  18  22
ATOM      2  O   UNL     1       3.851  -2.473   0.241  0.00  0.00    -0.276 OA
ATOM      5  O   UNL     1       6.826   4.006  -0.267  0.00  0.00    -0.276 OA
ATOM      8  N   UNL     1       4.345  -0.225  -0.069  0.00  0.00    -0.298 N 
ATOM      9  N   UNL     1       6.357   1.762   0.105  0.00  0.00    -0.299 N 
ATOM     22  C   UNL     1       3.529  -1.285   0.324  0.00  0.00    +0.216 C 
ATOM     23  C   UNL     1       5.675  -0.492  -0.621  0.00  0.00    +0.126 C 
ATOM     24  C   UNL     1       3.964   1.193  -0.053  0.00  0.00    +0.126 C 
ATOM     25  C   UNL     1       6.738   0.343   0.089  0.00  0.00    +0.126 C 
ATOM     26  C   UNL     1       5.026   2.028   0.657  0.00  0.00    +0.126 C 
ATOM     28  C   UNL     1       7.171   2.822  -0.290  0.00  0.00    +0.213 C 
ATOM     31  C   UNL     1       8.553   2.466  -0.775  0.00  0.00    +0.109 C 
ENDBRANCH  18  22
ENDBRANCH  13  18
TORSDOF 8
