REMARK  Name = 26745329
REMARK  4 active torsions:
REMARK  status: ('A' for Active; 'I' for Inactive)
REMARK    1  A    between atoms: N_3  and  C_19
REMARK    2  A    between atoms: N_4  and  C_7
REMARK    3  A    between atoms: C_10  and  C_15
REMARK    4  A    between atoms: C_19  and  C_20
REMARK                            x       y       z     vdW  Elec       q    Type
REMARK                         _______ _______ _______ _____ _____    ______ ____
ROOT
ATOM      3  N   UNL     1       0.443  -0.712  -0.389  0.00  0.00    -0.281 NA
ATOM      5  N   UNL     1       0.820  -4.030   1.272  0.00  0.00    -0.347 N 
ATOM      6  N   UNL     1      -0.312  -4.802  -0.495  0.00  0.00    -0.240 NA
ATOM     10  C   UNL     1      -0.793  -1.071  -1.129  0.00  0.00    +0.150 C 
ATOM     14  C   UNL     1      -0.823  -2.561  -1.577  0.00  0.00    +0.085 C 
ATOM     16  C   UNL     1       0.689  -1.509   0.835  0.00  0.00    +0.140 C 
ATOM     17  C   UNL     1      -0.250  -3.438  -0.527  0.00  0.00    +0.065 A 
ATOM     18  C   UNL     1       0.445  -2.940   0.547  0.00  0.00    +0.053 A 
ATOM     21  C   UNL     1       0.341  -5.129   0.603  0.00  0.00    +0.197 A 
ATOM     28  H   UNL     1       1.345  -4.035   2.136  0.00  0.00    +0.167 HD
ENDROOT
BRANCH  10  15
ATOM      2  O   UNL     1      -2.515  -1.582   0.449  0.00  0.00    -0.274 OA
ATOM      4  N   UNL     1      -2.459   0.539  -0.509  0.00  0.00    -0.311 N 
ATOM     15  C   UNL     1      -2.006  -0.753  -0.300  0.00  0.00    +0.231 C 
ATOM     27  H   UNL     1      -1.962   1.140  -1.158  0.00  0.00    +0.149 HD
BRANCH   4   7
ATOM      7  C   UNL     1      -3.624   1.085   0.151  0.00  0.00    +0.073 C 
ATOM      8  C   UNL     1      -3.251   1.709   1.500  0.00  0.00    +0.022 C 
ATOM      9  C   UNL     1      -4.343   2.097  -0.749  0.00  0.00    +0.022 C 
ATOM     11  C   UNL     1      -2.473   3.015   1.346  0.00  0.00    +0.002 C 
ATOM     12  C   UNL     1      -3.563   3.403  -0.899  0.00  0.00    +0.002 C 
ATOM     13  C   UNL     1      -3.213   4.010   0.456  0.00  0.00    +0.000 C 
ENDBRANCH   4   7
ENDBRANCH  10  15
BRANCH   3  19
ATOM     19  C   UNL     1       0.565   0.719  -0.126  0.00  0.00    +0.120 C 
BRANCH  19  20
ATOM      1 CL   UNL     1       6.312   2.494  -0.017  0.00  0.00    -0.084 Cl
ATOM     20  C   UNL     1       2.003   1.164  -0.099  0.00  0.00    -0.033 A 
ATOM     22  C   UNL     1       2.715   1.147   1.100  0.00  0.00    +0.006 A 
ATOM     23  C   UNL     1       2.623   1.592  -1.273  0.00  0.00    +0.006 A 
ATOM     24  C   UNL     1       4.048   1.560   1.125  0.00  0.00    +0.020 A 
ATOM     25  C   UNL     1       3.955   2.005  -1.248  0.00  0.00    +0.020 A 
ATOM     26  C   UNL     1       4.667   1.988  -0.049  0.00  0.00    +0.041 A 
ENDBRANCH  19  20
ENDBRANCH   3  19
TORSDOF 4
