REMARK  Name = 11913369
REMARK  8 active torsions:
REMARK  status: ('A' for Active; 'I' for Inactive)
REMARK    1  A    between atoms: O_5  and  C_26
REMARK    2  A    between atoms: N_7  and  C_13
REMARK    3  A    between atoms: N_8  and  C_14
REMARK    4  A    between atoms: C_17  and  C_19
REMARK    5  A    between atoms: C_19  and  C_20
REMARK    6  A    between atoms: C_20  and  C_21
REMARK    7  A    between atoms: C_21  and  C_26
REMARK    8  A    between atoms: C_22  and  C_25
REMARK                            x       y       z     vdW  Elec       q    Type
REMARK                         _______ _______ _______ _____ _____    ______ ____
ROOT
ATOM      2  O   UNL     1      -0.102   0.875   1.766  0.00  0.00    -0.370 OA
ATOM      3  O   UNL     1      -0.485   3.768   0.659  0.00  0.00    -0.370 OA
ATOM     11  C   UNL     1      -0.885   2.471   0.185  0.00  0.00    +0.171 C 
ATOM     12  C   UNL     1       0.234   1.504   0.518  0.00  0.00    +0.171 C 
ATOM     13  C   UNL     1      -2.063   1.959   0.983  0.00  0.00    +0.130 C 
ATOM     14  C   UNL     1       1.448   2.387   0.687  0.00  0.00    +0.130 C 
ATOM     15  C   UNL     1      -1.390   1.342   2.196  0.00  0.00    +0.185 C 
ATOM     16  C   UNL     1       0.846   3.687   1.189  0.00  0.00    +0.185 C 
ENDROOT
BRANCH  14   8
ATOM      8  N   UNL     1       2.091   2.595  -0.592  0.00  0.00    -0.306 N 
ATOM      9  N   UNL     1       3.309   0.627  -0.405  0.00  0.00    -0.214 NA
ATOM     10  N   UNL     1       3.524   2.051  -2.337  0.00  0.00    -0.223 NA
ATOM     18  C   UNL     1       3.015   1.720  -1.135  0.00  0.00    +0.216 A 
ATOM     22  C   UNL     1       4.214  -0.204  -0.964  0.00  0.00    +0.076 A 
ATOM     23  C   UNL     1       4.421   1.177  -2.836  0.00  0.00    +0.116 A 
ATOM     24  C   UNL     1       4.808   0.021  -2.188  0.00  0.00    +0.048 A 
ATOM     33  H   UNL     1       1.826   3.392  -1.160  0.00  0.00    +0.149 HD
BRANCH  22  25
ATOM      1  F   UNL     1       2.870  -4.291   1.223  0.00  0.00    -0.205 F 
ATOM     25  C   UNL     1       4.531  -1.377  -0.185  0.00  0.00    +0.003 A 
ATOM     27  C   UNL     1       3.527  -2.285   0.149  0.00  0.00    +0.048 A 
ATOM     28  C   UNL     1       5.843  -1.602   0.234  0.00  0.00    +0.010 A 
ATOM     29  C   UNL     1       3.834  -3.419   0.902  0.00  0.00    +0.124 A 
ATOM     30  C   UNL     1       6.150  -2.735   0.987  0.00  0.00    +0.003 A 
ATOM     31  C   UNL     1       5.146  -3.643   1.321  0.00  0.00    +0.038 A 
ENDBRANCH  22  25
ENDBRANCH  14   8
BRANCH  13   7
ATOM      4  O   UNL     1      -4.834   1.293   1.325  0.00  0.00    -0.276 OA
ATOM      7  N   UNL     1      -2.808   0.972   0.240  0.00  0.00    -0.308 N 
ATOM     17  C   UNL     1      -4.152   0.721   0.479  0.00  0.00    +0.213 C 
ATOM     32  H   UNL     1      -2.314   0.405  -0.443  0.00  0.00    +0.149 HD
BRANCH  17  19
ATOM     19  C   UNL     1      -4.686  -0.383  -0.418  0.00  0.00    +0.096 C 
BRANCH  19  20
ATOM     20  C   UNL     1      -6.164  -0.697  -0.192  0.00  0.00    +0.020 C 
BRANCH  20  21
ATOM     21  C   UNL     1      -6.673  -1.804  -1.118  0.00  0.00    +0.121 C 
BRANCH  21  26
ATOM      6  O   UNL     1      -8.862  -1.525  -0.089  0.00  0.00    -0.251 OA
ATOM     26  C   UNL     1      -8.137  -2.101  -0.889  0.00  0.00    +0.305 C 
BRANCH  26   5
ATOM      5  O   UNL     1      -8.572  -3.105  -1.695  0.00  0.00    -0.481 OA
ATOM     34  H   UNL     1      -9.522  -3.302  -1.552  0.00  0.00    +0.295 HD
ENDBRANCH  26   5
ENDBRANCH  21  26
ENDBRANCH  20  21
ENDBRANCH  19  20
ENDBRANCH  17  19
ENDBRANCH  13   7
TORSDOF 8
