MODEL 1
REMARK VINA RESULT:      -7.7      0.000      0.000
REMARK  Name = 24066823
REMARK  7 active torsions:
REMARK  status: ('A' for Active; 'I' for Inactive)
REMARK    1  A    between atoms: O_3  and  C_12
REMARK    2  A    between atoms: C_10  and  C_18
REMARK    3  A    between atoms: C_13  and  C_19
REMARK    4  A    between atoms: C_15  and  C_22
REMARK    5  A    between atoms: C_19  and  C_23
REMARK    6  A    between atoms: C_19  and  C_24
REMARK    7  A    between atoms: C_30  and  C_31
REMARK                            x       y       z     vdW  Elec       q    Type
REMARK                         _______ _______ _______ _____ _____    ______ ____
ROOT
ATOM      1  S   UNL     1      -5.582 -10.300   6.680  0.00  0.00    -0.057 S 
ATOM      5  O   UNL     1      -9.032  -7.177   6.804  0.00  0.00    -0.270 OA
ATOM      6  N   UNL     1      -7.000  -8.789   8.226  0.00  0.00    -0.229 NA
ATOM      8  N   UNL     1      -7.499  -8.705   5.870  0.00  0.00    -0.261 N 
ATOM     10  C   UNL     1      -3.815 -10.601  10.382  0.00  0.00    -0.022 C 
ATOM     11  C   UNL     1      -5.133 -10.342  11.213  0.00  0.00    +0.033 C 
ATOM     12  C   UNL     1      -4.812 -10.018  12.699  0.00  0.00    +0.123 C 
ATOM     13  C   UNL     1      -3.885 -11.067  13.352  0.00  0.00    +0.029 C 
ATOM     14  C   UNL     1      -2.957 -11.676  11.089  0.00  0.00    +0.008 C 
ATOM     15  C   UNL     1      -6.067  -9.266  10.521  0.00  0.00    +0.042 C 
ATOM     16  C   UNL     1      -2.622 -11.322  12.531  0.00  0.00    +0.007 C 
ATOM     17  C   UNL     1      -4.182 -11.152   8.968  0.00  0.00    +0.051 C 
ATOM     18  C   UNL     1      -2.969  -9.312  10.215  0.00  0.00    +0.012 C 
ATOM     20  C   UNL     1      -6.112  -9.485   9.028  0.00  0.00    +0.057 A 
ATOM     21  C   UNL     1      -5.254 -10.326   8.350  0.00  0.00    +0.015 A 
ATOM     22  C   UNL     1      -7.493  -9.244  11.090  0.00  0.00    +0.014 C 
ATOM     25  C   UNL     1      -6.819  -9.146   6.974  0.00  0.00    +0.165 A 
ATOM     30  C   UNL     1      -8.543  -7.765   5.846  0.00  0.00    +0.250 C 
ATOM     37  H   UNL     1      -7.154  -9.094   4.998  0.00  0.00    +0.157 HD
ENDROOT
BRANCH  30  31
ATOM      9  N   UNL     1     -10.088  -6.845   1.959  0.00  0.00    -0.263 NA
ATOM     31  C   UNL     1      -9.080  -7.446   4.496  0.00  0.00    +0.040 A 
ATOM     32  C   UNL     1      -8.303  -7.672   3.365  0.00  0.00    +0.033 A 
ATOM     33  C   UNL     1     -10.360  -6.922   4.360  0.00  0.00    +0.033 A 
ATOM     34  C   UNL     1      -8.849  -7.357   2.131  0.00  0.00    +0.111 A 
ATOM     35  C   UNL     1     -10.814  -6.640   3.082  0.00  0.00    +0.111 A 
ENDBRANCH  30  31
BRANCH  12   3
ATOM      3  O   UNL     1      -6.024  -9.999  13.452  0.00  0.00    -0.391 OA
ATOM     36  H   UNL     1      -6.740 -10.324  12.880  0.00  0.00    +0.210 HD
ENDBRANCH  12   3
BRANCH  13  19
ATOM     19  C   UNL     1      -3.496 -10.672  14.782  0.00  0.00    +0.078 C 
ATOM     23  C   UNL     1      -1.993 -10.506  14.915  0.00  0.00    +0.017 C 
BRANCH  19  24
ATOM      2  S   UNL     1      -7.555 -10.819  18.080  0.00  0.00    -0.158 S 
ATOM      4  O   UNL     1      -3.730 -12.921  15.486  0.00  0.00    -0.275 OA
ATOM      7  N   UNL     1      -4.712 -11.306  16.838  0.00  0.00    -0.300 N 
ATOM     24  C   UNL     1      -3.986 -11.739  15.728  0.00  0.00    +0.219 C 
ATOM     26  C   UNL     1      -5.221 -12.285  17.800  0.00  0.00    +0.118 C 
ATOM     27  C   UNL     1      -5.130  -9.922  17.088  0.00  0.00    +0.118 C 
ATOM     28  C   UNL     1      -6.738 -12.406  17.715  0.00  0.00    +0.088 C 
ATOM     29  C   UNL     1      -6.636  -9.762  16.913  0.00  0.00    +0.088 C 
ENDBRANCH  19  24
ENDBRANCH  13  19
TORSDOF 4
ENDMDL
MODEL 2
REMARK VINA RESULT:      -7.2     29.125     32.243
REMARK  Name = 24066823
REMARK  7 active torsions:
REMARK  status: ('A' for Active; 'I' for Inactive)
REMARK    1  A    between atoms: O_3  and  C_12
REMARK    2  A    between atoms: C_10  and  C_18
REMARK    3  A    between atoms: C_13  and  C_19
REMARK    4  A    between atoms: C_15  and  C_22
REMARK    5  A    between atoms: C_19  and  C_23
REMARK    6  A    between atoms: C_19  and  C_24
REMARK    7  A    between atoms: C_30  and  C_31
REMARK                            x       y       z     vdW  Elec       q    Type
REMARK                         _______ _______ _______ _____ _____    ______ ____
ROOT
ATOM      1  S   UNL     1      17.859   5.459  18.954  0.00  0.00    -0.057 S 
ATOM      5  O   UNL     1      21.356   6.060  21.966  0.00  0.00    -0.270 OA
ATOM      6  N   UNL     1      18.652   6.796  21.020  0.00  0.00    -0.229 NA
ATOM      8  N   UNL     1      20.180   5.154  20.136  0.00  0.00    -0.261 N 
ATOM     10  C   UNL     1      14.572   7.621  20.155  0.00  0.00    -0.022 C 
ATOM     11  C   UNL     1      15.387   8.820  20.782  0.00  0.00    +0.033 C 
ATOM     12  C   UNL     1      14.484   9.709  21.683  0.00  0.00    +0.123 C 
ATOM     13  C   UNL     1      13.193  10.166  20.968  0.00  0.00    +0.029 C 
ATOM     14  C   UNL     1      13.313   8.164  19.441  0.00  0.00    +0.008 C 
ATOM     15  C   UNL     1      16.706   8.325  21.506  0.00  0.00    +0.042 C 
ATOM     16  C   UNL     1      12.423   9.000  20.351  0.00  0.00    +0.007 C 
ATOM     17  C   UNL     1      15.442   6.896  19.081  0.00  0.00    +0.051 C 
ATOM     18  C   UNL     1      14.137   6.588  21.229  0.00  0.00    +0.012 C 
ATOM     20  C   UNL     1      17.390   7.255  20.688  0.00  0.00    +0.057 A 
ATOM     21  C   UNL     1      16.804   6.621  19.613  0.00  0.00    +0.015 A 
ATOM     22  C   UNL     1      17.693   9.461  21.813  0.00  0.00    +0.014 C 
ATOM     25  C   UNL     1      19.005   5.858  20.168  0.00  0.00    +0.165 A 
ATOM     30  C   UNL     1      21.266   5.291  21.016  0.00  0.00    +0.250 C 
ATOM     37  H   UNL     1      20.209   4.447  19.408  0.00  0.00    +0.157 HD
ENDROOT
BRANCH  30  31
ATOM      9  N   UNL     1      24.552   2.641  20.295  0.00  0.00    -0.263 NA
ATOM     31  C   UNL     1      22.407   4.371  20.765  0.00  0.00    +0.040 A 
ATOM     32  C   UNL     1      22.326   3.037  21.150  0.00  0.00    +0.033 A 
ATOM     33  C   UNL     1      23.559   4.840  20.145  0.00  0.00    +0.033 A 
ATOM     34  C   UNL     1      23.416   2.221  20.894  0.00  0.00    +0.111 A 
ATOM     35  C   UNL     1      24.594   3.944  19.934  0.00  0.00    +0.111 A 
ENDBRANCH  30  31
BRANCH  12   3
ATOM      3  O   UNL     1      15.199  10.886  22.056  0.00  0.00    -0.391 OA
ATOM     36  H   UNL     1      14.593  11.643  21.988  0.00  0.00    +0.210 HD
ENDBRANCH  12   3
BRANCH  13  19
ATOM     19  C   UNL     1      12.269  10.951  21.907  0.00  0.00    +0.078 C 
ATOM     23  C   UNL     1      10.898  10.307  21.991  0.00  0.00    +0.017 C 
BRANCH  19  24
ATOM      2  S   UNL     1      13.133  15.578  24.192  0.00  0.00    -0.158 S 
ATOM      4  O   UNL     1      12.270  12.580  20.187  0.00  0.00    -0.275 OA
ATOM      7  N   UNL     1      11.901  13.356  22.346  0.00  0.00    -0.300 N 
ATOM     24  C   UNL     1      12.148  12.365  21.395  0.00  0.00    +0.219 C 
ATOM     26  C   UNL     1      11.773  14.751  21.924  0.00  0.00    +0.118 C 
ATOM     27  C   UNL     1      11.869  13.146  23.798  0.00  0.00    +0.118 C 
ATOM     28  C   UNL     1      12.971  15.578  22.377  0.00  0.00    +0.088 C 
ATOM     29  C   UNL     1      13.081  13.778  24.472  0.00  0.00    +0.088 C 
ENDBRANCH  19  24
ENDBRANCH  13  19
TORSDOF 4
ENDMDL
MODEL 3
REMARK VINA RESULT:      -6.9     29.271     33.266
REMARK  Name = 24066823
REMARK  7 active torsions:
REMARK  status: ('A' for Active; 'I' for Inactive)
REMARK    1  A    between atoms: O_3  and  C_12
REMARK    2  A    between atoms: C_10  and  C_18
REMARK    3  A    between atoms: C_13  and  C_19
REMARK    4  A    between atoms: C_15  and  C_22
REMARK    5  A    between atoms: C_19  and  C_23
REMARK    6  A    between atoms: C_19  and  C_24
REMARK    7  A    between atoms: C_30  and  C_31
REMARK                            x       y       z     vdW  Elec       q    Type
REMARK                         _______ _______ _______ _____ _____    ______ ____
ROOT
ATOM      1  S   UNL     1      21.364   7.324  23.297  0.00  0.00    -0.057 S 
ATOM      5  O   UNL     1      21.038   3.382  20.843  0.00  0.00    -0.270 OA
ATOM      6  N   UNL     1      19.986   6.065  21.508  0.00  0.00    -0.229 NA
ATOM      8  N   UNL     1      21.913   4.923  22.398  0.00  0.00    -0.261 N 
ATOM     10  C   UNL     1      18.628  10.072  21.925  0.00  0.00    -0.022 C 
ATOM     11  C   UNL     1      17.516   9.018  21.542  0.00  0.00    +0.033 C 
ATOM     12  C   UNL     1      16.423   9.650  20.634  0.00  0.00    +0.123 C 
ATOM     13  C   UNL     1      15.840  10.953  21.222  0.00  0.00    +0.029 C 
ATOM     14  C   UNL     1      17.965  11.333  22.525  0.00  0.00    +0.008 C 
ATOM     15  C   UNL     1      18.141   7.690  20.944  0.00  0.00    +0.042 C 
ATOM     16  C   UNL     1      16.926  11.959  21.605  0.00  0.00    +0.007 C 
ATOM     17  C   UNL     1      19.569   9.474  23.017  0.00  0.00    +0.051 C 
ATOM     18  C   UNL     1      19.483  10.488  20.699  0.00  0.00    +0.012 C 
ATOM     20  C   UNL     1      19.370   7.286  21.722  0.00  0.00    +0.057 A 
ATOM     21  C   UNL     1      20.000   8.102  22.638  0.00  0.00    +0.015 A 
ATOM     22  C   UNL     1      17.146   6.521  20.892  0.00  0.00    +0.014 C 
ATOM     25  C   UNL     1      21.038   5.972  22.291  0.00  0.00    +0.165 A 
ATOM     30  C   UNL     1      21.866   3.714  21.684  0.00  0.00    +0.250 C 
ATOM     37  H   UNL     1      22.678   5.096  23.042  0.00  0.00    +0.157 HD
ENDROOT
BRANCH  30  31
ATOM      9  N   UNL     1      25.039   0.966  22.534  0.00  0.00    -0.263 NA
ATOM     31  C   UNL     1      22.968   2.759  21.979  0.00  0.00    +0.040 A 
ATOM     32  C   UNL     1      23.310   2.474  23.297  0.00  0.00    +0.033 A 
ATOM     33  C   UNL     1      23.659   2.148  20.940  0.00  0.00    +0.033 A 
ATOM     34  C   UNL     1      24.344   1.578  23.518  0.00  0.00    +0.111 A 
ATOM     35  C   UNL     1      24.677   1.267  21.266  0.00  0.00    +0.111 A 
ENDBRANCH  30  31
BRANCH  12   3
ATOM      3  O   UNL     1      15.342   8.732  20.486  0.00  0.00    -0.391 OA
ATOM     36  H   UNL     1      15.533   7.949  21.030  0.00  0.00    +0.210 HD
ENDBRANCH  12   3
BRANCH  13  19
ATOM     19  C   UNL     1      14.844  11.615  20.263  0.00  0.00    +0.078 C 
ATOM     23  C   UNL     1      15.510  12.712  19.452  0.00  0.00    +0.017 C 
BRANCH  19  24
ATOM      2  S   UNL     1      10.723   9.359  22.565  0.00  0.00    -0.158 S 
ATOM      4  O   UNL     1      13.870  13.244  21.681  0.00  0.00    -0.275 OA
ATOM      7  N   UNL     1      12.512  11.461  21.067  0.00  0.00    -0.300 N 
ATOM     24  C   UNL     1      13.703  12.186  21.069  0.00  0.00    +0.219 C 
ATOM     26  C   UNL     1      11.362  11.951  21.828  0.00  0.00    +0.118 C 
ATOM     27  C   UNL     1      12.323  10.144  20.446  0.00  0.00    +0.118 C 
ATOM     28  C   UNL     1      11.091  11.077  23.047  0.00  0.00    +0.088 C 
ATOM     29  C   UNL     1      12.171   9.055  21.501  0.00  0.00    +0.088 C 
ENDBRANCH  19  24
ENDBRANCH  13  19
TORSDOF 4
ENDMDL
MODEL 4
REMARK VINA RESULT:      -6.7      1.949      2.521
REMARK  Name = 24066823
REMARK  7 active torsions:
REMARK  status: ('A' for Active; 'I' for Inactive)
REMARK    1  A    between atoms: O_3  and  C_12
REMARK    2  A    between atoms: C_10  and  C_18
REMARK    3  A    between atoms: C_13  and  C_19
REMARK    4  A    between atoms: C_15  and  C_22
REMARK    5  A    between atoms: C_19  and  C_23
REMARK    6  A    between atoms: C_19  and  C_24
REMARK    7  A    between atoms: C_30  and  C_31
REMARK                            x       y       z     vdW  Elec       q    Type
REMARK                         _______ _______ _______ _____ _____    ______ ____
ROOT
ATOM      1  S   UNL     1      -5.743 -12.583   8.697  0.00  0.00    -0.057 S 
ATOM      5  O   UNL     1      -7.146  -8.443   7.095  0.00  0.00    -0.270 OA
ATOM      6  N   UNL     1      -6.224 -10.127   9.346  0.00  0.00    -0.229 NA
ATOM      8  N   UNL     1      -6.583 -10.732   7.040  0.00  0.00    -0.261 N 
ATOM     10  C   UNL     1      -4.415 -12.221  12.573  0.00  0.00    -0.022 C 
ATOM     11  C   UNL     1      -5.432 -11.087  12.988  0.00  0.00    +0.033 C 
ATOM     12  C   UNL     1      -5.009 -10.406  14.321  0.00  0.00    +0.123 C 
ATOM     13  C   UNL     1      -4.747 -11.423  15.453  0.00  0.00    +0.029 C 
ATOM     14  C   UNL     1      -4.226 -13.207  13.749  0.00  0.00    +0.008 C 
ATOM     15  C   UNL     1      -5.687 -10.059  11.809  0.00  0.00    +0.042 C 
ATOM     16  C   UNL     1      -3.774 -12.526  15.034  0.00  0.00    +0.007 C 
ATOM     17  C   UNL     1      -4.992 -13.034  11.372  0.00  0.00    +0.051 C 
ATOM     18  C   UNL     1      -3.032 -11.645  12.171  0.00  0.00    +0.012 C 
ATOM     20  C   UNL     1      -5.818 -10.786  10.492  0.00  0.00    +0.057 A 
ATOM     21  C   UNL     1      -5.493 -12.115  10.314  0.00  0.00    +0.015 A 
ATOM     22  C   UNL     1      -6.914  -9.165  12.038  0.00  0.00    +0.014 C 
ATOM     25  C   UNL     1      -6.232 -10.976   8.341  0.00  0.00    +0.165 A 
ATOM     30  C   UNL     1      -7.010  -9.507   6.500  0.00  0.00    +0.250 C 
ATOM     37  H   UNL     1      -6.470 -11.536   6.432  0.00  0.00    +0.157 HD
ENDROOT
BRANCH  30  31
ATOM      9  N   UNL     1      -7.832  -9.548   2.298  0.00  0.00    -0.263 NA
ATOM     31  C   UNL     1      -7.296  -9.521   5.041  0.00  0.00    +0.040 A 
ATOM     32  C   UNL     1      -7.280 -10.721   4.338  0.00  0.00    +0.033 A 
ATOM     33  C   UNL     1      -7.580  -8.335   4.374  0.00  0.00    +0.033 A 
ATOM     34  C   UNL     1      -7.553 -10.680   2.980  0.00  0.00    +0.111 A 
ATOM     35  C   UNL     1      -7.839  -8.401   3.015  0.00  0.00    +0.111 A 
ENDBRANCH  30  31
BRANCH  12   3
ATOM      3  O   UNL     1      -6.055  -9.542  14.763  0.00  0.00    -0.391 OA
ATOM     36  H   UNL     1      -6.277  -8.938  14.034  0.00  0.00    +0.210 HD
ENDBRANCH  12   3
BRANCH  13  19
ATOM     19  C   UNL     1      -4.229 -10.739  16.724  0.00  0.00    +0.078 C 
ATOM     23  C   UNL     1      -2.712 -10.675  16.733  0.00  0.00    +0.017 C 
BRANCH  19  24
ATOM      2  S   UNL     1      -8.998 -11.281  18.804  0.00  0.00    -0.158 S 
ATOM      4  O   UNL     1      -4.097 -12.505  18.296  0.00  0.00    -0.275 OA
ATOM      7  N   UNL     1      -5.879 -11.033  18.540  0.00  0.00    -0.300 N 
ATOM     24  C   UNL     1      -4.722 -11.510  17.923  0.00  0.00    +0.219 C 
ATOM     26  C   UNL     1      -6.419 -11.730  19.708  0.00  0.00    +0.118 C 
ATOM     27  C   UNL     1      -6.705  -9.924  18.048  0.00  0.00    +0.118 C 
ATOM     28  C   UNL     1      -7.720 -12.448  19.371  0.00  0.00    +0.088 C 
ATOM     29  C   UNL     1      -8.038 -10.430  17.510  0.00  0.00    +0.088 C 
ENDBRANCH  19  24
ENDBRANCH  13  19
TORSDOF 4
ENDMDL
MODEL 5
REMARK VINA RESULT:      -6.6      7.242     11.952
REMARK  Name = 24066823
REMARK  7 active torsions:
REMARK  status: ('A' for Active; 'I' for Inactive)
REMARK    1  A    between atoms: O_3  and  C_12
REMARK    2  A    between atoms: C_10  and  C_18
REMARK    3  A    between atoms: C_13  and  C_19
REMARK    4  A    between atoms: C_15  and  C_22
REMARK    5  A    between atoms: C_19  and  C_23
REMARK    6  A    between atoms: C_19  and  C_24
REMARK    7  A    between atoms: C_30  and  C_31
REMARK                            x       y       z     vdW  Elec       q    Type
REMARK                         _______ _______ _______ _____ _____    ______ ____
ROOT
ATOM      1  S   UNL     1      -8.083  -9.186  17.239  0.00  0.00    -0.057 S 
ATOM      5  O   UNL     1      -4.848 -12.510  16.847  0.00  0.00    -0.270 OA
ATOM      6  N   UNL     1      -7.467 -11.612  17.888  0.00  0.00    -0.229 NA
ATOM      8  N   UNL     1      -5.867 -10.405  16.549  0.00  0.00    -0.261 N 
ATOM     10  C   UNL     1     -11.464 -10.709  19.019  0.00  0.00    -0.022 C 
ATOM     11  C   UNL     1     -10.708 -11.726  19.961  0.00  0.00    +0.033 C 
ATOM     12  C   UNL     1     -11.685 -12.776  20.563  0.00  0.00    +0.123 C 
ATOM     13  C   UNL     1     -12.914 -12.128  21.239  0.00  0.00    +0.029 C 
ATOM     14  C   UNL     1     -12.663 -10.090  19.776  0.00  0.00    +0.008 C 
ATOM     15  C   UNL     1      -9.452 -12.374  19.246  0.00  0.00    +0.042 C 
ATOM     16  C   UNL     1     -13.627 -11.133  20.324  0.00  0.00    +0.007 C 
ATOM     17  C   UNL     1     -10.507  -9.541  18.626  0.00  0.00    +0.051 C 
ATOM     18  C   UNL     1     -11.983 -11.389  17.725  0.00  0.00    +0.012 C 
ATOM     20  C   UNL     1      -8.699 -11.332  18.452  0.00  0.00    +0.057 A 
ATOM     21  C   UNL     1      -9.192 -10.074  18.177  0.00  0.00    +0.015 A 
ATOM     22  C   UNL     1      -8.497 -13.081  20.219  0.00  0.00    +0.014 C 
ATOM     25  C   UNL     1      -7.042 -10.551  17.236  0.00  0.00    +0.165 A 
ATOM     30  C   UNL     1      -4.857 -11.370  16.395  0.00  0.00    +0.250 C 
ATOM     37  H   UNL     1      -5.775  -9.505  16.089  0.00  0.00    +0.157 HD
ENDROOT
BRANCH  30  31
ATOM      9  N   UNL     1      -1.513 -10.157  14.011  0.00  0.00    -0.263 NA
ATOM     31  C   UNL     1      -3.696 -10.949  15.567  0.00  0.00    +0.040 A 
ATOM     32  C   UNL     1      -2.484 -10.636  16.173  0.00  0.00    +0.033 A 
ATOM     33  C   UNL     1      -3.817 -10.868  14.185  0.00  0.00    +0.033 A 
ATOM     34  C   UNL     1      -1.433 -10.249  15.357  0.00  0.00    +0.111 A 
ATOM     35  C   UNL     1      -2.707 -10.470  13.458  0.00  0.00    +0.111 A 
ENDBRANCH  30  31
BRANCH  12   3
ATOM      3  O   UNL     1     -11.007 -13.536  21.561  0.00  0.00    -0.391 OA
ATOM     36  H   UNL     1     -10.547 -14.271  21.120  0.00  0.00    +0.210 HD
ENDBRANCH  12   3
BRANCH  13  19
ATOM     19  C   UNL     1     -13.915 -13.181  21.730  0.00  0.00    +0.078 C 
ATOM     23  C   UNL     1     -15.340 -12.778  21.400  0.00  0.00    +0.017 C 
BRANCH  19  24
ATOM      2  S   UNL     1     -11.911 -17.050  24.627  0.00  0.00    -0.158 S 
ATOM      4  O   UNL     1     -13.663 -12.336  23.929  0.00  0.00    -0.275 OA
ATOM      7  N   UNL     1     -13.715 -14.649  23.709  0.00  0.00    -0.300 N 
ATOM     24  C   UNL     1     -13.753 -13.342  23.221  0.00  0.00    +0.219 C 
ATOM     26  C   UNL     1     -13.559 -14.884  25.145  0.00  0.00    +0.118 C 
ATOM     27  C   UNL     1     -13.702 -15.861  22.881  0.00  0.00    +0.118 C 
ATOM     28  C   UNL     1     -12.182 -15.455  25.465  0.00  0.00    +0.088 C 
ATOM     29  C   UNL     1     -12.341 -16.544  22.929  0.00  0.00    +0.088 C 
ENDBRANCH  19  24
ENDBRANCH  13  19
TORSDOF 4
ENDMDL
MODEL 6
REMARK VINA RESULT:      -6.6      7.325     12.150
REMARK  Name = 24066823
REMARK  7 active torsions:
REMARK  status: ('A' for Active; 'I' for Inactive)
REMARK    1  A    between atoms: O_3  and  C_12
REMARK    2  A    between atoms: C_10  and  C_18
REMARK    3  A    between atoms: C_13  and  C_19
REMARK    4  A    between atoms: C_15  and  C_22
REMARK    5  A    between atoms: C_19  and  C_23
REMARK    6  A    between atoms: C_19  and  C_24
REMARK    7  A    between atoms: C_30  and  C_31
REMARK                            x       y       z     vdW  Elec       q    Type
REMARK                         _______ _______ _______ _____ _____    ______ ____
ROOT
ATOM      1  S   UNL     1     -10.027 -10.320  19.478  0.00  0.00    -0.057 S 
ATOM      5  O   UNL     1     -11.059 -14.444  21.375  0.00  0.00    -0.270 OA
ATOM      6  N   UNL     1      -9.339 -12.809  19.609  0.00  0.00    -0.229 NA
ATOM      8  N   UNL     1     -11.257 -12.142  20.908  0.00  0.00    -0.261 N 
ATOM     10  C   UNL     1      -6.448 -10.548  17.464  0.00  0.00    -0.022 C 
ATOM     11  C   UNL     1      -6.622 -12.045  16.992  0.00  0.00    +0.033 C 
ATOM     12  C   UNL     1      -5.278 -12.638  16.481  0.00  0.00    +0.123 C 
ATOM     13  C   UNL     1      -4.598 -11.747  15.419  0.00  0.00    +0.029 C 
ATOM     14  C   UNL     1      -5.784  -9.721  16.339  0.00  0.00    +0.008 C 
ATOM     15  C   UNL     1      -7.323 -12.936  18.098  0.00  0.00    +0.042 C 
ATOM     16  C   UNL     1      -4.451 -10.297  15.880  0.00  0.00    +0.007 C 
ATOM     17  C   UNL     1      -7.848  -9.916  17.743  0.00  0.00    +0.051 C 
ATOM     18  C   UNL     1      -5.583 -10.438  18.748  0.00  0.00    +0.012 C 
ATOM     20  C   UNL     1      -8.460 -12.181  18.744  0.00  0.00    +0.057 A 
ATOM     21  C   UNL     1      -8.672 -10.828  18.581  0.00  0.00    +0.015 A 
ATOM     22  C   UNL     1      -7.828 -14.284  17.561  0.00  0.00    +0.014 C 
ATOM     25  C   UNL     1     -10.214 -11.929  20.047  0.00  0.00    +0.165 A 
ATOM     30  C   UNL     1     -11.614 -13.359  21.511  0.00  0.00    +0.250 C 
ATOM     37  H   UNL     1     -11.774 -11.298  21.135  0.00  0.00    +0.157 HD
ENDROOT
BRANCH  30  31
ATOM      9  N   UNL     1     -14.968 -13.173  24.168  0.00  0.00    -0.263 NA
ATOM     31  C   UNL     1     -12.779 -13.294  22.434  0.00  0.00    +0.040 A 
ATOM     32  C   UNL     1     -12.703 -13.875  23.695  0.00  0.00    +0.033 A 
ATOM     33  C   UNL     1     -13.947 -12.652  22.039  0.00  0.00    +0.033 A 
ATOM     34  C   UNL     1     -13.816 -13.787  24.517  0.00  0.00    +0.111 A 
ATOM     35  C   UNL     1     -15.003 -12.620  22.934  0.00  0.00    +0.111 A 
ENDBRANCH  30  31
BRANCH  12   3
ATOM      3  O   UNL     1      -5.521 -13.907  15.876  0.00  0.00    -0.391 OA
ATOM     36  H   UNL     1      -6.019 -14.453  16.508  0.00  0.00    +0.210 HD
ENDBRANCH  12   3
BRANCH  13  19
ATOM     19  C   UNL     1      -3.226 -12.296  15.009  0.00  0.00    +0.078 C 
ATOM     23  C   UNL     1      -2.136 -11.263  15.226  0.00  0.00    +0.017 C 
BRANCH  19  24
ATOM      2  S   UNL     1      -3.371 -16.976  12.675  0.00  0.00    -0.158 S 
ATOM      4  O   UNL     1      -3.774 -11.915  12.736  0.00  0.00    -0.275 OA
ATOM      7  N   UNL     1      -2.758 -13.946  13.229  0.00  0.00    -0.300 N 
ATOM     24  C   UNL     1      -3.281 -12.694  13.555  0.00  0.00    +0.219 C 
ATOM     26  C   UNL     1      -2.778 -14.403  11.839  0.00  0.00    +0.118 C 
ATOM     27  C   UNL     1      -2.274 -14.939  14.196  0.00  0.00    +0.118 C 
ATOM     28  C   UNL     1      -3.781 -15.533  11.641  0.00  0.00    +0.088 C 
ATOM     29  C   UNL     1      -3.222 -16.130  14.282  0.00  0.00    +0.088 C 
ENDBRANCH  19  24
ENDBRANCH  13  19
TORSDOF 4
ENDMDL
MODEL 7
REMARK VINA RESULT:      -6.4     20.792     23.698
REMARK  Name = 24066823
REMARK  7 active torsions:
REMARK  status: ('A' for Active; 'I' for Inactive)
REMARK    1  A    between atoms: O_3  and  C_12
REMARK    2  A    between atoms: C_10  and  C_18
REMARK    3  A    between atoms: C_13  and  C_19
REMARK    4  A    between atoms: C_15  and  C_22
REMARK    5  A    between atoms: C_19  and  C_23
REMARK    6  A    between atoms: C_19  and  C_24
REMARK    7  A    between atoms: C_30  and  C_31
REMARK                            x       y       z     vdW  Elec       q    Type
REMARK                         _______ _______ _______ _____ _____    ______ ____
ROOT
ATOM      1  S   UNL     1     -13.455   5.454  22.205  0.00  0.00    -0.057 S 
ATOM      5  O   UNL     1     -17.910   4.931  20.964  0.00  0.00    -0.270 OA
ATOM      6  N   UNL     1     -15.328   6.341  20.661  0.00  0.00    -0.229 NA
ATOM      8  N   UNL     1     -15.903   4.518  22.129  0.00  0.00    -0.261 N 
ATOM     10  C   UNL     1     -11.594   8.128  19.694  0.00  0.00    -0.022 C 
ATOM     11  C   UNL     1     -12.861   9.041  19.462  0.00  0.00    +0.033 C 
ATOM     12  C   UNL     1     -12.657   9.997  18.252  0.00  0.00    +0.123 C 
ATOM     13  C   UNL     1     -11.343  10.803  18.344  0.00  0.00    +0.029 C 
ATOM     14  C   UNL     1     -10.328   9.010  19.798  0.00  0.00    +0.008 C 
ATOM     15  C   UNL     1     -14.195   8.191  19.374  0.00  0.00    +0.042 C 
ATOM     16  C   UNL     1     -10.125   9.910  18.587  0.00  0.00    +0.007 C 
ATOM     17  C   UNL     1     -11.738   7.359  21.045  0.00  0.00    +0.051 C 
ATOM     18  C   UNL     1     -11.399   7.099  18.550  0.00  0.00    +0.012 C 
ATOM     20  C   UNL     1     -14.197   7.099  20.417  0.00  0.00    +0.057 A 
ATOM     21  C   UNL     1     -13.085   6.735  21.147  0.00  0.00    +0.015 A 
ATOM     22  C   UNL     1     -15.467   9.042  19.505  0.00  0.00    +0.014 C 
ATOM     25  C   UNL     1     -15.058   5.452  21.591  0.00  0.00    +0.165 A 
ATOM     30  C   UNL     1     -17.252   4.313  21.794  0.00  0.00    +0.250 C 
ATOM     37  H   UNL     1     -15.456   3.909  22.808  0.00  0.00    +0.157 HD
ENDROOT
BRANCH  30  31
ATOM      9  N   UNL     1     -19.191   1.112  23.876  0.00  0.00    -0.263 NA
ATOM     31  C   UNL     1     -17.925   3.201  22.517  0.00  0.00    +0.040 A 
ATOM     32  C   UNL     1     -18.357   2.077  21.822  0.00  0.00    +0.033 A 
ATOM     33  C   UNL     1     -18.124   3.281  23.890  0.00  0.00    +0.033 A 
ATOM     34  C   UNL     1     -18.979   1.069  22.542  0.00  0.00    +0.111 A 
ATOM     35  C   UNL     1     -18.756   2.221  24.518  0.00  0.00    +0.111 A 
ENDBRANCH  30  31
BRANCH  12   3
ATOM      3  O   UNL     1     -13.727  10.939  18.207  0.00  0.00    -0.391 OA
ATOM     36  H   UNL     1     -14.523  10.477  17.891  0.00  0.00    +0.210 HD
ENDBRANCH  12   3
BRANCH  13  19
ATOM     19  C   UNL     1     -11.110  11.658  17.092  0.00  0.00    +0.078 C 
ATOM     23  C   UNL     1      -9.707  11.459  16.546  0.00  0.00    +0.017 C 
BRANCH  19  24
ATOM      2  S   UNL     1     -14.932  15.017  15.879  0.00  0.00    -0.158 S 
ATOM      4  O   UNL     1     -10.831  13.551  18.488  0.00  0.00    -0.275 OA
ATOM      7  N   UNL     1     -12.093  13.862  16.561  0.00  0.00    -0.300 N 
ATOM     24  C   UNL     1     -11.327  13.107  17.449  0.00  0.00    +0.219 C 
ATOM     26  C   UNL     1     -12.348  15.276  16.842  0.00  0.00    +0.118 C 
ATOM     27  C   UNL     1     -12.791  13.333  15.383  0.00  0.00    +0.118 C 
ATOM     28  C   UNL     1     -13.805  15.510  17.223  0.00  0.00    +0.088 C 
ATOM     29  C   UNL     1     -14.300  13.332  15.594  0.00  0.00    +0.088 C 
ENDBRANCH  19  24
ENDBRANCH  13  19
TORSDOF 4
ENDMDL
MODEL 8
REMARK VINA RESULT:      -6.3     29.332     33.224
REMARK  Name = 24066823
REMARK  7 active torsions:
REMARK  status: ('A' for Active; 'I' for Inactive)
REMARK    1  A    between atoms: O_3  and  C_12
REMARK    2  A    between atoms: C_10  and  C_18
REMARK    3  A    between atoms: C_13  and  C_19
REMARK    4  A    between atoms: C_15  and  C_22
REMARK    5  A    between atoms: C_19  and  C_23
REMARK    6  A    between atoms: C_19  and  C_24
REMARK    7  A    between atoms: C_30  and  C_31
REMARK                            x       y       z     vdW  Elec       q    Type
REMARK                         _______ _______ _______ _____ _____    ______ ____
ROOT
ATOM      1  S   UNL     1      19.677   5.038  20.106  0.00  0.00    -0.057 S 
ATOM      5  O   UNL     1      22.223   6.616  23.669  0.00  0.00    -0.270 OA
ATOM      6  N   UNL     1      19.830   6.847  21.946  0.00  0.00    -0.229 NA
ATOM      8  N   UNL     1      21.618   5.233  21.859  0.00  0.00    -0.261 N 
ATOM     10  C   UNL     1      16.085   7.035  19.943  0.00  0.00    -0.022 C 
ATOM     11  C   UNL     1      16.644   8.417  20.464  0.00  0.00    +0.033 C 
ATOM     12  C   UNL     1      15.491   9.370  20.890  0.00  0.00    +0.123 C 
ATOM     13  C   UNL     1      14.413   9.530  19.796  0.00  0.00    +0.029 C 
ATOM     14  C   UNL     1      15.032   7.282  18.838  0.00  0.00    +0.008 C 
ATOM     15  C   UNL     1      17.749   8.225  21.582  0.00  0.00    +0.042 C 
ATOM     16  C   UNL     1      13.893   8.186  19.288  0.00  0.00    +0.007 C 
ATOM     17  C   UNL     1      17.243   6.203  19.307  0.00  0.00    +0.051 C 
ATOM     18  C   UNL     1      15.436   6.203  21.081  0.00  0.00    +0.012 C 
ATOM     20  C   UNL     1      18.678   7.091  21.220  0.00  0.00    +0.057 A 
ATOM     21  C   UNL     1      18.429   6.191  20.205  0.00  0.00    +0.015 A 
ATOM     22  C   UNL     1      18.562   9.499  21.857  0.00  0.00    +0.014 C 
ATOM     25  C   UNL     1      20.442   5.798  21.442  0.00  0.00    +0.165 A 
ATOM     30  C   UNL     1      22.425   5.662  22.925  0.00  0.00    +0.250 C 
ATOM     37  H   UNL     1      21.874   4.399  21.339  0.00  0.00    +0.157 HD
ENDROOT
BRANCH  30  31
ATOM      9  N   UNL     1      25.916   3.289  23.647  0.00  0.00    -0.263 NA
ATOM     31  C   UNL     1      23.638   4.839  23.176  0.00  0.00    +0.040 A 
ATOM     32  C   UNL     1      24.145   4.020  22.172  0.00  0.00    +0.033 A 
ATOM     33  C   UNL     1      24.269   4.884  24.413  0.00  0.00    +0.033 A 
ATOM     34  C   UNL     1      25.276   3.272  22.457  0.00  0.00    +0.111 A 
ATOM     35  C   UNL     1      25.394   4.098  24.597  0.00  0.00    +0.111 A 
ENDBRANCH  30  31
BRANCH  12   3
ATOM      3  O   UNL     1      16.023  10.668  21.152  0.00  0.00    -0.391 OA
ATOM     36  H   UNL     1      15.278  11.280  21.275  0.00  0.00    +0.210 HD
ENDBRANCH  12   3
BRANCH  13  19
ATOM     19  C   UNL     1      13.236  10.387  20.278  0.00  0.00    +0.078 C 
ATOM     23  C   UNL     1      11.928   9.622  20.186  0.00  0.00    +0.017 C 
BRANCH  19  24
ATOM      2  S   UNL     1      13.985  15.435  21.431  0.00  0.00    -0.158 S 
ATOM      4  O   UNL     1      13.379  11.550  18.219  0.00  0.00    -0.275 OA
ATOM      7  N   UNL     1      12.865  12.823  20.093  0.00  0.00    -0.300 N 
ATOM     24  C   UNL     1      13.168  11.633  19.431  0.00  0.00    +0.219 C 
ATOM     26  C   UNL     1      12.783  14.075  19.339  0.00  0.00    +0.118 C 
ATOM     27  C   UNL     1      12.725  12.971  21.547  0.00  0.00    +0.118 C 
ATOM     28  C   UNL     1      13.954  14.994  19.663  0.00  0.00    +0.088 C 
ATOM     29  C   UNL     1      13.893  13.756  22.134  0.00  0.00    +0.088 C 
ENDBRANCH  19  24
ENDBRANCH  13  19
TORSDOF 4
ENDMDL
MODEL 9
REMARK VINA RESULT:      -6.3      3.688      4.310
REMARK  Name = 24066823
REMARK  7 active torsions:
REMARK  status: ('A' for Active; 'I' for Inactive)
REMARK    1  A    between atoms: O_3  and  C_12
REMARK    2  A    between atoms: C_10  and  C_18
REMARK    3  A    between atoms: C_13  and  C_19
REMARK    4  A    between atoms: C_15  and  C_22
REMARK    5  A    between atoms: C_19  and  C_23
REMARK    6  A    between atoms: C_19  and  C_24
REMARK    7  A    between atoms: C_30  and  C_31
REMARK                            x       y       z     vdW  Elec       q    Type
REMARK                         _______ _______ _______ _____ _____    ______ ____
ROOT
ATOM      1  S   UNL     1      -4.403 -14.367   8.762  0.00  0.00    -0.057 S 
ATOM      5  O   UNL     1      -4.981 -10.720   5.928  0.00  0.00    -0.270 OA
ATOM      6  N   UNL     1      -4.754 -11.807   8.669  0.00  0.00    -0.229 NA
ATOM      8  N   UNL     1      -4.661 -12.968   6.559  0.00  0.00    -0.261 N 
ATOM     10  C   UNL     1      -3.925 -13.081  12.640  0.00  0.00    -0.022 C 
ATOM     11  C   UNL     1      -4.884 -11.832  12.516  0.00  0.00    +0.033 C 
ATOM     12  C   UNL     1      -4.694 -10.851  13.708  0.00  0.00    +0.123 C 
ATOM     13  C   UNL     1      -4.793 -11.553  15.080  0.00  0.00    +0.029 C 
ATOM     14  C   UNL     1      -4.101 -13.738  14.028  0.00  0.00    +0.008 C 
ATOM     15  C   UNL     1      -4.765 -11.133  11.100  0.00  0.00    +0.042 C 
ATOM     16  C   UNL     1      -3.873 -12.770  15.181  0.00  0.00    +0.007 C 
ATOM     17  C   UNL     1      -4.307 -14.148  11.567  0.00  0.00    +0.051 C 
ATOM     18  C   UNL     1      -2.434 -12.691  12.452  0.00  0.00    +0.012 C 
ATOM     20  C   UNL     1      -4.681 -12.167  10.003  0.00  0.00    +0.057 A 
ATOM     21  C   UNL     1      -4.465 -13.510  10.232  0.00  0.00    +0.015 A 
ATOM     22  C   UNL     1      -5.912 -10.154  10.808  0.00  0.00    +0.014 C 
ATOM     25  C   UNL     1      -4.632 -12.885   7.926  0.00  0.00    +0.165 A 
ATOM     30  C   UNL     1      -4.830 -11.906   5.656  0.00  0.00    +0.250 C 
ATOM     37  H   UNL     1      -4.503 -13.907   6.206  0.00  0.00    +0.157 HD
ENDROOT
BRANCH  30  31
ATOM      9  N   UNL     1      -4.715 -12.989   1.514  0.00  0.00    -0.263 NA
ATOM     31  C   UNL     1      -4.789 -12.282   4.217  0.00  0.00    +0.040 A 
ATOM     32  C   UNL     1      -5.972 -12.408   3.496  0.00  0.00    +0.033 A 
ATOM     33  C   UNL     1      -3.571 -12.508   3.589  0.00  0.00    +0.033 A 
ATOM     34  C   UNL     1      -5.881 -12.761   2.159  0.00  0.00    +0.111 A 
ATOM     35  C   UNL     1      -3.587 -12.856   2.248  0.00  0.00    +0.111 A 
ENDBRANCH  30  31
BRANCH  12   3
ATOM      3  O   UNL     1      -5.715  -9.856  13.668  0.00  0.00    -0.391 OA
ATOM     36  H   UNL     1      -5.486  -9.162  14.311  0.00  0.00    +0.210 HD
ENDBRANCH  12   3
BRANCH  13  19
ATOM     19  C   UNL     1      -4.497 -10.589  16.236  0.00  0.00    +0.078 C 
ATOM     23  C   UNL     1      -3.011 -10.544  16.544  0.00  0.00    +0.017 C 
BRANCH  19  24
ATOM      2  S   UNL     1      -9.593 -10.425  17.407  0.00  0.00    -0.158 S 
ATOM      4  O   UNL     1      -4.809 -11.955  18.146  0.00  0.00    -0.275 OA
ATOM      7  N   UNL     1      -6.468 -10.386  17.713  0.00  0.00    -0.300 N 
ATOM     24  C   UNL     1      -5.265 -11.043  17.452  0.00  0.00    +0.219 C 
ATOM     26  C   UNL     1      -7.270 -10.773  18.874  0.00  0.00    +0.118 C 
ATOM     27  C   UNL     1      -7.091  -9.383  16.841  0.00  0.00    +0.118 C 
ATOM     28  C   UNL     1      -8.547 -11.489  18.451  0.00  0.00    +0.088 C 
ATOM     29  C   UNL     1      -8.344  -9.937  16.173  0.00  0.00    +0.088 C 
ENDBRANCH  19  24
ENDBRANCH  13  19
TORSDOF 4
ENDMDL
MODEL 10
REMARK VINA RESULT:      -6.2     20.064     21.003
REMARK  Name = 24066823
REMARK  7 active torsions:
REMARK  status: ('A' for Active; 'I' for Inactive)
REMARK    1  A    between atoms: O_3  and  C_12
REMARK    2  A    between atoms: C_10  and  C_18
REMARK    3  A    between atoms: C_13  and  C_19
REMARK    4  A    between atoms: C_15  and  C_22
REMARK    5  A    between atoms: C_19  and  C_23
REMARK    6  A    between atoms: C_19  and  C_24
REMARK    7  A    between atoms: C_30  and  C_31
REMARK                            x       y       z     vdW  Elec       q    Type
REMARK                         _______ _______ _______ _____ _____    ______ ____
ROOT
ATOM      1  S   UNL     1     -10.473   8.851  15.398  0.00  0.00    -0.057 S 
ATOM      5  O   UNL     1     -13.741  10.752  12.682  0.00  0.00    -0.270 OA
ATOM      6  N   UNL     1     -12.983   9.445  15.225  0.00  0.00    -0.229 NA
ATOM      8  N   UNL     1     -11.600  10.012  13.334  0.00  0.00    -0.261 N 
ATOM     10  C   UNL     1     -12.014   8.076  19.131  0.00  0.00    -0.022 C 
ATOM     11  C   UNL     1     -13.474   7.731  18.636  0.00  0.00    +0.033 C 
ATOM     12  C   UNL     1     -14.486   7.723  19.817  0.00  0.00    +0.123 C 
ATOM     13  C   UNL     1     -14.024   6.837  20.994  0.00  0.00    +0.029 C 
ATOM     14  C   UNL     1     -11.621   7.132  20.291  0.00  0.00    +0.008 C 
ATOM     15  C   UNL     1     -13.922   8.652  17.428  0.00  0.00    +0.042 C 
ATOM     16  C   UNL     1     -12.604   7.168  21.453  0.00  0.00    +0.007 C 
ATOM     17  C   UNL     1     -10.995   7.842  17.973  0.00  0.00    +0.051 C 
ATOM     18  C   UNL     1     -11.896   9.545  19.616  0.00  0.00    +0.012 C 
ATOM     20  C   UNL     1     -12.785   8.834  16.450  0.00  0.00    +0.057 A 
ATOM     21  C   UNL     1     -11.481   8.474  16.717  0.00  0.00    +0.015 A 
ATOM     22  C   UNL     1     -15.165   8.127  16.693  0.00  0.00    +0.014 C 
ATOM     25  C   UNL     1     -11.838   9.498  14.581  0.00  0.00    +0.165 A 
ATOM     30  C   UNL     1     -12.543  10.598  12.473  0.00  0.00    +0.250 C 
ATOM     37  H   UNL     1     -10.623   9.980  13.061  0.00  0.00    +0.157 HD
ENDROOT
BRANCH  30  31
ATOM      9  N   UNL     1     -10.976  12.053   8.763  0.00  0.00    -0.263 NA
ATOM     31  C   UNL     1     -11.999  11.104  11.185  0.00  0.00    +0.040 A 
ATOM     32  C   UNL     1     -11.835  10.237  10.109  0.00  0.00    +0.033 A 
ATOM     33  C   UNL     1     -11.653  12.443  11.050  0.00  0.00    +0.033 A 
ATOM     34  C   UNL     1     -11.324  10.758   8.930  0.00  0.00    +0.111 A 
ATOM     35  C   UNL     1     -11.151  12.865   9.830  0.00  0.00    +0.111 A 
ENDBRANCH  30  31
BRANCH  12   3
ATOM      3  O   UNL     1     -15.737   7.207  19.364  0.00  0.00    -0.391 OA
ATOM     36  H   UNL     1     -16.095   7.821  18.701  0.00  0.00    +0.210 HD
ENDBRANCH  12   3
BRANCH  13  19
ATOM     19  C   UNL     1     -14.983   6.929  22.187  0.00  0.00    +0.078 C 
ATOM     23  C   UNL     1     -14.668   8.136  23.051  0.00  0.00    +0.017 C 
BRANCH  19  24
ATOM      2  S   UNL     1     -18.506   3.305  23.539  0.00  0.00    -0.158 S 
ATOM      4  O   UNL     1     -13.776   5.087  23.060  0.00  0.00    -0.275 OA
ATOM      7  N   UNL     1     -16.021   5.223  23.643  0.00  0.00    -0.300 N 
ATOM     24  C   UNL     1     -14.864   5.664  23.001  0.00  0.00    +0.219 C 
ATOM     26  C   UNL     1     -15.984   4.002  24.449  0.00  0.00    +0.118 C 
ATOM     27  C   UNL     1     -17.353   5.822  23.495  0.00  0.00    +0.118 C 
ATOM     28  C   UNL     1     -16.752   2.871  23.776  0.00  0.00    +0.088 C 
ATOM     29  C   UNL     1     -18.281   4.909  22.703  0.00  0.00    +0.088 C 
ENDBRANCH  19  24
ENDBRANCH  13  19
TORSDOF 4
ENDMDL
