REMARK  Name = 7663579
REMARK  8 active torsions:
REMARK  status: ('A' for Active; 'I' for Inactive)
REMARK    1  A    between atoms: O_4  and  C_27
REMARK    2  A    between atoms: O_4  and  C_32
REMARK    3  A    between atoms: N_7  and  C_11
REMARK    4  A    between atoms: N_9  and  C_24
REMARK    5  A    between atoms: C_17  and  C_22
REMARK    6  A    between atoms: C_23  and  C_25
REMARK    7  A    between atoms: C_24  and  C_26
REMARK    8  A    between atoms: C_24  and  C_27
REMARK                            x       y       z     vdW  Elec       q    Type
REMARK                         _______ _______ _______ _____ _____    ______ ____
ROOT
ATOM      1  O   UNL     1      -1.895   3.648  -0.594  0.00  0.00    -0.253 OA
ATOM      3  O   UNL     1       3.449  -0.665   1.996  0.00  0.00    -0.270 OA
ATOM      6  N   UNL     1      -0.586   1.935   0.276  0.00  0.00    -0.271 N 
ATOM      7  N   UNL     1      -2.945   1.773   0.219  0.00  0.00    -0.296 N 
ATOM      8  N   UNL     1       2.038   0.791   0.834  0.00  0.00    -0.294 N 
ATOM     17  C   UNL     1      -0.448   0.691   1.047  0.00  0.00    +0.181 C 
ATOM     18  C   UNL     1       0.910   0.566   1.740  0.00  0.00    +0.140 C 
ATOM     19  C   UNL     1       0.648   2.675  -0.003  0.00  0.00    +0.129 C 
ATOM     20  C   UNL     1       1.832   1.752  -0.257  0.00  0.00    +0.127 C 
ATOM     21  C   UNL     1      -1.816   2.533  -0.070  0.00  0.00    +0.303 C 
ATOM     23  C   UNL     1       3.251   0.142   1.090  0.00  0.00    +0.248 C 
ATOM     33  H   UNL     1      -2.842   0.817   0.536  0.00  0.00    +0.151 HD
ENDROOT
BRANCH  23  25
ATOM     10  N   UNL     1       6.333   1.792  -0.261  0.00  0.00    -0.263 NA
ATOM     25  C   UNL     1       4.393   0.438   0.210  0.00  0.00    +0.055 A 
ATOM     28  C   UNL     1       4.620  -0.310  -0.936  0.00  0.00    +0.016 A 
ATOM     29  C   UNL     1       5.266   1.468   0.504  0.00  0.00    +0.123 A 
ATOM     30  C   UNL     1       5.707  -0.008  -1.748  0.00  0.00    +0.020 A 
ATOM     31  C   UNL     1       6.526   1.044  -1.370  0.00  0.00    +0.111 A 
ENDBRANCH  23  25
BRANCH   7  11
ATOM     11  C   UNL     1      -4.282   2.239  -0.077  0.00  0.00    +0.074 C 
ATOM     12  C   UNL     1      -5.289   1.713   0.951  0.00  0.00    +0.022 C 
ATOM     13  C   UNL     1      -4.694   1.860  -1.503  0.00  0.00    +0.022 C 
ATOM     14  C   UNL     1      -5.557   0.216   0.794  0.00  0.00    +0.002 C 
ATOM     15  C   UNL     1      -4.963   0.363  -1.656  0.00  0.00    +0.002 C 
ATOM     16  C   UNL     1      -5.977  -0.135  -0.630  0.00  0.00    +0.000 C 
ENDBRANCH   7  11
BRANCH  17  22
ATOM      2  O   UNL     1      -0.313  -0.387  -1.082  0.00  0.00    -0.274 OA
ATOM      9  N   UNL     1      -1.243  -1.546   0.710  0.00  0.00    -0.301 N 
ATOM     22  C   UNL     1      -0.644  -0.458   0.099  0.00  0.00    +0.236 C 
ATOM     34  H   UNL     1      -1.405  -1.520   1.713  0.00  0.00    +0.150 HD
BRANCH   9  24
ATOM     24  C   UNL     1      -1.562  -2.769   0.010  0.00  0.00    +0.179 C 
ATOM     26  C   UNL     1      -2.784  -3.430   0.630  0.00  0.00    +0.040 C 
BRANCH  24  27
ATOM      5  O   UNL     1       0.665  -3.507   0.583  0.00  0.00    -0.249 OA
ATOM     27  C   UNL     1      -0.388  -3.736  -0.004  0.00  0.00    +0.327 C 
BRANCH  27   4
ATOM      4  O   UNL     1      -0.654  -4.861  -0.725  0.00  0.00    -0.467 OA
ATOM     32  C   UNL     1       0.400  -5.829  -0.780  0.00  0.00    +0.280 C 
ENDBRANCH  27   4
ENDBRANCH  24  27
ENDBRANCH   9  24
ENDBRANCH  17  22
TORSDOF 6
