MODEL 1
REMARK VINA RESULT:      -8.1      0.000      0.000
REMARK  Name = 44716813
REMARK  7 active torsions:
REMARK  status: ('A' for Active; 'I' for Inactive)
REMARK    1  A    between atoms: N_4  and  C_12
REMARK    2  A    between atoms: N_5  and  C_13
REMARK    3  A    between atoms: N_6  and  C_18
REMARK    4  A    between atoms: N_9  and  C_35
REMARK    5  A    between atoms: N_9  and  C_37
REMARK    6  A    between atoms: N_9  and  C_38
REMARK    7  A    between atoms: C_19  and  C_23
REMARK                            x       y       z     vdW  Elec       q    Type
REMARK                         _______ _______ _______ _____ _____    ______ ____
ROOT
ATOM      1  O   UNL     1     -16.520   3.564  22.731  0.00  0.00    -0.370 OA
ATOM      2  O   UNL     1     -16.604   6.148  24.478  0.00  0.00    -0.370 OA
ATOM     10  C   UNL     1     -15.560   5.494  23.738  0.00  0.00    +0.171 C 
ATOM     11  C   UNL     1     -15.775   4.000  23.880  0.00  0.00    +0.171 C 
ATOM     12  C   UNL     1     -15.725   5.752  22.259  0.00  0.00    +0.130 C 
ATOM     13  C   UNL     1     -16.613   3.867  25.132  0.00  0.00    +0.131 C 
ATOM     14  C   UNL     1     -16.708   4.674  21.841  0.00  0.00    +0.185 C 
ATOM     15  C   UNL     1     -17.415   5.156  25.123  0.00  0.00    +0.185 C 
ENDROOT
BRANCH  12   4
ATOM      4  N   UNL     1     -14.462   5.567  21.579  0.00  0.00    -0.306 N 
ATOM      7  N   UNL     1     -13.920   7.818  21.770  0.00  0.00    -0.214 NA
ATOM      8  N   UNL     1     -12.431   6.260  20.692  0.00  0.00    -0.223 NA
ATOM     16  C   UNL     1     -13.565   6.593  21.336  0.00  0.00    +0.216 A 
ATOM     19  C   UNL     1     -13.022   8.793  21.519  0.00  0.00    +0.076 A 
ATOM     20  C   UNL     1     -11.578   7.283  20.473  0.00  0.00    +0.116 A 
ATOM     21  C   UNL     1     -11.823   8.583  20.868  0.00  0.00    +0.048 A 
ATOM     39  H   UNL     1     -14.176   4.634  21.303  0.00  0.00    +0.149 HD
BRANCH  19  23
ATOM     23  C   UNL     1     -13.398  10.106  21.983  0.00  0.00    +0.001 A 
ATOM     29  C   UNL     1     -14.503  10.752  21.428  0.00  0.00    +0.012 A 
ATOM     30  C   UNL     1     -12.657  10.731  22.987  0.00  0.00    +0.012 A 
ATOM     33  C   UNL     1     -14.867  12.022  21.877  0.00  0.00    +0.024 A 
ATOM     34  C   UNL     1     -13.021  12.001  23.436  0.00  0.00    +0.024 A 
ATOM     35  C   UNL     1     -14.126  12.646  22.881  0.00  0.00    +0.029 A 
BRANCH  35   9
ATOM      9  N   UNL     1     -14.494  13.930  23.334  0.00  0.00    -0.336 N 
ATOM     37  C   UNL     1     -15.784  14.491  22.983  0.00  0.00    +0.129 C 
ATOM     38  C   UNL     1     -13.590  14.703  24.163  0.00  0.00    +0.129 C 
ENDBRANCH  35   9
ENDBRANCH  19  23
ENDBRANCH  12   4
BRANCH  13   5
ATOM      3  O   UNL     1     -17.068   2.208  27.422  0.00  0.00    -0.252 OA
ATOM      5  N   UNL     1     -15.783   3.774  26.309  0.00  0.00    -0.292 N 
ATOM      6  N   UNL     1     -15.100   3.055  28.380  0.00  0.00    -0.269 N 
ATOM     17  C   UNL     1     -16.077   2.934  27.388  0.00  0.00    +0.304 C 
ATOM     40  H   UNL     1     -14.911   4.293  26.325  0.00  0.00    +0.151 HD
ATOM     41  H   UNL     1     -14.358   3.710  28.167  0.00  0.00    +0.156 HD
BRANCH   6  18
ATOM     18  C   UNL     1     -15.034   2.379  29.620  0.00  0.00    +0.042 A 
ATOM     22  C   UNL     1     -15.123   3.066  30.843  0.00  0.00    +0.003 A 
ATOM     24  C   UNL     1     -14.875   0.994  29.593  0.00  0.00    +0.024 A 
ATOM     25  C   UNL     1     -15.050   2.337  32.053  0.00  0.00    -0.016 A 
ATOM     26  C   UNL     1     -14.804   0.276  30.784  0.00  0.00    +0.002 A 
ATOM     27  C   UNL     1     -15.283   4.460  30.889  0.00  0.00    +0.010 A 
ATOM     28  C   UNL     1     -14.890   0.942  32.007  0.00  0.00    +0.008 A 
ATOM     31  C   UNL     1     -15.139   3.023  33.275  0.00  0.00    +0.008 A 
ATOM     32  C   UNL     1     -15.370   5.127  32.113  0.00  0.00    +0.001 A 
ATOM     36  C   UNL     1     -15.298   4.410  33.303  0.00  0.00    +0.001 A 
ENDBRANCH   6  18
ENDBRANCH  13   5
TORSDOF 5
ENDMDL
MODEL 2
REMARK VINA RESULT:      -8.0     28.285     32.660
REMARK  Name = 44716813
REMARK  7 active torsions:
REMARK  status: ('A' for Active; 'I' for Inactive)
REMARK    1  A    between atoms: N_4  and  C_12
REMARK    2  A    between atoms: N_5  and  C_13
REMARK    3  A    between atoms: N_6  and  C_18
REMARK    4  A    between atoms: N_9  and  C_35
REMARK    5  A    between atoms: N_9  and  C_37
REMARK    6  A    between atoms: N_9  and  C_38
REMARK    7  A    between atoms: C_19  and  C_23
REMARK                            x       y       z     vdW  Elec       q    Type
REMARK                         _______ _______ _______ _____ _____    ______ ____
ROOT
ATOM      1  O   UNL     1      -4.392 -15.166   3.655  0.00  0.00    -0.370 OA
ATOM      2  O   UNL     1      -1.904 -14.728   5.487  0.00  0.00    -0.370 OA
ATOM     10  C   UNL     1      -2.855 -13.832   4.888  0.00  0.00    +0.171 C 
ATOM     11  C   UNL     1      -3.193 -14.386   3.518  0.00  0.00    +0.171 C 
ATOM     12  C   UNL     1      -4.164 -13.879   5.639  0.00  0.00    +0.130 C 
ATOM     13  C   UNL     1      -2.020 -15.279   3.181  0.00  0.00    +0.131 C 
ATOM     14  C   UNL     1      -4.869 -15.064   5.005  0.00  0.00    +0.185 C 
ATOM     15  C   UNL     1      -1.582 -15.767   4.551  0.00  0.00    +0.185 C 
ENDROOT
BRANCH  12   4
ATOM      4  N   UNL     1      -4.915 -12.666   5.401  0.00  0.00    -0.306 N 
ATOM      7  N   UNL     1      -4.433 -11.839   7.518  0.00  0.00    -0.214 NA
ATOM      8  N   UNL     1      -5.780 -10.585   5.963  0.00  0.00    -0.223 NA
ATOM     16  C   UNL     1      -5.049 -11.652   6.335  0.00  0.00    +0.216 A 
ATOM     19  C   UNL     1      -4.581 -10.831   8.403  0.00  0.00    +0.076 A 
ATOM     20  C   UNL     1      -5.888  -9.615   6.896  0.00  0.00    +0.116 A 
ATOM     21  C   UNL     1      -5.304  -9.684   8.145  0.00  0.00    +0.048 A 
ATOM     39  H   UNL     1      -5.331 -12.507   4.491  0.00  0.00    +0.149 HD
BRANCH  19  23
ATOM     23  C   UNL     1      -3.922 -11.026   9.671  0.00  0.00    +0.001 A 
ATOM     29  C   UNL     1      -3.864 -12.300  10.238  0.00  0.00    +0.012 A 
ATOM     30  C   UNL     1      -3.340  -9.943  10.331  0.00  0.00    +0.012 A 
ATOM     33  C   UNL     1      -3.226 -12.490  11.464  0.00  0.00    +0.024 A 
ATOM     34  C   UNL     1      -2.703 -10.133  11.557  0.00  0.00    +0.024 A 
ATOM     35  C   UNL     1      -2.646 -11.405  12.124  0.00  0.00    +0.029 A 
BRANCH  35   9
ATOM      9  N   UNL     1      -2.002 -11.597  13.363  0.00  0.00    -0.336 N 
ATOM     37  C   UNL     1      -1.874 -10.500  14.303  0.00  0.00    +0.129 C 
ATOM     38  C   UNL     1      -1.466 -12.897  13.719  0.00  0.00    +0.129 C 
ENDBRANCH  35   9
ENDBRANCH  19  23
ENDBRANCH  12   4
BRANCH  13   5
ATOM      3  O   UNL     1      -0.118 -16.299   1.299  0.00  0.00    -0.252 OA
ATOM      5  N   UNL     1      -0.968 -14.537   2.529  0.00  0.00    -0.292 N 
ATOM      6  N   UNL     1       0.828 -14.156   1.150  0.00  0.00    -0.269 N 
ATOM     17  C   UNL     1      -0.077 -15.113   1.617  0.00  0.00    +0.304 C 
ATOM     40  H   UNL     1      -0.915 -13.535   2.689  0.00  0.00    +0.151 HD
ATOM     41  H   UNL     1       0.701 -13.227   1.534  0.00  0.00    +0.156 HD
BRANCH   6  18
ATOM     18  C   UNL     1       1.881 -14.336   0.223  0.00  0.00    +0.042 A 
ATOM     22  C   UNL     1       3.107 -14.911   0.598  0.00  0.00    +0.003 A 
ATOM     24  C   UNL     1       1.662 -13.921  -1.091  0.00  0.00    +0.024 A 
ATOM     25  C   UNL     1       4.124 -15.066  -0.373  0.00  0.00    -0.016 A 
ATOM     26  C   UNL     1       2.662 -14.074  -2.046  0.00  0.00    +0.002 A 
ATOM     27  C   UNL     1       3.345 -15.335   1.916  0.00  0.00    +0.010 A 
ATOM     28  C   UNL     1       3.887 -14.643  -1.691  0.00  0.00    +0.008 A 
ATOM     31  C   UNL     1       5.350 -15.640   0.001  0.00  0.00    +0.008 A 
ATOM     32  C   UNL     1       4.569 -15.903   2.271  0.00  0.00    +0.001 A 
ATOM     36  C   UNL     1       5.569 -16.055   1.316  0.00  0.00    +0.001 A 
ENDBRANCH   6  18
ENDBRANCH  13   5
TORSDOF 5
ENDMDL
MODEL 3
REMARK VINA RESULT:      -7.9     23.270     27.634
REMARK  Name = 44716813
REMARK  7 active torsions:
REMARK  status: ('A' for Active; 'I' for Inactive)
REMARK    1  A    between atoms: N_4  and  C_12
REMARK    2  A    between atoms: N_5  and  C_13
REMARK    3  A    between atoms: N_6  and  C_18
REMARK    4  A    between atoms: N_9  and  C_35
REMARK    5  A    between atoms: N_9  and  C_37
REMARK    6  A    between atoms: N_9  and  C_38
REMARK    7  A    between atoms: C_19  and  C_23
REMARK                            x       y       z     vdW  Elec       q    Type
REMARK                         _______ _______ _______ _____ _____    ______ ____
ROOT
ATOM      1  O   UNL     1      -4.676  -9.104  10.274  0.00  0.00    -0.370 OA
ATOM      2  O   UNL     1      -5.930 -11.945  10.583  0.00  0.00    -0.370 OA
ATOM     10  C   UNL     1      -4.635 -11.403  10.889  0.00  0.00    +0.171 C 
ATOM     11  C   UNL     1      -4.295 -10.406   9.798  0.00  0.00    +0.171 C 
ATOM     12  C   UNL     1      -4.700 -10.567  12.146  0.00  0.00    +0.130 C 
ATOM     13  C   UNL     1      -5.171 -10.818   8.637  0.00  0.00    +0.131 C 
ATOM     14  C   UNL     1      -5.152  -9.216  11.624  0.00  0.00    +0.185 C 
ATOM     15  C   UNL     1      -6.387 -11.397   9.338  0.00  0.00    +0.185 C 
ENDROOT
BRANCH  12   4
ATOM      4  N   UNL     1      -3.385 -10.460  12.738  0.00  0.00    -0.306 N 
ATOM      7  N   UNL     1      -4.213 -10.825  14.877  0.00  0.00    -0.214 NA
ATOM      8  N   UNL     1      -1.862 -10.462  14.492  0.00  0.00    -0.223 NA
ATOM     16  C   UNL     1      -3.143 -10.587  14.095  0.00  0.00    +0.216 A 
ATOM     19  C   UNL     1      -3.941 -10.948  16.193  0.00  0.00    +0.076 A 
ATOM     20  C   UNL     1      -1.662 -10.595  15.820  0.00  0.00    +0.116 A 
ATOM     21  C   UNL     1      -2.673 -10.841  16.727  0.00  0.00    +0.048 A 
ATOM     39  H   UNL     1      -2.577 -10.334  12.139  0.00  0.00    +0.149 HD
BRANCH  19  23
ATOM     23  C   UNL     1      -5.084 -11.204  17.034  0.00  0.00    +0.001 A 
ATOM     29  C   UNL     1      -5.164 -10.623  18.300  0.00  0.00    +0.012 A 
ATOM     30  C   UNL     1      -6.112 -12.033  16.582  0.00  0.00    +0.012 A 
ATOM     33  C   UNL     1      -6.270 -10.870  19.113  0.00  0.00    +0.024 A 
ATOM     34  C   UNL     1      -7.218 -12.280  17.396  0.00  0.00    +0.024 A 
ATOM     35  C   UNL     1      -7.297 -11.700  18.661  0.00  0.00    +0.029 A 
BRANCH  35   9
ATOM      9  N   UNL     1      -8.414 -11.950  19.483  0.00  0.00    -0.336 N 
ATOM     37  C   UNL     1      -9.394 -10.909  19.730  0.00  0.00    +0.129 C 
ATOM     38  C   UNL     1      -8.605 -13.255  20.087  0.00  0.00    +0.129 C 
ENDBRANCH  35   9
ENDBRANCH  19  23
ENDBRANCH  12   4
BRANCH  13   5
ATOM      3  O   UNL     1      -4.891 -10.770   5.787  0.00  0.00    -0.252 OA
ATOM      5  N   UNL     1      -4.518 -11.810   7.817  0.00  0.00    -0.292 N 
ATOM      6  N   UNL     1      -3.741 -12.813   5.902  0.00  0.00    -0.269 N 
ATOM     17  C   UNL     1      -4.424 -11.710   6.424  0.00  0.00    +0.304 C 
ATOM     40  H   UNL     1      -4.048 -12.583   8.278  0.00  0.00    +0.151 HD
ATOM     41  H   UNL     1      -3.433 -13.487   6.592  0.00  0.00    +0.156 HD
BRANCH   6  18
ATOM     18  C   UNL     1      -3.441 -13.085   4.548  0.00  0.00    +0.042 A 
ATOM     22  C   UNL     1      -2.222 -13.670   4.164  0.00  0.00    +0.003 A 
ATOM     24  C   UNL     1      -4.401 -12.751   3.593  0.00  0.00    +0.024 A 
ATOM     25  C   UNL     1      -1.976 -13.920   2.793  0.00  0.00    -0.016 A 
ATOM     26  C   UNL     1      -4.160 -12.997   2.244  0.00  0.00    +0.002 A 
ATOM     27  C   UNL     1      -1.244 -14.013   5.110  0.00  0.00    +0.010 A 
ATOM     28  C   UNL     1      -2.955 -13.577   1.845  0.00  0.00    +0.008 A 
ATOM     31  C   UNL     1      -0.759 -14.504   2.408  0.00  0.00    +0.008 A 
ATOM     32  C   UNL     1      -0.039 -14.593   4.711  0.00  0.00    +0.001 A 
ATOM     36  C   UNL     1       0.203 -14.838   3.363  0.00  0.00    +0.001 A 
ENDBRANCH   6  18
ENDBRANCH  13   5
TORSDOF 5
ENDMDL
MODEL 4
REMARK VINA RESULT:      -7.8     27.523     31.310
REMARK  Name = 44716813
REMARK  7 active torsions:
REMARK  status: ('A' for Active; 'I' for Inactive)
REMARK    1  A    between atoms: N_4  and  C_12
REMARK    2  A    between atoms: N_5  and  C_13
REMARK    3  A    between atoms: N_6  and  C_18
REMARK    4  A    between atoms: N_9  and  C_35
REMARK    5  A    between atoms: N_9  and  C_37
REMARK    6  A    between atoms: N_9  and  C_38
REMARK    7  A    between atoms: C_19  and  C_23
REMARK                            x       y       z     vdW  Elec       q    Type
REMARK                         _______ _______ _______ _____ _____    ______ ____
ROOT
ATOM      1  O   UNL     1      10.767  14.101  10.585  0.00  0.00    -0.370 OA
ATOM      2  O   UNL     1       9.762  11.918  12.576  0.00  0.00    -0.370 OA
ATOM     10  C   UNL     1      11.023  12.154  11.929  0.00  0.00    +0.171 C 
ATOM     11  C   UNL     1      10.724  12.665  10.533  0.00  0.00    +0.171 C 
ATOM     12  C   UNL     1      11.748  13.299  12.594  0.00  0.00    +0.130 C 
ATOM     13  C   UNL     1       9.314  12.190  10.261  0.00  0.00    +0.131 C 
ATOM     14  C   UNL     1      11.157  14.514  11.903  0.00  0.00    +0.185 C 
ATOM     15  C   UNL     1       8.700  12.189  11.650  0.00  0.00    +0.185 C 
ENDROOT
BRANCH  12   4
ATOM      4  N   UNL     1      13.167  13.211  12.324  0.00  0.00    -0.306 N 
ATOM      7  N   UNL     1      13.520  11.789  14.126  0.00  0.00    -0.214 NA
ATOM      8  N   UNL     1      15.338  12.482  12.705  0.00  0.00    -0.223 NA
ATOM     16  C   UNL     1      14.047  12.462  13.085  0.00  0.00    +0.216 A 
ATOM     19  C   UNL     1      14.404  11.066  14.844  0.00  0.00    +0.076 A 
ATOM     20  C   UNL     1      16.168  11.738  13.467  0.00  0.00    +0.116 A 
ATOM     21  C   UNL     1      15.753  11.003  14.559  0.00  0.00    +0.048 A 
ATOM     39  H   UNL     1      13.548  13.676  11.508  0.00  0.00    +0.149 HD
BRANCH  19  23
ATOM     23  C   UNL     1      13.844  10.344  15.959  0.00  0.00    +0.001 A 
ATOM     29  C   UNL     1      14.434  10.438  17.220  0.00  0.00    +0.012 A 
ATOM     30  C   UNL     1      12.710   9.550  15.779  0.00  0.00    +0.012 A 
ATOM     33  C   UNL     1      13.891   9.740  18.299  0.00  0.00    +0.024 A 
ATOM     34  C   UNL     1      12.168   8.851  16.858  0.00  0.00    +0.024 A 
ATOM     35  C   UNL     1      12.758   8.946  18.117  0.00  0.00    +0.029 A 
BRANCH  35   9
ATOM      9  N   UNL     1      12.211   8.240  19.208  0.00  0.00    -0.336 N 
ATOM     37  C   UNL     1      11.165   8.834  20.018  0.00  0.00    +0.129 C 
ATOM     38  C   UNL     1      12.679   6.905  19.529  0.00  0.00    +0.129 C 
ENDBRANCH  35   9
ENDBRANCH  19  23
ENDBRANCH  12   4
BRANCH  13   5
ATOM      3  O   UNL     1       9.063  11.531   7.485  0.00  0.00    -0.252 OA
ATOM      5  N   UNL     1       9.310  10.867   9.686  0.00  0.00    -0.292 N 
ATOM      6  N   UNL     1       9.212   9.258   8.051  0.00  0.00    -0.269 N 
ATOM     17  C   UNL     1       9.183  10.630   8.312  0.00  0.00    +0.304 C 
ATOM     40  H   UNL     1       9.473  10.075  10.299  0.00  0.00    +0.151 HD
ATOM     41  H   UNL     1       9.316   8.671   8.869  0.00  0.00    +0.156 HD
BRANCH   6  18
ATOM     18  C   UNL     1       9.113   8.611   6.797  0.00  0.00    +0.042 A 
ATOM     22  C   UNL     1       9.332   7.230   6.657  0.00  0.00    +0.003 A 
ATOM     24  C   UNL     1       8.788   9.395   5.690  0.00  0.00    +0.024 A 
ATOM     25  C   UNL     1       9.218   6.638   5.377  0.00  0.00    -0.016 A 
ATOM     26  C   UNL     1       8.676   8.813   4.431  0.00  0.00    +0.002 A 
ATOM     27  C   UNL     1       9.659   6.425   7.760  0.00  0.00    +0.010 A 
ATOM     28  C   UNL     1       8.891   7.443   4.273  0.00  0.00    +0.008 A 
ATOM     31  C   UNL     1       9.437   5.258   5.237  0.00  0.00    +0.008 A 
ATOM     32  C   UNL     1       9.873   5.055   7.603  0.00  0.00    +0.001 A 
ATOM     36  C   UNL     1       9.762   4.473   6.344  0.00  0.00    +0.001 A 
ENDBRANCH   6  18
ENDBRANCH  13   5
TORSDOF 5
ENDMDL
MODEL 5
REMARK VINA RESULT:      -7.8     28.216     32.775
REMARK  Name = 44716813
REMARK  7 active torsions:
REMARK  status: ('A' for Active; 'I' for Inactive)
REMARK    1  A    between atoms: N_4  and  C_12
REMARK    2  A    between atoms: N_5  and  C_13
REMARK    3  A    between atoms: N_6  and  C_18
REMARK    4  A    between atoms: N_9  and  C_35
REMARK    5  A    between atoms: N_9  and  C_37
REMARK    6  A    between atoms: N_9  and  C_38
REMARK    7  A    between atoms: C_19  and  C_23
REMARK                            x       y       z     vdW  Elec       q    Type
REMARK                         _______ _______ _______ _____ _____    ______ ____
ROOT
ATOM      1  O   UNL     1      -4.083 -15.045   3.880  0.00  0.00    -0.370 OA
ATOM      2  O   UNL     1      -1.476 -14.384   5.464  0.00  0.00    -0.370 OA
ATOM     10  C   UNL     1      -2.527 -13.572   4.916  0.00  0.00    +0.171 C 
ATOM     11  C   UNL     1      -2.949 -14.206   3.605  0.00  0.00    +0.171 C 
ATOM     12  C   UNL     1      -3.762 -13.657   5.781  0.00  0.00    +0.130 C 
ATOM     13  C   UNL     1      -1.758 -15.046   3.202  0.00  0.00    +0.131 C 
ATOM     14  C   UNL     1      -4.446 -14.908   5.262  0.00  0.00    +0.185 C 
ATOM     15  C   UNL     1      -1.175 -15.445   4.547  0.00  0.00    +0.185 C 
ENDROOT
BRANCH  12   4
ATOM      4  N   UNL     1      -4.602 -12.500   5.562  0.00  0.00    -0.306 N 
ATOM      7  N   UNL     1      -4.224 -11.699   7.709  0.00  0.00    -0.214 NA
ATOM      8  N   UNL     1      -5.639 -10.511   6.162  0.00  0.00    -0.223 NA
ATOM     16  C   UNL     1      -4.832 -11.527   6.520  0.00  0.00    +0.216 A 
ATOM     19  C   UNL     1      -4.467 -10.731   8.617  0.00  0.00    +0.076 A 
ATOM     20  C   UNL     1      -5.839  -9.579   7.118  0.00  0.00    +0.116 A 
ATOM     21  C   UNL     1      -5.273  -9.638   8.376  0.00  0.00    +0.048 A 
ATOM     39  H   UNL     1      -5.014 -12.349   4.648  0.00  0.00    +0.149 HD
BRANCH  19  23
ATOM     23  C   UNL     1      -3.816 -10.910   9.892  0.00  0.00    +0.001 A 
ATOM     29  C   UNL     1      -3.707 -12.186  10.446  0.00  0.00    +0.012 A 
ATOM     30  C   UNL     1      -3.296  -9.808  10.572  0.00  0.00    +0.012 A 
ATOM     33  C   UNL     1      -3.077 -12.359  11.679  0.00  0.00    +0.024 A 
ATOM     34  C   UNL     1      -2.667  -9.982  11.805  0.00  0.00    +0.024 A 
ATOM     35  C   UNL     1      -2.557 -11.257  12.359  0.00  0.00    +0.029 A 
BRANCH  35   9
ATOM      9  N   UNL     1      -1.922 -11.433  13.605  0.00  0.00    -0.336 N 
ATOM     37  C   UNL     1      -1.682 -10.297  14.475  0.00  0.00    +0.129 C 
ATOM     38  C   UNL     1      -1.507 -12.753  14.038  0.00  0.00    +0.129 C 
ENDBRANCH  35   9
ENDBRANCH  19  23
ENDBRANCH  12   4
BRANCH  13   5
ATOM      3  O   UNL     1       0.257 -16.074   1.446  0.00  0.00    -0.252 OA
ATOM      5  N   UNL     1      -0.813 -14.277   2.429  0.00  0.00    -0.292 N 
ATOM      6  N   UNL     1       0.916 -13.871   0.974  0.00  0.00    -0.269 N 
ATOM     17  C   UNL     1       0.144 -14.859   1.591  0.00  0.00    +0.304 C 
ATOM     40  H   UNL     1      -0.890 -13.265   2.444  0.00  0.00    +0.151 HD
ATOM     41  H   UNL     1       0.669 -12.921   1.223  0.00  0.00    +0.156 HD
BRANCH   6  18
ATOM     18  C   UNL     1       1.981 -14.047   0.060  0.00  0.00    +0.042 A 
ATOM     22  C   UNL     1       1.782 -13.985  -1.329  0.00  0.00    +0.003 A 
ATOM     24  C   UNL     1       3.251 -14.287   0.587  0.00  0.00    +0.024 A 
ATOM     25  C   UNL     1       2.886 -14.168  -2.195  0.00  0.00    -0.016 A 
ATOM     26  C   UNL     1       4.337 -14.467  -0.265  0.00  0.00    +0.002 A 
ATOM     27  C   UNL     1       0.512 -13.744  -1.877  0.00  0.00    +0.010 A 
ATOM     28  C   UNL     1       4.157 -14.409  -1.648  0.00  0.00    +0.008 A 
ATOM     31  C   UNL     1       2.688 -14.107  -3.584  0.00  0.00    +0.008 A 
ATOM     32  C   UNL     1       0.333 -13.686  -3.260  0.00  0.00    +0.001 A 
ATOM     36  C   UNL     1       1.418 -13.866  -4.111  0.00  0.00    +0.001 A 
ENDBRANCH   6  18
ENDBRANCH  13   5
TORSDOF 5
ENDMDL
MODEL 6
REMARK VINA RESULT:      -7.7     27.368     30.483
REMARK  Name = 44716813
REMARK  7 active torsions:
REMARK  status: ('A' for Active; 'I' for Inactive)
REMARK    1  A    between atoms: N_4  and  C_12
REMARK    2  A    between atoms: N_5  and  C_13
REMARK    3  A    between atoms: N_6  and  C_18
REMARK    4  A    between atoms: N_9  and  C_35
REMARK    5  A    between atoms: N_9  and  C_37
REMARK    6  A    between atoms: N_9  and  C_38
REMARK    7  A    between atoms: C_19  and  C_23
REMARK                            x       y       z     vdW  Elec       q    Type
REMARK                         _______ _______ _______ _____ _____    ______ ____
ROOT
ATOM      1  O   UNL     1      13.778  13.805  14.859  0.00  0.00    -0.370 OA
ATOM      2  O   UNL     1      14.504  11.501  12.884  0.00  0.00    -0.370 OA
ATOM     10  C   UNL     1      13.262  11.969  13.436  0.00  0.00    +0.171 C 
ATOM     11  C   UNL     1      13.536  12.388  14.868  0.00  0.00    +0.171 C 
ATOM     12  C   UNL     1      12.833  13.245  12.753  0.00  0.00    +0.130 C 
ATOM     13  C   UNL     1      14.799  11.641  15.235  0.00  0.00    +0.131 C 
ATOM     14  C   UNL     1      13.588  14.309  13.529  0.00  0.00    +0.185 C 
ATOM     15  C   UNL     1      15.516  11.543  13.900  0.00  0.00    +0.185 C 
ENDROOT
BRANCH  12   4
ATOM      4  N   UNL     1      11.406  13.433  12.907  0.00  0.00    -0.306 N 
ATOM      7  N   UNL     1      10.937  12.131  11.042  0.00  0.00    -0.214 NA
ATOM      8  N   UNL     1       9.174  13.148  12.333  0.00  0.00    -0.223 NA
ATOM     16  C   UNL     1      10.465  12.880  12.056  0.00  0.00    +0.216 A 
ATOM     19  C   UNL     1       9.992  11.605  10.234  0.00  0.00    +0.076 A 
ATOM     20  C   UNL     1       8.283  12.591  11.486  0.00  0.00    +0.116 A 
ATOM     21  C   UNL     1       8.638  11.803  10.409  0.00  0.00    +0.048 A 
ATOM     39  H   UNL     1      11.055  13.953  13.703  0.00  0.00    +0.149 HD
BRANCH  19  23
ATOM     23  C   UNL     1      10.493  10.801   9.147  0.00  0.00    +0.001 A 
ATOM     29  C   UNL     1       9.686   9.815   8.578  0.00  0.00    +0.012 A 
ATOM     30  C   UNL     1      11.785  11.008   8.663  0.00  0.00    +0.012 A 
ATOM     33  C   UNL     1      10.171   9.037   7.526  0.00  0.00    +0.024 A 
ATOM     34  C   UNL     1      12.270  10.231   7.611  0.00  0.00    +0.024 A 
ATOM     35  C   UNL     1      11.464   9.245   7.043  0.00  0.00    +0.029 A 
BRANCH  35   9
ATOM      9  N   UNL     1      11.954   8.459   5.980  0.00  0.00    -0.336 N 
ATOM     37  C   UNL     1      11.918   7.011   6.060  0.00  0.00    +0.129 C 
ATOM     38  C   UNL     1      12.493   9.087   4.789  0.00  0.00    +0.129 C 
ENDBRANCH  35   9
ENDBRANCH  19  23
ENDBRANCH  12   4
BRANCH  13   5
ATOM      3  O   UNL     1      15.023  10.807  17.965  0.00  0.00    -0.252 OA
ATOM      5  N   UNL     1      14.497  10.334  15.765  0.00  0.00    -0.292 N 
ATOM      6  N   UNL     1      14.270   8.675  17.336  0.00  0.00    -0.269 N 
ATOM     17  C   UNL     1      14.634  10.006  17.119  0.00  0.00    +0.304 C 
ATOM     40  H   UNL     1      14.105   9.639  15.138  0.00  0.00    +0.151 HD
ATOM     41  H   UNL     1      13.976   8.173  16.507  0.00  0.00    +0.156 HD
BRANCH   6  18
ATOM     18  C   UNL     1      14.269   7.964  18.559  0.00  0.00    +0.042 A 
ATOM     22  C   UNL     1      13.142   7.935  19.397  0.00  0.00    +0.003 A 
ATOM     24  C   UNL     1      15.436   7.286  18.913  0.00  0.00    +0.024 A 
ATOM     25  C   UNL     1      13.199   7.207  20.609  0.00  0.00    -0.016 A 
ATOM     26  C   UNL     1      15.492   6.570  20.105  0.00  0.00    +0.002 A 
ATOM     27  C   UNL     1      11.959   8.611  19.057  0.00  0.00    +0.010 A 
ATOM     28  C   UNL     1      14.382   6.530  20.949  0.00  0.00    +0.008 A 
ATOM     31  C   UNL     1      12.072   7.178  21.446  0.00  0.00    +0.008 A 
ATOM     32  C   UNL     1      10.848   8.571  19.901  0.00  0.00    +0.001 A 
ATOM     36  C   UNL     1      10.905   7.856  21.093  0.00  0.00    +0.001 A 
ENDBRANCH   6  18
ENDBRANCH  13   5
TORSDOF 5
ENDMDL
MODEL 7
REMARK VINA RESULT:      -7.6      8.902     14.252
REMARK  Name = 44716813
REMARK  7 active torsions:
REMARK  status: ('A' for Active; 'I' for Inactive)
REMARK    1  A    between atoms: N_4  and  C_12
REMARK    2  A    between atoms: N_5  and  C_13
REMARK    3  A    between atoms: N_6  and  C_18
REMARK    4  A    between atoms: N_9  and  C_35
REMARK    5  A    between atoms: N_9  and  C_37
REMARK    6  A    between atoms: N_9  and  C_38
REMARK    7  A    between atoms: C_19  and  C_23
REMARK                            x       y       z     vdW  Elec       q    Type
REMARK                         _______ _______ _______ _____ _____    ______ ____
ROOT
ATOM      1  O   UNL     1     -15.047   8.923  12.350  0.00  0.00    -0.370 OA
ATOM      2  O   UNL     1     -15.985   7.020  14.639  0.00  0.00    -0.370 OA
ATOM     10  C   UNL     1     -14.690   7.444  14.180  0.00  0.00    +0.171 C 
ATOM     11  C   UNL     1     -14.762   7.551  12.669  0.00  0.00    +0.171 C 
ATOM     12  C   UNL     1     -14.408   8.855  14.637  0.00  0.00    +0.130 C 
ATOM     13  C   UNL     1     -15.931   6.669  12.292  0.00  0.00    +0.131 C 
ATOM     14  C   UNL     1     -15.074   9.693  13.561  0.00  0.00    +0.185 C 
ATOM     15  C   UNL     1     -16.835   6.795  13.505  0.00  0.00    +0.185 C 
ENDROOT
BRANCH  12   4
ATOM      4  N   UNL     1     -12.982   9.096  14.648  0.00  0.00    -0.306 N 
ATOM      7  N   UNL     1     -12.784   8.400  16.855  0.00  0.00    -0.214 NA
ATOM      8  N   UNL     1     -10.865   9.144  15.602  0.00  0.00    -0.223 NA
ATOM     16  C   UNL     1     -12.175   8.871  15.750  0.00  0.00    +0.216 A 
ATOM     19  C   UNL     1     -11.968   8.188  17.909  0.00  0.00    +0.076 A 
ATOM     20  C   UNL     1     -10.108   8.910  16.694  0.00  0.00    +0.116 A 
ATOM     21  C   UNL     1     -10.609   8.428  17.886  0.00  0.00    +0.048 A 
ATOM     39  H   UNL     1     -12.521   9.399  13.798  0.00  0.00    +0.149 HD
BRANCH  19  23
ATOM     23  C   UNL     1     -12.616   7.683  19.094  0.00  0.00    +0.001 A 
ATOM     29  C   UNL     1     -11.864   7.045  20.082  0.00  0.00    +0.012 A 
ATOM     30  C   UNL     1     -13.994   7.831  19.254  0.00  0.00    +0.012 A 
ATOM     33  C   UNL     1     -12.491   6.557  21.229  0.00  0.00    +0.024 A 
ATOM     34  C   UNL     1     -14.620   7.342  20.400  0.00  0.00    +0.024 A 
ATOM     35  C   UNL     1     -13.870   6.705  21.388  0.00  0.00    +0.029 A 
BRANCH  35   9
ATOM      9  N   UNL     1     -14.503   6.211  22.546  0.00  0.00    -0.336 N 
ATOM     37  C   UNL     1     -15.671   6.878  23.088  0.00  0.00    +0.129 C 
ATOM     38  C   UNL     1     -14.000   5.022  23.208  0.00  0.00    +0.129 C 
ENDBRANCH  35   9
ENDBRANCH  19  23
ENDBRANCH  12   4
BRANCH  13   5
ATOM      3  O   UNL     1     -17.292   4.668  10.760  0.00  0.00    -0.252 OA
ATOM      5  N   UNL     1     -15.512   5.303  12.091  0.00  0.00    -0.292 N 
ATOM      6  N   UNL     1     -15.591   3.146  11.309  0.00  0.00    -0.269 N 
ATOM     17  C   UNL     1     -16.237   4.385  11.324  0.00  0.00    +0.304 C 
ATOM     40  H   UNL     1     -14.615   5.014  12.469  0.00  0.00    +0.151 HD
ATOM     41  H   UNL     1     -14.729   3.109  11.838  0.00  0.00    +0.156 HD
BRANCH   6  18
ATOM     18  C   UNL     1     -16.000   1.962  10.651  0.00  0.00    +0.042 A 
ATOM     22  C   UNL     1     -15.532   1.629   9.368  0.00  0.00    +0.003 A 
ATOM     24  C   UNL     1     -16.892   1.126  11.322  0.00  0.00    +0.024 A 
ATOM     25  C   UNL     1     -15.976   0.431   8.760  0.00  0.00    -0.016 A 
ATOM     26  C   UNL     1     -17.328  -0.053  10.724  0.00  0.00    +0.002 A 
ATOM     27  C   UNL     1     -14.634   2.459   8.678  0.00  0.00    +0.010 A 
ATOM     28  C   UNL     1     -16.875  -0.399   9.450  0.00  0.00    +0.008 A 
ATOM     31  C   UNL     1     -15.509   0.098   7.478  0.00  0.00    +0.008 A 
ATOM     32  C   UNL     1     -14.180   2.112   7.405  0.00  0.00    +0.001 A 
ATOM     36  C   UNL     1     -14.616   0.935   6.806  0.00  0.00    +0.001 A 
ENDBRANCH   6  18
ENDBRANCH  13   5
TORSDOF 5
ENDMDL
MODEL 8
REMARK VINA RESULT:      -7.5     32.324     35.959
REMARK  Name = 44716813
REMARK  7 active torsions:
REMARK  status: ('A' for Active; 'I' for Inactive)
REMARK    1  A    between atoms: N_4  and  C_12
REMARK    2  A    between atoms: N_5  and  C_13
REMARK    3  A    between atoms: N_6  and  C_18
REMARK    4  A    between atoms: N_9  and  C_35
REMARK    5  A    between atoms: N_9  and  C_37
REMARK    6  A    between atoms: N_9  and  C_38
REMARK    7  A    between atoms: C_19  and  C_23
REMARK                            x       y       z     vdW  Elec       q    Type
REMARK                         _______ _______ _______ _____ _____    ______ ____
ROOT
ATOM      1  O   UNL     1      21.449   8.346  21.135  0.00  0.00    -0.370 OA
ATOM      2  O   UNL     1      19.983   6.163  22.814  0.00  0.00    -0.370 OA
ATOM     10  C   UNL     1      20.736   6.122  21.591  0.00  0.00    +0.171 C 
ATOM     11  C   UNL     1      20.420   7.392  20.825  0.00  0.00    +0.171 C 
ATOM     12  C   UNL     1      22.215   6.225  21.882  0.00  0.00    +0.130 C 
ATOM     13  C   UNL     1      19.094   7.845  21.396  0.00  0.00    +0.131 C 
ATOM     14  C   UNL     1      22.432   7.724  21.976  0.00  0.00    +0.185 C 
ATOM     15  C   UNL     1      19.171   7.345  22.827  0.00  0.00    +0.185 C 
ENDROOT
BRANCH  12   4
ATOM      4  N   UNL     1      22.976   5.678  20.780  0.00  0.00    -0.306 N 
ATOM      7  N   UNL     1      23.390   3.699  21.923  0.00  0.00    -0.214 NA
ATOM      8  N   UNL     1      24.237   4.057  19.696  0.00  0.00    -0.223 NA
ATOM     16  C   UNL     1      23.560   4.423  20.801  0.00  0.00    +0.216 A 
ATOM     19  C   UNL     1      23.969   2.480  21.908  0.00  0.00    +0.076 A 
ATOM     20  C   UNL     1      24.791   2.828  19.748  0.00  0.00    +0.116 A 
ATOM     21  C   UNL     1      24.689   1.987  20.839  0.00  0.00    +0.048 A 
ATOM     39  H   UNL     1      23.055   6.206  19.918  0.00  0.00    +0.149 HD
BRANCH  19  23
ATOM     23  C   UNL     1      23.789   1.701  23.108  0.00  0.00    +0.001 A 
ATOM     29  C   UNL     1      24.703   0.698  23.433  0.00  0.00    +0.012 A 
ATOM     30  C   UNL     1      22.700   1.949  23.945  0.00  0.00    +0.012 A 
ATOM     33  C   UNL     1      24.529  -0.055  24.594  0.00  0.00    +0.024 A 
ATOM     34  C   UNL     1      22.526   1.195  25.105  0.00  0.00    +0.024 A 
ATOM     35  C   UNL     1      23.440   0.193  25.430  0.00  0.00    +0.029 A 
BRANCH  35   9
ATOM      9  N   UNL     1      23.263  -0.569  26.603  0.00  0.00    -0.336 N 
ATOM     37  C   UNL     1      22.299  -0.162  27.607  0.00  0.00    +0.129 C 
ATOM     38  C   UNL     1      24.038  -1.776  26.818  0.00  0.00    +0.129 C 
ENDBRANCH  35   9
ENDBRANCH  19  23
ENDBRANCH  12   4
BRANCH  13   5
ATOM      3  O   UNL     1      16.736   9.173  20.459  0.00  0.00    -0.252 OA
ATOM      5  N   UNL     1      17.989   7.245  20.689  0.00  0.00    -0.292 N 
ATOM      6  N   UNL     1      15.966   7.125  19.610  0.00  0.00    -0.269 N 
ATOM     17  C   UNL     1      16.869   7.967  20.264  0.00  0.00    +0.304 C 
ATOM     40  H   UNL     1      18.058   6.265  20.431  0.00  0.00    +0.151 HD
ATOM     41  H   UNL     1      16.255   6.156  19.550  0.00  0.00    +0.156 HD
BRANCH   6  18
ATOM     18  C   UNL     1      14.719   7.467  19.036  0.00  0.00    +0.042 A 
ATOM     22  C   UNL     1      13.558   7.601  19.816  0.00  0.00    +0.003 A 
ATOM     24  C   UNL     1      14.677   7.669  17.657  0.00  0.00    +0.024 A 
ATOM     25  C   UNL     1      12.338   7.946  19.186  0.00  0.00    -0.016 A 
ATOM     26  C   UNL     1      13.478   8.008  17.037  0.00  0.00    +0.002 A 
ATOM     27  C   UNL     1      13.581   7.402  21.205  0.00  0.00    +0.010 A 
ATOM     28  C   UNL     1      12.314   8.145  17.796  0.00  0.00    +0.008 A 
ATOM     31  C   UNL     1      11.177   8.080  19.965  0.00  0.00    +0.008 A 
ATOM     32  C   UNL     1      12.418   7.539  21.964  0.00  0.00    +0.001 A 
ATOM     36  C   UNL     1      11.219   7.877  21.345  0.00  0.00    +0.001 A 
ENDBRANCH   6  18
ENDBRANCH  13   5
TORSDOF 5
ENDMDL
MODEL 9
REMARK VINA RESULT:      -7.5     16.241     18.862
REMARK  Name = 44716813
REMARK  7 active torsions:
REMARK  status: ('A' for Active; 'I' for Inactive)
REMARK    1  A    between atoms: N_4  and  C_12
REMARK    2  A    between atoms: N_5  and  C_13
REMARK    3  A    between atoms: N_6  and  C_18
REMARK    4  A    between atoms: N_9  and  C_35
REMARK    5  A    between atoms: N_9  and  C_37
REMARK    6  A    between atoms: N_9  and  C_38
REMARK    7  A    between atoms: C_19  and  C_23
REMARK                            x       y       z     vdW  Elec       q    Type
REMARK                         _______ _______ _______ _____ _____    ______ ____
ROOT
ATOM      1  O   UNL     1     -12.963  -8.462  15.246  0.00  0.00    -0.370 OA
ATOM      2  O   UNL     1     -11.455  -5.741  15.490  0.00  0.00    -0.370 OA
ATOM     10  C   UNL     1     -11.392  -6.819  14.542  0.00  0.00    +0.171 C 
ATOM     11  C   UNL     1     -11.571  -8.110  15.316  0.00  0.00    +0.171 C 
ATOM     12  C   UNL     1     -12.586  -6.774  13.617  0.00  0.00    +0.130 C 
ATOM     13  C   UNL     1     -11.192  -7.745  16.734  0.00  0.00    +0.131 C 
ATOM     14  C   UNL     1     -13.646  -7.519  14.407  0.00  0.00    +0.185 C 
ATOM     15  C   UNL     1     -11.597  -6.283  16.810  0.00  0.00    +0.185 C 
ENDROOT
BRANCH  12   4
ATOM      4  N   UNL     1     -12.288  -7.481  12.390  0.00  0.00    -0.306 N 
ATOM      7  N   UNL     1     -13.238  -5.810  11.086  0.00  0.00    -0.214 NA
ATOM      8  N   UNL     1     -12.269  -7.777  10.087  0.00  0.00    -0.223 NA
ATOM     16  C   UNL     1     -12.613  -7.002  11.133  0.00  0.00    +0.216 A 
ATOM     19  C   UNL     1     -13.537  -5.371   9.845  0.00  0.00    +0.076 A 
ATOM     20  C   UNL     1     -12.598  -7.279   8.876  0.00  0.00    +0.116 A 
ATOM     21  C   UNL     1     -13.238  -6.070   8.693  0.00  0.00    +0.048 A 
ATOM     39  H   UNL     1     -11.770  -8.351  12.429  0.00  0.00    +0.149 HD
BRANCH  19  23
ATOM     23  C   UNL     1     -14.205  -4.094   9.790  0.00  0.00    +0.001 A 
ATOM     29  C   UNL     1     -14.863  -3.603  10.918  0.00  0.00    +0.012 A 
ATOM     30  C   UNL     1     -14.195  -3.350   8.610  0.00  0.00    +0.012 A 
ATOM     33  C   UNL     1     -15.509  -2.367  10.866  0.00  0.00    +0.024 A 
ATOM     34  C   UNL     1     -14.841  -2.115   8.558  0.00  0.00    +0.024 A 
ATOM     35  C   UNL     1     -15.499  -1.624   9.685  0.00  0.00    +0.029 A 
BRANCH  35   9
ATOM      9  N   UNL     1     -16.153  -0.376   9.633  0.00  0.00    -0.336 N 
ATOM     37  C   UNL     1     -15.793   0.601   8.623  0.00  0.00    +0.129 C 
ATOM     38  C   UNL     1     -17.201  -0.055  10.582  0.00  0.00    +0.129 C 
ENDBRANCH  35   9
ENDBRANCH  19  23
ENDBRANCH  12   4
BRANCH  13   5
ATOM      3  O   UNL     1      -9.868 -10.094  17.697  0.00  0.00    -0.252 OA
ATOM      5  N   UNL     1      -9.775  -7.908  16.954  0.00  0.00    -0.292 N 
ATOM      6  N   UNL     1      -7.820  -8.958  17.542  0.00  0.00    -0.269 N 
ATOM     17  C   UNL     1      -9.206  -9.095  17.428  0.00  0.00    +0.304 C 
ATOM     40  H   UNL     1      -9.156  -7.148  16.690  0.00  0.00    +0.151 HD
ATOM     41  H   UNL     1      -7.458  -8.052  17.273  0.00  0.00    +0.156 HD
BRANCH   6  18
ATOM     18  C   UNL     1      -6.886  -9.924  17.983  0.00  0.00    +0.042 A 
ATOM     22  C   UNL     1      -5.865 -10.404  17.145  0.00  0.00    +0.003 A 
ATOM     24  C   UNL     1      -7.011 -10.393  19.291  0.00  0.00    +0.024 A 
ATOM     25  C   UNL     1      -4.960 -11.371  17.642  0.00  0.00    -0.016 A 
ATOM     26  C   UNL     1      -6.120 -11.345  19.780  0.00  0.00    +0.002 A 
ATOM     27  C   UNL     1      -5.724  -9.943  15.827  0.00  0.00    +0.010 A 
ATOM     28  C   UNL     1      -5.100 -11.832  18.961  0.00  0.00    +0.008 A 
ATOM     31  C   UNL     1      -3.939 -11.850  16.805  0.00  0.00    +0.008 A 
ATOM     32  C   UNL     1      -4.704 -10.430  15.008  0.00  0.00    +0.001 A 
ATOM     36  C   UNL     1      -3.814 -11.382  15.496  0.00  0.00    +0.001 A 
ENDBRANCH   6  18
ENDBRANCH  13   5
TORSDOF 5
ENDMDL
MODEL 10
REMARK VINA RESULT:      -7.4     24.799     30.376
REMARK  Name = 44716813
REMARK  7 active torsions:
REMARK  status: ('A' for Active; 'I' for Inactive)
REMARK    1  A    between atoms: N_4  and  C_12
REMARK    2  A    between atoms: N_5  and  C_13
REMARK    3  A    between atoms: N_6  and  C_18
REMARK    4  A    between atoms: N_9  and  C_35
REMARK    5  A    between atoms: N_9  and  C_37
REMARK    6  A    between atoms: N_9  and  C_38
REMARK    7  A    between atoms: C_19  and  C_23
REMARK                            x       y       z     vdW  Elec       q    Type
REMARK                         _______ _______ _______ _____ _____    ______ ____
ROOT
ATOM      1  O   UNL     1       5.305  12.942   1.754  0.00  0.00    -0.370 OA
ATOM      2  O   UNL     1       4.926  10.993   4.161  0.00  0.00    -0.370 OA
ATOM     10  C   UNL     1       5.359  10.807   2.803  0.00  0.00    +0.171 C 
ATOM     11  C   UNL     1       4.536  11.741   1.938  0.00  0.00    +0.171 C 
ATOM     12  C   UNL     1       6.777  11.297   2.632  0.00  0.00    +0.130 C 
ATOM     13  C   UNL     1       3.306  12.027   2.769  0.00  0.00    +0.131 C 
ATOM     14  C   UNL     1       6.587  12.781   2.378  0.00  0.00    +0.185 C 
ATOM     15  C   UNL     1       3.845  11.936   4.186  0.00  0.00    +0.185 C 
ENDROOT
BRANCH  12   4
ATOM      4  N   UNL     1       7.384  10.666   1.481  0.00  0.00    -0.306 N 
ATOM      7  N   UNL     1       8.217   8.915   2.760  0.00  0.00    -0.214 NA
ATOM      8  N   UNL     1       8.603   9.022   0.384  0.00  0.00    -0.223 NA
ATOM     16  C   UNL     1       8.100   9.483   1.544  0.00  0.00    +0.216 A 
ATOM     19  C   UNL     1       8.918   7.762   2.785  0.00  0.00    +0.076 A 
ATOM     20  C   UNL     1       9.293   7.866   0.481  0.00  0.00    +0.116 A 
ATOM     21  C   UNL     1       9.484   7.185   1.667  0.00  0.00    +0.048 A 
ATOM     39  H   UNL     1       7.246  11.069   0.561  0.00  0.00    +0.149 HD
BRANCH  19  23
ATOM     23  C   UNL     1       9.045   7.151   4.085  0.00  0.00    +0.001 A 
ATOM     29  C   UNL     1       8.366   7.689   5.178  0.00  0.00    +0.012 A 
ATOM     30  C   UNL     1       9.847   6.021   4.250  0.00  0.00    +0.012 A 
ATOM     33  C   UNL     1       8.488   7.097   6.436  0.00  0.00    +0.024 A 
ATOM     34  C   UNL     1       9.970   5.430   5.507  0.00  0.00    +0.024 A 
ATOM     35  C   UNL     1       9.291   5.967   6.600  0.00  0.00    +0.029 A 
BRANCH  35   9
ATOM      9  N   UNL     1       9.416   5.370   7.871  0.00  0.00    -0.336 N 
ATOM     37  C   UNL     1       9.103   6.123   9.071  0.00  0.00    +0.129 C 
ATOM     38  C   UNL     1       9.850   3.992   7.997  0.00  0.00    +0.129 C 
ENDBRANCH  35   9
ENDBRANCH  19  23
ENDBRANCH  12   4
BRANCH  13   5
ATOM      3  O   UNL     1       0.479  12.409   3.025  0.00  0.00    -0.252 OA
ATOM      5  N   UNL     1       2.277  11.042   2.536  0.00  0.00    -0.292 N 
ATOM      6  N   UNL     1       0.157  10.172   2.392  0.00  0.00    -0.269 N 
ATOM     17  C   UNL     1       0.912  11.311   2.684  0.00  0.00    +0.304 C 
ATOM     40  H   UNL     1       2.554  10.130   2.185  0.00  0.00    +0.151 HD
ATOM     41  H   UNL     1       0.700   9.358   2.129  0.00  0.00    +0.156 HD
BRANCH   6  18
ATOM     18  C   UNL     1      -1.249  10.032   2.423  0.00  0.00    +0.042 A 
ATOM     22  C   UNL     1      -1.922   9.568   3.567  0.00  0.00    +0.003 A 
ATOM     24  C   UNL     1      -1.958  10.372   1.270  0.00  0.00    +0.024 A 
ATOM     25  C   UNL     1      -3.331   9.448   3.540  0.00  0.00    -0.016 A 
ATOM     26  C   UNL     1      -3.345  10.254   1.244  0.00  0.00    +0.002 A 
ATOM     27  C   UNL     1      -1.225   9.222   4.736  0.00  0.00    +0.010 A 
ATOM     28  C   UNL     1      -4.029   9.794   2.370  0.00  0.00    +0.008 A 
ATOM     31  C   UNL     1      -4.004   8.985   4.682  0.00  0.00    +0.008 A 
ATOM     32  C   UNL     1      -1.909   8.763   5.862  0.00  0.00    +0.001 A 
ATOM     36  C   UNL     1      -3.295   8.645   5.836  0.00  0.00    +0.001 A 
ENDBRANCH   6  18
ENDBRANCH  13   5
TORSDOF 5
ENDMDL
