MODEL 1
REMARK VINA RESULT:      -6.9      0.000      0.000
REMARK  Name = 7051289
REMARK  7 active torsions:
REMARK  status: ('A' for Active; 'I' for Inactive)
REMARK    1  A    between atoms: S_2  and  N_10
REMARK    2  A    between atoms: S_2  and  C_25
REMARK    3  A    between atoms: O_5  and  C_24
REMARK    4  A    between atoms: O_5  and  C_26
REMARK    5  A    between atoms: N_10  and  C_21
REMARK    6  A    between atoms: C_20  and  C_23
REMARK    7  A    between atoms: C_23  and  C_24
REMARK                            x       y       z     vdW  Elec       q    Type
REMARK                         _______ _______ _______ _____ _____    ______ ____
ROOT
ATOM      3  O   UNL     1      12.407   7.713   2.994  0.00  0.00    -0.266 OA
ATOM      4  O   UNL     1      11.769   6.049   8.047  0.00  0.00    -0.276 OA
ATOM      8  N   UNL     1      10.299   7.781   7.560  0.00  0.00    -0.300 N 
ATOM      9  N   UNL     1      10.767   8.485   4.478  0.00  0.00    -0.310 N 
ATOM     11  C   UNL     1      11.312   9.842   6.578  0.00  0.00    +0.027 C 
ATOM     12  C   UNL     1       8.976   9.270   6.068  0.00  0.00    +0.054 C 
ATOM     13  C   UNL     1       9.918  10.427   6.394  0.00  0.00    +0.018 C 
ATOM     14  C   UNL     1      11.321   8.817   7.725  0.00  0.00    +0.113 C 
ATOM     15  C   UNL     1      11.772   9.225   5.252  0.00  0.00    +0.130 C 
ATOM     16  C   UNL     1       8.950   8.277   7.247  0.00  0.00    +0.117 C 
ATOM     17  C   UNL     1       9.405   8.554   4.801  0.00  0.00    +0.027 A 
ATOM     18  C   UNL     1       8.488   7.965   4.013  0.00  0.00    +0.024 A 
ATOM     19  C   UNL     1      11.229   7.794   3.339  0.00  0.00    +0.274 A 
ATOM     20  C   UNL     1      10.631   6.444   7.786  0.00  0.00    +0.218 C 
ATOM     21  C   UNL     1      10.173   7.146   2.522  0.00  0.00    +0.112 A 
ATOM     22  C   UNL     1       8.880   7.236   2.837  0.00  0.00    +0.031 A 
ENDROOT
BRANCH  21  10
ATOM     10  N   UNL     1      10.515   6.419   1.369  0.00  0.00    -0.211 N 
ATOM     32  H   UNL     1       9.990   6.721   0.535  0.00  0.00    +0.174 HD
BRANCH  10   2
ATOM      2  S   UNL     1      10.671   4.741   1.533  0.00  0.00    +0.072 S 
ATOM      6  O   UNL     1      10.648   4.384   2.939  0.00  0.00    -0.150 OA
ATOM      7  O   UNL     1       9.789   4.075   0.595  0.00  0.00    -0.150 OA
BRANCH   2  25
ATOM      1 CL   UNL     1      16.529   3.912  -0.502  0.00  0.00    -0.084 Cl
ATOM     25  C   UNL     1      12.328   4.506   0.958  0.00  0.00    +0.109 A 
ATOM     27  C   UNL     1      12.724   5.112  -0.222  0.00  0.00    +0.030 A 
ATOM     28  C   UNL     1      13.194   3.723   1.698  0.00  0.00    +0.030 A 
ATOM     29  C   UNL     1      14.030   4.927  -0.675  0.00  0.00    +0.022 A 
ATOM     30  C   UNL     1      14.500   3.538   1.245  0.00  0.00    +0.022 A 
ATOM     31  C   UNL     1      14.918   4.141   0.058  0.00  0.00    +0.041 A 
ENDBRANCH   2  25
ENDBRANCH  10   2
ENDBRANCH  21  10
BRANCH  20  23
ATOM     23  C   UNL     1       9.506   5.445   7.688  0.00  0.00    +0.124 C 
BRANCH  23  24
ATOM     24  C   UNL     1       9.882   4.187   8.442  0.00  0.00    +0.168 C 
BRANCH  24   5
ATOM      5  O   UNL     1       9.963   4.473   9.832  0.00  0.00    -0.382 OA
ATOM     26  C   UNL     1       8.675   4.647  10.406  0.00  0.00    +0.194 C 
ENDBRANCH  24   5
ENDBRANCH  23  24
ENDBRANCH  20  23
TORSDOF 6
ENDMDL
MODEL 2
REMARK VINA RESULT:      -6.6     23.623     27.517
REMARK  Name = 7051289
REMARK  7 active torsions:
REMARK  status: ('A' for Active; 'I' for Inactive)
REMARK    1  A    between atoms: S_2  and  N_10
REMARK    2  A    between atoms: S_2  and  C_25
REMARK    3  A    between atoms: O_5  and  C_24
REMARK    4  A    between atoms: O_5  and  C_26
REMARK    5  A    between atoms: N_10  and  C_21
REMARK    6  A    between atoms: C_20  and  C_23
REMARK    7  A    between atoms: C_23  and  C_24
REMARK                            x       y       z     vdW  Elec       q    Type
REMARK                         _______ _______ _______ _____ _____    ______ ____
ROOT
ATOM      3  O   UNL     1      -3.903 -11.689  18.204  0.00  0.00    -0.266 OA
ATOM      4  O   UNL     1      -7.666 -15.334  17.081  0.00  0.00    -0.276 OA
ATOM      8  N   UNL     1      -8.635 -13.297  17.635  0.00  0.00    -0.300 N 
ATOM      9  N   UNL     1      -6.207 -11.273  18.108  0.00  0.00    -0.310 N 
ATOM     11  C   UNL     1      -7.875 -12.262  19.778  0.00  0.00    +0.027 C 
ATOM     12  C   UNL     1      -8.683 -10.828  17.950  0.00  0.00    +0.054 C 
ATOM     13  C   UNL     1      -8.709 -11.026  19.464  0.00  0.00    +0.018 C 
ATOM     14  C   UNL     1      -8.458 -13.499  19.074  0.00  0.00    +0.113 C 
ATOM     15  C   UNL     1      -6.422 -11.998  19.367  0.00  0.00    +0.130 C 
ATOM     16  C   UNL     1      -9.319 -12.050  17.258  0.00  0.00    +0.117 C 
ATOM     17  C   UNL     1      -7.265 -10.633  17.448  0.00  0.00    +0.027 A 
ATOM     18  C   UNL     1      -7.030  -9.877  16.360  0.00  0.00    +0.024 A 
ATOM     19  C   UNL     1      -4.874 -11.166  17.659  0.00  0.00    +0.274 A 
ATOM     20  C   UNL     1      -8.239 -14.296  16.745  0.00  0.00    +0.218 C 
ATOM     21  C   UNL     1      -4.682 -10.338  16.442  0.00  0.00    +0.112 A 
ATOM     22  C   UNL     1      -5.700  -9.723  15.837  0.00  0.00    +0.031 A 
ENDROOT
BRANCH  21  10
ATOM     10  N   UNL     1      -3.398 -10.168  15.896  0.00  0.00    -0.211 N 
ATOM     32  H   UNL     1      -3.244  -9.220  15.525  0.00  0.00    +0.174 HD
BRANCH  10   2
ATOM      2  S   UNL     1      -2.808 -11.414  14.913  0.00  0.00    +0.072 S 
ATOM      6  O   UNL     1      -1.375 -11.542  15.095  0.00  0.00    -0.150 OA
ATOM      7  O   UNL     1      -3.667 -12.576  15.030  0.00  0.00    -0.150 OA
BRANCH   2  25
ATOM      1 CL   UNL     1      -3.754  -8.960   9.235  0.00  0.00    -0.084 Cl
ATOM     25  C   UNL     1      -3.075 -10.720  13.307  0.00  0.00    +0.109 A 
ATOM     27  C   UNL     1      -4.370 -10.578  12.841  0.00  0.00    +0.030 A 
ATOM     28  C   UNL     1      -1.985 -10.332  12.550  0.00  0.00    +0.030 A 
ATOM     29  C   UNL     1      -4.581 -10.031  11.575  0.00  0.00    +0.022 A 
ATOM     30  C   UNL     1      -2.195  -9.786  11.284  0.00  0.00    +0.022 A 
ATOM     31  C   UNL     1      -3.494  -9.634  10.797  0.00  0.00    +0.041 A 
ENDBRANCH   2  25
ENDBRANCH  10   2
ENDBRANCH  21  10
BRANCH  20  23
ATOM     23  C   UNL     1      -8.537 -14.056  15.287  0.00  0.00    +0.124 C 
BRANCH  23  24
ATOM     24  C   UNL     1      -7.269 -13.641  14.573  0.00  0.00    +0.168 C 
BRANCH  24   5
ATOM      5  O   UNL     1      -7.486 -12.407  13.899  0.00  0.00    -0.382 OA
ATOM     26  C   UNL     1      -8.865 -12.198  13.625  0.00  0.00    +0.194 C 
ENDBRANCH  24   5
ENDBRANCH  23  24
ENDBRANCH  20  23
TORSDOF 6
ENDMDL
MODEL 3
REMARK VINA RESULT:      -6.5     24.592     27.995
REMARK  Name = 7051289
REMARK  7 active torsions:
REMARK  status: ('A' for Active; 'I' for Inactive)
REMARK    1  A    between atoms: S_2  and  N_10
REMARK    2  A    between atoms: S_2  and  C_25
REMARK    3  A    between atoms: O_5  and  C_24
REMARK    4  A    between atoms: O_5  and  C_26
REMARK    5  A    between atoms: N_10  and  C_21
REMARK    6  A    between atoms: C_20  and  C_23
REMARK    7  A    between atoms: C_23  and  C_24
REMARK                            x       y       z     vdW  Elec       q    Type
REMARK                         _______ _______ _______ _____ _____    ______ ____
ROOT
ATOM      3  O   UNL     1      -6.556  -9.948  14.328  0.00  0.00    -0.266 OA
ATOM      4  O   UNL     1      -4.577 -14.593  12.532  0.00  0.00    -0.276 OA
ATOM      8  N   UNL     1      -2.873 -13.051  12.874  0.00  0.00    -0.300 N 
ATOM      9  N   UNL     1      -4.280 -10.445  14.076  0.00  0.00    -0.310 N 
ATOM     11  C   UNL     1      -3.176 -10.817  11.798  0.00  0.00    +0.027 C 
ATOM     12  C   UNL     1      -1.834 -11.010  13.850  0.00  0.00    +0.054 C 
ATOM     13  C   UNL     1      -1.909 -10.325  12.487  0.00  0.00    +0.018 C 
ATOM     14  C   UNL     1      -3.135 -12.344  11.619  0.00  0.00    +0.113 C 
ATOM     15  C   UNL     1      -4.393 -10.366  12.614  0.00  0.00    +0.130 C 
ATOM     16  C   UNL     1      -1.739 -12.537  13.656  0.00  0.00    +0.117 C 
ATOM     17  C   UNL     1      -3.045 -10.674  14.699  0.00  0.00    +0.027 A 
ATOM     18  C   UNL     1      -2.940 -10.627  16.040  0.00  0.00    +0.024 A 
ATOM     19  C   UNL     1      -5.449 -10.174  14.816  0.00  0.00    +0.274 A 
ATOM     20  C   UNL     1      -3.628 -14.178  13.201  0.00  0.00    +0.218 C 
ATOM     21  C   UNL     1      -5.274 -10.158  16.290  0.00  0.00    +0.112 A 
ATOM     22  C   UNL     1      -4.088 -10.363  16.864  0.00  0.00    +0.031 A 
ENDROOT
BRANCH  21  10
ATOM     10  N   UNL     1      -6.373  -9.910  17.131  0.00  0.00    -0.211 N 
ATOM     32  H   UNL     1      -6.368  -8.958  17.525  0.00  0.00    +0.174 HD
BRANCH  10   2
ATOM      2  S   UNL     1      -6.789 -11.125  18.234  0.00  0.00    +0.072 S 
ATOM      6  O   UNL     1      -6.823 -12.408  17.557  0.00  0.00    -0.150 OA
ATOM      7  O   UNL     1      -6.022 -10.962  19.453  0.00  0.00    -0.150 OA
BRANCH   2  25
ATOM      1 CL   UNL     1     -12.705  -9.546  19.524  0.00  0.00    -0.084 Cl
ATOM     25  C   UNL     1      -8.462 -10.679  18.599  0.00  0.00    +0.109 A 
ATOM     27  C   UNL     1      -9.120  -9.791  17.766  0.00  0.00    +0.030 A 
ATOM     28  C   UNL     1      -9.079 -11.226  19.709  0.00  0.00    +0.030 A 
ATOM     29  C   UNL     1     -10.439  -9.439  18.054  0.00  0.00    +0.022 A 
ATOM     30  C   UNL     1     -10.398 -10.874  19.997  0.00  0.00    +0.022 A 
ATOM     31  C   UNL     1     -11.078  -9.981  19.169  0.00  0.00    +0.041 A 
ENDBRANCH   2  25
ENDBRANCH  10   2
ENDBRANCH  21  10
BRANCH  20  23
ATOM     23  C   UNL     1      -3.241 -14.907  14.463  0.00  0.00    +0.124 C 
BRANCH  23  24
ATOM     24  C   UNL     1      -2.469 -16.159  14.106  0.00  0.00    +0.168 C 
BRANCH  24   5
ATOM      5  O   UNL     1      -1.078 -15.930  14.297  0.00  0.00    -0.382 OA
ATOM     26  C   UNL     1      -0.376 -15.924  13.062  0.00  0.00    +0.194 C 
ENDBRANCH  24   5
ENDBRANCH  23  24
ENDBRANCH  20  23
TORSDOF 6
ENDMDL
MODEL 4
REMARK VINA RESULT:      -6.4      4.109      6.226
REMARK  Name = 7051289
REMARK  7 active torsions:
REMARK  status: ('A' for Active; 'I' for Inactive)
REMARK    1  A    between atoms: S_2  and  N_10
REMARK    2  A    between atoms: S_2  and  C_25
REMARK    3  A    between atoms: O_5  and  C_24
REMARK    4  A    between atoms: O_5  and  C_26
REMARK    5  A    between atoms: N_10  and  C_21
REMARK    6  A    between atoms: C_20  and  C_23
REMARK    7  A    between atoms: C_23  and  C_24
REMARK                            x       y       z     vdW  Elec       q    Type
REMARK                         _______ _______ _______ _____ _____    ______ ____
ROOT
ATOM      3  O   UNL     1      14.021   6.577   7.334  0.00  0.00    -0.266 OA
ATOM      4  O   UNL     1      10.581   4.327   3.898  0.00  0.00    -0.276 OA
ATOM      8  N   UNL     1       9.516   5.936   5.191  0.00  0.00    -0.300 N 
ATOM      9  N   UNL     1      11.789   7.223   7.033  0.00  0.00    -0.310 N 
ATOM     11  C   UNL     1       9.807   5.732   7.663  0.00  0.00    +0.027 C 
ATOM     12  C   UNL     1       9.402   7.941   6.662  0.00  0.00    +0.054 C 
ATOM     13  C   UNL     1       9.058   7.045   7.850  0.00  0.00    +0.018 C 
ATOM     14  C   UNL     1       9.386   5.051   6.350  0.00  0.00    +0.113 C 
ATOM     15  C   UNL     1      11.315   6.009   7.710  0.00  0.00    +0.130 C 
ATOM     16  C   UNL     1       8.926   7.273   5.356  0.00  0.00    +0.117 C 
ATOM     17  C   UNL     1      10.894   8.206   6.590  0.00  0.00    +0.027 A 
ATOM     18  C   UNL     1      11.352   9.363   6.078  0.00  0.00    +0.024 A 
ATOM     19  C   UNL     1      13.186   7.394   6.948  0.00  0.00    +0.274 A 
ATOM     20  C   UNL     1      10.091   5.452   4.016  0.00  0.00    +0.218 C 
ATOM     21  C   UNL     1      13.630   8.680   6.353  0.00  0.00    +0.112 A 
ATOM     22  C   UNL     1      12.763   9.611   5.952  0.00  0.00    +0.031 A 
ENDROOT
BRANCH  21  10
ATOM     10  N   UNL     1      15.000   8.957   6.207  0.00  0.00    -0.211 N 
ATOM     32  H   UNL     1      15.307   9.763   6.771  0.00  0.00    +0.174 HD
BRANCH  10   2
ATOM      2  S   UNL     1      15.632   8.916   4.637  0.00  0.00    +0.072 S 
ATOM      6  O   UNL     1      15.102   7.767   3.928  0.00  0.00    -0.150 OA
ATOM      7  O   UNL     1      15.558  10.238   4.046  0.00  0.00    -0.150 OA
BRANCH   2  25
ATOM      1 CL   UNL     1      21.660   7.745   5.837  0.00  0.00    -0.084 Cl
ATOM     25  C   UNL     1      17.337   8.585   4.977  0.00  0.00    +0.109 A 
ATOM     27  C   UNL     1      18.139   8.078   3.969  0.00  0.00    +0.030 A 
ATOM     28  C   UNL     1      17.834   8.841   6.241  0.00  0.00    +0.030 A 
ATOM     29  C   UNL     1      19.482   7.816   4.237  0.00  0.00    +0.022 A 
ATOM     30  C   UNL     1      19.178   8.579   6.509  0.00  0.00    +0.022 A 
ATOM     31  C   UNL     1      20.003   8.068   5.506  0.00  0.00    +0.041 A 
ENDBRANCH   2  25
ENDBRANCH  10   2
ENDBRANCH  21  10
BRANCH  20  23
ATOM     23  C   UNL     1      10.107   6.391   2.836  0.00  0.00    +0.124 C 
BRANCH  23  24
ATOM     24  C   UNL     1      10.191   5.590   1.554  0.00  0.00    +0.168 C 
BRANCH  24   5
ATOM      5  O   UNL     1      11.491   5.728   0.994  0.00  0.00    -0.382 OA
ATOM     26  C   UNL     1      12.113   4.465   0.799  0.00  0.00    +0.194 C 
ENDBRANCH  24   5
ENDBRANCH  23  24
ENDBRANCH  20  23
TORSDOF 6
ENDMDL
MODEL 5
REMARK VINA RESULT:      -6.3     23.269     26.935
REMARK  Name = 7051289
REMARK  7 active torsions:
REMARK  status: ('A' for Active; 'I' for Inactive)
REMARK    1  A    between atoms: S_2  and  N_10
REMARK    2  A    between atoms: S_2  and  C_25
REMARK    3  A    between atoms: O_5  and  C_24
REMARK    4  A    between atoms: O_5  and  C_26
REMARK    5  A    between atoms: N_10  and  C_21
REMARK    6  A    between atoms: C_20  and  C_23
REMARK    7  A    between atoms: C_23  and  C_24
REMARK                            x       y       z     vdW  Elec       q    Type
REMARK                         _______ _______ _______ _____ _____    ______ ____
ROOT
ATOM      3  O   UNL     1      -4.976 -14.294  16.474  0.00  0.00    -0.266 OA
ATOM      4  O   UNL     1      -9.791 -11.950  16.294  0.00  0.00    -0.276 OA
ATOM      8  N   UNL     1      -8.328 -10.724  17.618  0.00  0.00    -0.300 N 
ATOM      9  N   UNL     1      -5.515 -12.231  17.442  0.00  0.00    -0.310 N 
ATOM     11  C   UNL     1      -7.135 -11.992  19.409  0.00  0.00    +0.027 C 
ATOM     12  C   UNL     1      -6.095  -9.987  18.435  0.00  0.00    +0.054 C 
ATOM     13  C   UNL     1      -6.328 -10.743  19.742  0.00  0.00    +0.018 C 
ATOM     14  C   UNL     1      -8.483 -11.611  18.772  0.00  0.00    +0.113 C 
ATOM     15  C   UNL     1      -6.300 -12.893  18.492  0.00  0.00    +0.130 C 
ATOM     16  C   UNL     1      -7.450  -9.564  17.834  0.00  0.00    +0.117 C 
ATOM     17  C   UNL     1      -5.334 -10.841  17.438  0.00  0.00    +0.027 A 
ATOM     18  C   UNL     1      -4.517 -10.263  16.538  0.00  0.00    +0.024 A 
ATOM     19  C   UNL     1      -4.871 -13.069  16.509  0.00  0.00    +0.274 A 
ATOM     20  C   UNL     1      -9.060 -10.971  16.456  0.00  0.00    +0.218 C 
ATOM     21  C   UNL     1      -4.001 -12.372  15.528  0.00  0.00    +0.112 A 
ATOM     22  C   UNL     1      -3.829 -11.049  15.550  0.00  0.00    +0.031 A 
ENDROOT
BRANCH  21  10
ATOM     10  N   UNL     1      -3.317 -13.104  14.543  0.00  0.00    -0.211 N 
ATOM     32  H   UNL     1      -3.291 -14.115  14.742  0.00  0.00    +0.174 HD
BRANCH  10   2
ATOM      2  S   UNL     1      -1.855 -12.460  13.981  0.00  0.00    +0.072 S 
ATOM      6  O   UNL     1      -1.312 -11.548  14.969  0.00  0.00    -0.150 OA
ATOM      7  O   UNL     1      -1.032 -13.522  13.435  0.00  0.00    -0.150 OA
BRANCH   2  25
ATOM      1 CL   UNL     1      -3.880  -9.007   9.172  0.00  0.00    -0.084 Cl
ATOM     25  C   UNL     1      -2.427 -11.483  12.621  0.00  0.00    +0.109 A 
ATOM     27  C   UNL     1      -3.534 -11.906  11.906  0.00  0.00    +0.030 A 
ATOM     28  C   UNL     1      -1.758 -10.316  12.300  0.00  0.00    +0.030 A 
ATOM     29  C   UNL     1      -3.985 -11.137  10.833  0.00  0.00    +0.022 A 
ATOM     30  C   UNL     1      -2.209  -9.547  11.227  0.00  0.00    +0.022 A 
ATOM     31  C   UNL     1      -3.323  -9.957  10.495  0.00  0.00    +0.041 A 
ENDBRANCH   2  25
ENDBRANCH  10   2
ENDBRANCH  21  10
BRANCH  20  23
ATOM     23  C   UNL     1      -8.920  -9.963  15.343  0.00  0.00    +0.124 C 
BRANCH  23  24
ATOM     24  C   UNL     1     -10.172  -9.117  15.267  0.00  0.00    +0.168 C 
BRANCH  24   5
ATOM      5  O   UNL     1      -9.889  -7.806  15.741  0.00  0.00    -0.382 OA
ATOM     26  C   UNL     1     -10.451  -7.582  17.026  0.00  0.00    +0.194 C 
ENDBRANCH  24   5
ENDBRANCH  23  24
ENDBRANCH  20  23
TORSDOF 6
ENDMDL
MODEL 6
REMARK VINA RESULT:      -6.3      3.547      8.558
REMARK  Name = 7051289
REMARK  7 active torsions:
REMARK  status: ('A' for Active; 'I' for Inactive)
REMARK    1  A    between atoms: S_2  and  N_10
REMARK    2  A    between atoms: S_2  and  C_25
REMARK    3  A    between atoms: O_5  and  C_24
REMARK    4  A    between atoms: O_5  and  C_26
REMARK    5  A    between atoms: N_10  and  C_21
REMARK    6  A    between atoms: C_20  and  C_23
REMARK    7  A    between atoms: C_23  and  C_24
REMARK                            x       y       z     vdW  Elec       q    Type
REMARK                         _______ _______ _______ _____ _____    ______ ____
ROOT
ATOM      3  O   UNL     1      12.485   7.641   3.191  0.00  0.00    -0.266 OA
ATOM      4  O   UNL     1      12.305   6.430  -2.025  0.00  0.00    -0.276 OA
ATOM      8  N   UNL     1      12.986   4.592  -0.777  0.00  0.00    -0.300 N 
ATOM      9  N   UNL     1      12.867   5.517   2.280  0.00  0.00    -0.310 N 
ATOM     11  C   UNL     1      14.884   4.974   0.801  0.00  0.00    +0.027 C 
ATOM     12  C   UNL     1      13.224   3.226   1.290  0.00  0.00    +0.054 C 
ATOM     13  C   UNL     1      14.714   3.556   1.332  0.00  0.00    +0.018 C 
ATOM     14  C   UNL     1      14.361   5.077  -0.641  0.00  0.00    +0.113 C 
ATOM     15  C   UNL     1      14.165   5.946   1.745  0.00  0.00    +0.130 C 
ATOM     16  C   UNL     1      12.723   3.280  -0.167  0.00  0.00    +0.117 C 
ATOM     17  C   UNL     1      12.426   4.194   2.144  0.00  0.00    +0.027 A 
ATOM     18  C   UNL     1      11.289   3.790   2.741  0.00  0.00    +0.024 A 
ATOM     19  C   UNL     1      12.142   6.472   3.022  0.00  0.00    +0.274 A 
ATOM     20  C   UNL     1      12.065   5.330  -1.521  0.00  0.00    +0.218 C 
ATOM     21  C   UNL     1      10.886   5.974   3.637  0.00  0.00    +0.112 A 
ATOM     22  C   UNL     1      10.490   4.706   3.510  0.00  0.00    +0.031 A 
ENDROOT
BRANCH  21  10
ATOM     10  N   UNL     1      10.075   6.839   4.391  0.00  0.00    -0.211 N 
ATOM     32  H   UNL     1      10.117   7.814   4.063  0.00  0.00    +0.174 HD
BRANCH  10   2
ATOM      2  S   UNL     1      10.115   6.661   6.074  0.00  0.00    +0.072 S 
ATOM      6  O   UNL     1       8.974   5.878   6.510  0.00  0.00    -0.150 OA
ATOM      7  O   UNL     1      11.454   6.298   6.495  0.00  0.00    -0.150 OA
BRANCH   2  25
ATOM      1 CL   UNL     1       9.122  12.565   7.892  0.00  0.00    -0.084 Cl
ATOM     25  C   UNL     1       9.834   8.330   6.589  0.00  0.00    +0.109 A 
ATOM     27  C   UNL     1       9.412   9.261   5.656  0.00  0.00    +0.030 A 
ATOM     28  C   UNL     1      10.042   8.672   7.913  0.00  0.00    +0.030 A 
ATOM     29  C   UNL     1       9.191  10.578   6.061  0.00  0.00    +0.022 A 
ATOM     30  C   UNL     1       9.821   9.988   8.318  0.00  0.00    +0.022 A 
ATOM     31  C   UNL     1       9.394  10.941   7.392  0.00  0.00    +0.041 A 
ENDBRANCH   2  25
ENDBRANCH  10   2
ENDBRANCH  21  10
BRANCH  20  23
ATOM     23  C   UNL     1      10.696   4.723  -1.695  0.00  0.00    +0.124 C 
BRANCH  23  24
ATOM     24  C   UNL     1      10.526   4.260  -3.126  0.00  0.00    +0.168 C 
BRANCH  24   5
ATOM      5  O   UNL     1       9.287   3.576  -3.259  0.00  0.00    -0.382 OA
ATOM     26  C   UNL     1       9.440   2.352  -3.965  0.00  0.00    +0.194 C 
ENDBRANCH  24   5
ENDBRANCH  23  24
ENDBRANCH  20  23
TORSDOF 6
ENDMDL
MODEL 7
REMARK VINA RESULT:      -6.2     23.039     25.068
REMARK  Name = 7051289
REMARK  7 active torsions:
REMARK  status: ('A' for Active; 'I' for Inactive)
REMARK    1  A    between atoms: S_2  and  N_10
REMARK    2  A    between atoms: S_2  and  C_25
REMARK    3  A    between atoms: O_5  and  C_24
REMARK    4  A    between atoms: O_5  and  C_26
REMARK    5  A    between atoms: N_10  and  C_21
REMARK    6  A    between atoms: C_20  and  C_23
REMARK    7  A    between atoms: C_23  and  C_24
REMARK                            x       y       z     vdW  Elec       q    Type
REMARK                         _______ _______ _______ _____ _____    ______ ____
ROOT
ATOM      3  O   UNL     1      -4.710 -12.833   9.976  0.00  0.00    -0.266 OA
ATOM      4  O   UNL     1      -6.099 -12.413  15.134  0.00  0.00    -0.276 OA
ATOM      8  N   UNL     1      -3.791 -12.298  14.892  0.00  0.00    -0.300 N 
ATOM      9  N   UNL     1      -3.234 -12.418  11.747  0.00  0.00    -0.310 N 
ATOM     11  C   UNL     1      -2.729 -14.135  13.575  0.00  0.00    +0.027 C 
ATOM     12  C   UNL     1      -1.664 -11.919  13.655  0.00  0.00    +0.054 C 
ATOM     13  C   UNL     1      -1.387 -13.421  13.681  0.00  0.00    +0.018 C 
ATOM     14  C   UNL     1      -3.641 -13.747  14.751  0.00  0.00    +0.113 C 
ATOM     15  C   UNL     1      -3.363 -13.802  12.220  0.00  0.00    +0.130 C 
ATOM     16  C   UNL     1      -2.535 -11.534  14.868  0.00  0.00    +0.117 C 
ATOM     17  C   UNL     1      -2.363 -11.514  12.371  0.00  0.00    +0.027 A 
ATOM     18  C   UNL     1      -2.170 -10.287  11.854  0.00  0.00    +0.024 A 
ATOM     19  C   UNL     1      -3.947 -12.079  10.578  0.00  0.00    +0.274 A 
ATOM     20  C   UNL     1      -5.057 -11.754  15.118  0.00  0.00    +0.218 C 
ATOM     21  C   UNL     1      -3.710 -10.705  10.069  0.00  0.00    +0.112 A 
ATOM     22  C   UNL     1      -2.864  -9.865  10.668  0.00  0.00    +0.031 A 
ENDROOT
BRANCH  21  10
ATOM     10  N   UNL     1      -4.373 -10.253   8.916  0.00  0.00    -0.211 N 
ATOM     32  H   UNL     1      -3.736  -9.823   8.230  0.00  0.00    +0.174 HD
BRANCH  10   2
ATOM      2  S   UNL     1      -5.829  -9.418   9.142  0.00  0.00    +0.072 S 
ATOM      6  O   UNL     1      -6.744 -10.233   9.918  0.00  0.00    -0.150 OA
ATOM      7  O   UNL     1      -5.552  -8.051   9.537  0.00  0.00    -0.150 OA
BRANCH   2  25
ATOM      1 CL   UNL     1      -8.001  -9.260   3.276  0.00  0.00    -0.084 Cl
ATOM     25  C   UNL     1      -6.444  -9.373   7.483  0.00  0.00    +0.109 A 
ATOM     27  C   UNL     1      -5.915 -10.242   6.544  0.00  0.00    +0.030 A 
ATOM     28  C   UNL     1      -7.440  -8.471   7.157  0.00  0.00    +0.030 A 
ATOM     29  C   UNL     1      -6.399 -10.206   5.236  0.00  0.00    +0.022 A 
ATOM     30  C   UNL     1      -7.924  -8.435   5.849  0.00  0.00    +0.022 A 
ATOM     31  C   UNL     1      -7.404  -9.304   4.889  0.00  0.00    +0.041 A 
ENDBRANCH   2  25
ENDBRANCH  10   2
ENDBRANCH  21  10
BRANCH  20  23
ATOM     23  C   UNL     1      -5.121 -10.266  15.346  0.00  0.00    +0.124 C 
BRANCH  23  24
ATOM     24  C   UNL     1      -5.666  -9.989  16.730  0.00  0.00    +0.168 C 
BRANCH  24   5
ATOM      5  O   UNL     1      -4.776 -10.518  17.705  0.00  0.00    -0.382 OA
ATOM     26  C   UNL     1      -5.474 -10.969  18.858  0.00  0.00    +0.194 C 
ENDBRANCH  24   5
ENDBRANCH  23  24
ENDBRANCH  20  23
TORSDOF 6
ENDMDL
MODEL 8
REMARK VINA RESULT:      -6.1      2.559      3.821
REMARK  Name = 7051289
REMARK  7 active torsions:
REMARK  status: ('A' for Active; 'I' for Inactive)
REMARK    1  A    between atoms: S_2  and  N_10
REMARK    2  A    between atoms: S_2  and  C_25
REMARK    3  A    between atoms: O_5  and  C_24
REMARK    4  A    between atoms: O_5  and  C_26
REMARK    5  A    between atoms: N_10  and  C_21
REMARK    6  A    between atoms: C_20  and  C_23
REMARK    7  A    between atoms: C_23  and  C_24
REMARK                            x       y       z     vdW  Elec       q    Type
REMARK                         _______ _______ _______ _____ _____    ______ ____
ROOT
ATOM      3  O   UNL     1      10.081   7.213   1.897  0.00  0.00    -0.266 OA
ATOM      4  O   UNL     1      12.739   9.431   5.987  0.00  0.00    -0.276 OA
ATOM      8  N   UNL     1      10.992   8.111   6.762  0.00  0.00    -0.300 N 
ATOM      9  N   UNL     1       9.672   6.794   4.166  0.00  0.00    -0.310 N 
ATOM     11  C   UNL     1       8.745   8.562   5.767  0.00  0.00    +0.027 C 
ATOM     12  C   UNL     1       9.277   6.313   6.608  0.00  0.00    +0.054 C 
ATOM     13  C   UNL     1       8.179   7.372   6.532  0.00  0.00    +0.018 C 
ATOM     14  C   UNL     1       9.978   9.132   6.490  0.00  0.00    +0.113 C 
ATOM     15  C   UNL     1       9.070   8.122   4.334  0.00  0.00    +0.130 C 
ATOM     16  C   UNL     1      10.486   6.877   7.382  0.00  0.00    +0.117 C 
ATOM     17  C   UNL     1       9.712   5.874   5.223  0.00  0.00    +0.027 A 
ATOM     18  C   UNL     1      10.161   4.622   5.019  0.00  0.00    +0.024 A 
ATOM     19  C   UNL     1      10.108   6.457   2.868  0.00  0.00    +0.274 A 
ATOM     20  C   UNL     1      12.335   8.389   6.508  0.00  0.00    +0.218 C 
ATOM     21  C   UNL     1      10.613   5.069   2.711  0.00  0.00    +0.112 A 
ATOM     22  C   UNL     1      10.628   4.203   3.725  0.00  0.00    +0.031 A 
ENDROOT
BRANCH  21  10
ATOM     10  N   UNL     1      11.083   4.624   1.464  0.00  0.00    -0.211 N 
ATOM     32  H   UNL     1      10.461   3.929   1.027  0.00  0.00    +0.174 HD
BRANCH  10   2
ATOM      2  S   UNL     1      12.733   4.262   1.348  0.00  0.00    +0.072 S 
ATOM      6  O   UNL     1      13.515   5.395   1.804  0.00  0.00    -0.150 OA
ATOM      7  O   UNL     1      12.982   2.938   1.885  0.00  0.00    -0.150 OA
BRANCH   2  25
ATOM      1 CL   UNL     1      13.412   3.912  -4.863  0.00  0.00    -0.084 Cl
ATOM     25  C   UNL     1      12.925   4.163  -0.409  0.00  0.00    +0.109 A 
ATOM     27  C   UNL     1      12.214   3.207  -1.112  0.00  0.00    +0.030 A 
ATOM     28  C   UNL     1      13.782   5.044  -1.044  0.00  0.00    +0.030 A 
ATOM     29  C   UNL     1      12.366   3.129  -2.497  0.00  0.00    +0.022 A 
ATOM     30  C   UNL     1      13.934   4.966  -2.429  0.00  0.00    +0.022 A 
ATOM     31  C   UNL     1      13.225   4.009  -3.155  0.00  0.00    +0.041 A 
ENDBRANCH   2  25
ENDBRANCH  10   2
ENDBRANCH  21  10
BRANCH  20  23
ATOM     23  C   UNL     1      13.330   7.327   6.900  0.00  0.00    +0.124 C 
BRANCH  23  24
ATOM     24  C   UNL     1      14.474   7.315   5.909  0.00  0.00    +0.168 C 
BRANCH  24   5
ATOM      5  O   UNL     1      15.633   7.873   6.516  0.00  0.00    -0.382 OA
ATOM     26  C   UNL     1      16.349   8.702   5.610  0.00  0.00    +0.194 C 
ENDBRANCH  24   5
ENDBRANCH  23  24
ENDBRANCH  20  23
TORSDOF 6
ENDMDL
MODEL 9
REMARK VINA RESULT:      -6.1     23.491     26.998
REMARK  Name = 7051289
REMARK  7 active torsions:
REMARK  status: ('A' for Active; 'I' for Inactive)
REMARK    1  A    between atoms: S_2  and  N_10
REMARK    2  A    between atoms: S_2  and  C_25
REMARK    3  A    between atoms: O_5  and  C_24
REMARK    4  A    between atoms: O_5  and  C_26
REMARK    5  A    between atoms: N_10  and  C_21
REMARK    6  A    between atoms: C_20  and  C_23
REMARK    7  A    between atoms: C_23  and  C_24
REMARK                            x       y       z     vdW  Elec       q    Type
REMARK                         _______ _______ _______ _____ _____    ______ ____
ROOT
ATOM      3  O   UNL     1      -7.757 -13.245  14.094  0.00  0.00    -0.266 OA
ATOM      4  O   UNL     1     -10.480 -10.334  17.676  0.00  0.00    -0.276 OA
ATOM      8  N   UNL     1      -8.260 -10.565  18.321  0.00  0.00    -0.300 N 
ATOM      9  N   UNL     1      -6.830 -12.192  15.971  0.00  0.00    -0.310 N 
ATOM     11  C   UNL     1      -7.364 -12.896  18.373  0.00  0.00    +0.027 C 
ATOM     12  C   UNL     1      -5.838 -11.011  17.964  0.00  0.00    +0.054 C 
ATOM     13  C   UNL     1      -5.980 -12.345  18.694  0.00  0.00    +0.018 C 
ATOM     14  C   UNL     1      -8.456 -11.919  18.842  0.00  0.00    +0.113 C 
ATOM     15  C   UNL     1      -7.450 -13.176  16.868  0.00  0.00    +0.130 C 
ATOM     16  C   UNL     1      -6.902 -10.023  18.481  0.00  0.00    +0.117 C 
ATOM     17  C   UNL     1      -5.986 -11.189  16.465  0.00  0.00    +0.027 A 
ATOM     18  C   UNL     1      -5.334 -10.370  15.619  0.00  0.00    +0.024 A 
ATOM     19  C   UNL     1      -7.043 -12.374  14.589  0.00  0.00    +0.274 A 
ATOM     20  C   UNL     1      -9.349  -9.862  17.802  0.00  0.00    +0.218 C 
ATOM     21  C   UNL     1      -6.316 -11.426  13.708  0.00  0.00    +0.112 A 
ATOM     22  C   UNL     1      -5.503 -10.487  14.196  0.00  0.00    +0.031 A 
ENDROOT
BRANCH  21  10
ATOM     10  N   UNL     1      -6.459 -11.504  12.312  0.00  0.00    -0.211 N 
ATOM     32  H   UNL     1      -7.440 -11.609  12.016  0.00  0.00    +0.174 HD
BRANCH  10   2
ATOM      2  S   UNL     1      -5.363 -12.490  11.479  0.00  0.00    +0.072 S 
ATOM      6  O   UNL     1      -5.002 -13.625  12.305  0.00  0.00    -0.150 OA
ATOM      7  O   UNL     1      -5.825 -12.692  10.119  0.00  0.00    -0.150 OA
BRANCH   2  25
ATOM      1 CL   UNL     1      -0.377  -8.719  11.213  0.00  0.00    -0.084 Cl
ATOM     25  C   UNL     1      -3.953 -11.423  11.404  0.00  0.00    +0.109 A 
ATOM     27  C   UNL     1      -3.985 -10.320  10.569  0.00  0.00    +0.030 A 
ATOM     28  C   UNL     1      -2.846 -11.713  12.181  0.00  0.00    +0.030 A 
ATOM     29  C   UNL     1      -2.873  -9.480  10.509  0.00  0.00    +0.022 A 
ATOM     30  C   UNL     1      -1.734 -10.873  12.122  0.00  0.00    +0.022 A 
ATOM     31  C   UNL     1      -1.748  -9.755  11.286  0.00  0.00    +0.041 A 
ENDBRANCH   2  25
ENDBRANCH  10   2
ENDBRANCH  21  10
BRANCH  20  23
ATOM     23  C   UNL     1      -9.090  -8.441  17.371  0.00  0.00    +0.124 C 
BRANCH  23  24
ATOM     24  C   UNL     1     -10.409  -7.739  17.128  0.00  0.00    +0.168 C 
BRANCH  24   5
ATOM      5  O   UNL     1     -10.369  -7.076  15.870  0.00  0.00    -0.382 OA
ATOM     26  C   UNL     1     -11.222  -5.940  15.852  0.00  0.00    +0.194 C 
ENDBRANCH  24   5
ENDBRANCH  23  24
ENDBRANCH  20  23
TORSDOF 6
ENDMDL
MODEL 10
REMARK VINA RESULT:      -6.0     13.259     15.165
REMARK  Name = 7051289
REMARK  7 active torsions:
REMARK  status: ('A' for Active; 'I' for Inactive)
REMARK    1  A    between atoms: S_2  and  N_10
REMARK    2  A    between atoms: S_2  and  C_25
REMARK    3  A    between atoms: O_5  and  C_24
REMARK    4  A    between atoms: O_5  and  C_26
REMARK    5  A    between atoms: N_10  and  C_21
REMARK    6  A    between atoms: C_20  and  C_23
REMARK    7  A    between atoms: C_23  and  C_24
REMARK                            x       y       z     vdW  Elec       q    Type
REMARK                         _______ _______ _______ _____ _____    ______ ____
ROOT
ATOM      3  O   UNL     1      -4.107  10.488   1.438  0.00  0.00    -0.266 OA
ATOM      4  O   UNL     1      -3.958  12.883   6.229  0.00  0.00    -0.276 OA
ATOM      8  N   UNL     1      -2.912  10.811   6.314  0.00  0.00    -0.300 N 
ATOM      9  N   UNL     1      -3.000   9.664   3.331  0.00  0.00    -0.310 N 
ATOM     11  C   UNL     1      -4.226   8.877   5.435  0.00  0.00    +0.027 C 
ATOM     12  C   UNL     1      -1.769   8.815   5.361  0.00  0.00    +0.054 C 
ATOM     13  C   UNL     1      -3.015   7.975   5.636  0.00  0.00    +0.018 C 
ATOM     14  C   UNL     1      -4.175  10.074   6.399  0.00  0.00    +0.113 C 
ATOM     15  C   UNL     1      -4.278   9.321   3.968  0.00  0.00    +0.130 C 
ATOM     16  C   UNL     1      -1.699   9.981   6.368  0.00  0.00    +0.117 C 
ATOM     17  C   UNL     1      -1.777   9.359   3.945  0.00  0.00    +0.027 A 
ATOM     18  C   UNL     1      -0.617   9.574   3.296  0.00  0.00    +0.024 A 
ATOM     19  C   UNL     1      -3.066  10.215   2.035  0.00  0.00    +0.274 A 
ATOM     20  C   UNL     1      -2.929  12.205   6.275  0.00  0.00    +0.218 C 
ATOM     21  C   UNL     1      -1.755  10.451   1.381  0.00  0.00    +0.112 A 
ATOM     22  C   UNL     1      -0.602  10.139   1.974  0.00  0.00    +0.031 A 
ENDROOT
BRANCH  21  10
ATOM     10  N   UNL     1      -1.697  11.007   0.091  0.00  0.00    -0.211 N 
ATOM     32  H   UNL     1      -2.457  11.678  -0.090  0.00  0.00    +0.174 HD
BRANCH  10   2
ATOM      2  S   UNL     1      -1.373   9.949  -1.190  0.00  0.00    +0.072 S 
ATOM      6  O   UNL     1      -0.104  10.295  -1.801  0.00  0.00    -0.150 OA
ATOM      7  O   UNL     1      -1.637   8.585  -0.776  0.00  0.00    -0.150 OA
BRANCH   2  25
ATOM      1 CL   UNL     1      -5.879  11.580  -5.214  0.00  0.00    -0.084 Cl
ATOM     25  C   UNL     1      -2.648  10.410  -2.328  0.00  0.00    +0.109 A 
ATOM     27  C   UNL     1      -2.301  11.052  -3.504  0.00  0.00    +0.030 A 
ATOM     28  C   UNL     1      -3.964  10.119  -2.020  0.00  0.00    +0.030 A 
ATOM     29  C   UNL     1      -3.306  11.415  -4.401  0.00  0.00    +0.022 A 
ATOM     30  C   UNL     1      -4.969  10.483  -2.917  0.00  0.00    +0.022 A 
ATOM     31  C   UNL     1      -4.639  11.130  -4.108  0.00  0.00    +0.041 A 
ENDBRANCH   2  25
ENDBRANCH  10   2
ENDBRANCH  21  10
BRANCH  20  23
ATOM     23  C   UNL     1      -1.590  12.897   6.281  0.00  0.00    +0.124 C 
BRANCH  23  24
ATOM     24  C   UNL     1      -1.406  13.631   7.592  0.00  0.00    +0.168 C 
BRANCH  24   5
ATOM      5  O   UNL     1      -1.005  12.710   8.599  0.00  0.00    -0.382 OA
ATOM     26  C   UNL     1       0.375  12.390   8.493  0.00  0.00    +0.194 C 
ENDBRANCH  24   5
ENDBRANCH  23  24
ENDBRANCH  20  23
TORSDOF 6
ENDMDL
