REMARK  Name = 11885115
REMARK  4 active torsions:
REMARK  status: ('A' for Active; 'I' for Inactive)
REMARK    1  A    between atoms: O_3  and  C_29
REMARK    2  A    between atoms: O_3  and  C_30
REMARK    3  A    between atoms: C_15  and  C_18
REMARK    4  A    between atoms: C_16  and  C_19
REMARK                            x       y       z     vdW  Elec       q    Type
REMARK                         _______ _______ _______ _____ _____    ______ ____
ROOT
ATOM      1  O   UNL     1      -1.164  -1.999   1.433  0.00  0.00    -0.267 OA
ATOM      2  O   UNL     1       2.924   0.870   2.487  0.00  0.00    -0.270 OA
ATOM      4  N   UNL     1       3.443  -0.352   0.561  0.00  0.00    -0.297 N 
ATOM      5  N   UNL     1       0.715  -1.862   0.059  0.00  0.00    -0.311 N 
ATOM      6  C   UNL     1       3.000  -2.791   0.753  0.00  0.00    +0.027 C 
ATOM      7  C   UNL     1       2.742  -1.669  -1.423  0.00  0.00    +0.054 C 
ATOM      8  C   UNL     1       3.235  -2.946  -0.746  0.00  0.00    +0.018 C 
ATOM      9  C   UNL     1       3.773  -1.575   1.294  0.00  0.00    +0.113 C 
ATOM     10  C   UNL     1       1.491  -2.676   1.005  0.00  0.00    +0.130 C 
ATOM     11  C   UNL     1       3.550  -0.462  -0.903  0.00  0.00    +0.117 C 
ATOM     12  C   UNL     1       1.266  -1.443  -1.155  0.00  0.00    +0.027 A 
ATOM     13  C   UNL     1       0.504  -0.807  -2.059  0.00  0.00    +0.022 A 
ATOM     14  C   UNL     1      -0.632  -1.618   0.389  0.00  0.00    +0.259 A 
ATOM     15  C   UNL     1       3.014   0.776   1.264  0.00  0.00    +0.247 C 
ATOM     16  C   UNL     1      -1.448  -0.861  -0.624  0.00  0.00    +0.047 A 
ATOM     17  C   UNL     1      -0.872  -0.509  -1.783  0.00  0.00    +0.015 A 
ENDROOT
BRANCH  15  18
ATOM     18  C   UNL     1       2.607   1.955   0.493  0.00  0.00    +0.037 A 
ATOM     20  C   UNL     1       1.280   2.100   0.097  0.00  0.00    +0.013 A 
ATOM     21  C   UNL     1       3.550   2.924   0.160  0.00  0.00    +0.013 A 
ATOM     24  C   UNL     1       0.892   3.221  -0.636  0.00  0.00    +0.001 A 
ATOM     25  C   UNL     1       3.163   4.046  -0.574  0.00  0.00    +0.001 A 
ATOM     28  C   UNL     1       1.834   4.194  -0.972  0.00  0.00    +0.000 A 
ENDBRANCH  15  18
BRANCH  16  19
ATOM     19  C   UNL     1      -2.848  -0.493  -0.353  0.00  0.00    -0.012 A 
ATOM     22  C   UNL     1      -3.881  -1.355  -0.723  0.00  0.00    +0.012 A 
ATOM     23  C   UNL     1      -3.143   0.719   0.273  0.00  0.00    +0.012 A 
ATOM     26  C   UNL     1      -5.207  -1.006  -0.467  0.00  0.00    +0.046 A 
ATOM     27  C   UNL     1      -4.468   1.068   0.530  0.00  0.00    +0.046 A 
ATOM     29  C   UNL     1      -5.501   0.206   0.160  0.00  0.00    +0.120 A 
BRANCH  29   3
ATOM      3  O   UNL     1      -6.794   0.546   0.409  0.00  0.00    -0.495 OA
ATOM     30  C   UNL     1      -7.024   1.799   1.052  0.00  0.00    +0.277 C 
ENDBRANCH  29   3
ENDBRANCH  16  19
TORSDOF 3
