MODEL 1
REMARK VINA RESULT:      -6.5      0.000      0.000
REMARK  Name = 7049388
REMARK  9 active torsions:
REMARK  status: ('A' for Active; 'I' for Inactive)
REMARK    1  A    between atoms: S_1  and  C_24
REMARK    2  A    between atoms: S_1  and  C_28
REMARK    3  A    between atoms: N_7  and  C_11
REMARK    4  A    between atoms: N_8  and  C_15
REMARK    5  A    between atoms: N_9  and  C_25
REMARK    6  A    between atoms: N_9  and  C_26
REMARK    7  A    between atoms: C_12  and  C_21
REMARK    8  A    between atoms: C_22  and  C_24
REMARK    9  A    between atoms: C_25  and  C_27
REMARK                            x       y       z     vdW  Elec       q    Type
REMARK                         _______ _______ _______ _____ _____    ______ ____
ROOT
ATOM      3  O   UNL     1      15.443   7.171  18.611  0.00  0.00    -0.275 OA
ATOM      6  N   UNL     1      13.869   7.374  20.295  0.00  0.00    -0.287 N 
ATOM     11  C   UNL     1      12.064   7.867  21.760  0.00  0.00    +0.094 C 
ATOM     12  C   UNL     1      12.819   7.948  19.466  0.00  0.00    +0.164 C 
ATOM     13  C   UNL     1      11.553   7.871  20.316  0.00  0.00    +0.056 C 
ATOM     14  C   UNL     1      13.400   7.139  21.662  0.00  0.00    +0.131 C 
ATOM     22  C   UNL     1      15.081   6.955  19.770  0.00  0.00    +0.226 C 
ENDROOT
BRANCH  11   7
ATOM      4  O   UNL     1      10.012   9.511  22.923  0.00  0.00    -0.253 OA
ATOM      7  N   UNL     1      12.219   9.204  22.276  0.00  0.00    -0.295 N 
ATOM      8  N   UNL     1      11.581  11.190  23.250  0.00  0.00    -0.297 N 
ATOM     23  C   UNL     1      11.163   9.932  22.827  0.00  0.00    +0.300 C 
ATOM     29  H   UNL     1      13.122   9.661  22.186  0.00  0.00    +0.151 HD
ATOM     30  H   UNL     1      12.539  11.463  23.055  0.00  0.00    +0.151 HD
BRANCH   8  15
ATOM     15  C   UNL     1      10.692  12.155  23.859  0.00  0.00    +0.074 C 
ATOM     16  C   UNL     1      10.781  13.510  23.149  0.00  0.00    +0.022 C 
ATOM     17  C   UNL     1      10.975  12.294  25.359  0.00  0.00    +0.022 C 
ATOM     18  C   UNL     1      12.097  14.235  23.436  0.00  0.00    +0.002 C 
ATOM     19  C   UNL     1      12.289  13.021  25.642  0.00  0.00    +0.002 C 
ATOM     20  C   UNL     1      12.350  14.371  24.934  0.00  0.00    +0.000 C 
ENDBRANCH   8  15
ENDBRANCH  11   7
BRANCH  12  21
ATOM      2  O   UNL     1      13.445  10.144  20.068  0.00  0.00    -0.274 OA
ATOM      9  N   UNL     1      13.195   9.720  17.795  0.00  0.00    -0.294 N 
ATOM     21  C   UNL     1      13.181   9.367  19.146  0.00  0.00    +0.236 C 
ATOM     26  C   UNL     1      13.530  11.065  17.345  0.00  0.00    +0.132 C 
BRANCH   9  25
ATOM     25  C   UNL     1      12.876   8.767  16.736  0.00  0.00    +0.202 C 
BRANCH  25  27
ATOM      5  O   UNL     1      10.538   8.162  16.911  0.00  0.00    -0.274 OA
ATOM     10  N   UNL     1      11.157   9.777  15.396  0.00  0.00    -0.328 N 
ATOM     27  C   UNL     1      11.407   8.859  16.393  0.00  0.00    +0.228 C 
ATOM     31  H   UNL     1      10.216   9.934  15.055  0.00  0.00    +0.145 HD
ATOM     32  H   UNL     1      11.895  10.332  14.973  0.00  0.00    +0.145 HD
ENDBRANCH  25  27
ENDBRANCH   9  25
ENDBRANCH  12  21
BRANCH  22  24
ATOM     24  C   UNL     1      15.979   6.204  20.720  0.00  0.00    +0.164 C 
BRANCH  24   1
ATOM      1  S   UNL     1      17.600   6.981  20.670  0.00  0.00    -0.155 S 
ATOM     28  C   UNL     1      17.167   8.578  21.406  0.00  0.00    +0.085 C 
ENDBRANCH  24   1
ENDBRANCH  22  24
TORSDOF 7
ENDMDL
MODEL 2
REMARK VINA RESULT:      -6.0     14.045     18.813
REMARK  Name = 7049388
REMARK  9 active torsions:
REMARK  status: ('A' for Active; 'I' for Inactive)
REMARK    1  A    between atoms: S_1  and  C_24
REMARK    2  A    between atoms: S_1  and  C_28
REMARK    3  A    between atoms: N_7  and  C_11
REMARK    4  A    between atoms: N_8  and  C_15
REMARK    5  A    between atoms: N_9  and  C_25
REMARK    6  A    between atoms: N_9  and  C_26
REMARK    7  A    between atoms: C_12  and  C_21
REMARK    8  A    between atoms: C_22  and  C_24
REMARK    9  A    between atoms: C_25  and  C_27
REMARK                            x       y       z     vdW  Elec       q    Type
REMARK                         _______ _______ _______ _____ _____    ______ ____
ROOT
ATOM      3  O   UNL     1      10.122   9.859   6.192  0.00  0.00    -0.275 OA
ATOM      6  N   UNL     1       9.896   8.312   4.486  0.00  0.00    -0.287 N 
ATOM     11  C   UNL     1       9.819   6.442   3.022  0.00  0.00    +0.094 C 
ATOM     12  C   UNL     1       9.907   7.130   5.336  0.00  0.00    +0.164 C 
ATOM     13  C   UNL     1       9.445   5.987   4.436  0.00  0.00    +0.056 C 
ATOM     14  C   UNL     1       9.666   7.958   3.084  0.00  0.00    +0.131 C 
ATOM     22  C   UNL     1       9.925   9.597   5.004  0.00  0.00    +0.226 C 
ENDROOT
BRANCH  11   7
ATOM      4  O   UNL     1      10.673   3.862   2.082  0.00  0.00    -0.253 OA
ATOM      7  N   UNL     1      11.162   6.052   2.672  0.00  0.00    -0.295 N 
ATOM      8  N   UNL     1      12.849   4.660   1.954  0.00  0.00    -0.297 N 
ATOM     23  C   UNL     1      11.488   4.773   2.222  0.00  0.00    +0.300 C 
ATOM     29  H   UNL     1      11.915   6.719   2.811  0.00  0.00    +0.151 HD
ATOM     30  H   UNL     1      13.443   5.452   2.174  0.00  0.00    +0.151 HD
BRANCH   8  15
ATOM     15  C   UNL     1      13.463   3.442   1.473  0.00  0.00    +0.074 C 
ATOM     16  C   UNL     1      14.989   3.513   1.587  0.00  0.00    +0.022 C 
ATOM     17  C   UNL     1      13.026   3.135   0.037  0.00  0.00    +0.022 C 
ATOM     18  C   UNL     1      15.608   4.469   0.567  0.00  0.00    +0.002 C 
ATOM     19  C   UNL     1      13.648   4.090  -0.981  0.00  0.00    +0.002 C 
ATOM     20  C   UNL     1      15.168   4.136  -0.856  0.00  0.00    +0.000 C 
ENDBRANCH   8  15
ENDBRANCH  11   7
BRANCH  12  21
ATOM      2  O   UNL     1      12.250   7.048   5.055  0.00  0.00    -0.274 OA
ATOM      9  N   UNL     1      11.440   6.551   7.177  0.00  0.00    -0.294 N 
ATOM     21  C   UNL     1      11.303   6.908   5.834  0.00  0.00    +0.236 C 
ATOM     26  C   UNL     1      12.739   6.306   7.789  0.00  0.00    +0.132 C 
BRANCH   9  25
ATOM     25  C   UNL     1      10.291   6.397   8.065  0.00  0.00    +0.202 C 
BRANCH  25  27
ATOM      5  O   UNL     1      10.310   4.676   9.768  0.00  0.00    -0.274 OA
ATOM     10  N   UNL     1      10.132   4.054   7.562  0.00  0.00    -0.328 N 
ATOM     27  C   UNL     1      10.231   4.978   8.580  0.00  0.00    +0.228 C 
ATOM     31  H   UNL     1      10.097   3.060   7.761  0.00  0.00    +0.145 HD
ATOM     32  H   UNL     1      10.083   4.327   6.585  0.00  0.00    +0.145 HD
ENDBRANCH  25  27
ENDBRANCH   9  25
ENDBRANCH  12  21
BRANCH  22  24
ATOM     24  C   UNL     1       9.709  10.707   4.006  0.00  0.00    +0.164 C 
BRANCH  24   1
ATOM      1  S   UNL     1       8.281  11.657   4.546  0.00  0.00    -0.155 S 
ATOM     28  C   UNL     1       6.972  10.579   3.911  0.00  0.00    +0.085 C 
ENDBRANCH  24   1
ENDBRANCH  22  24
TORSDOF 7
ENDMDL
MODEL 3
REMARK VINA RESULT:      -5.9     26.971     28.974
REMARK  Name = 7049388
REMARK  9 active torsions:
REMARK  status: ('A' for Active; 'I' for Inactive)
REMARK    1  A    between atoms: S_1  and  C_24
REMARK    2  A    between atoms: S_1  and  C_28
REMARK    3  A    between atoms: N_7  and  C_11
REMARK    4  A    between atoms: N_8  and  C_15
REMARK    5  A    between atoms: N_9  and  C_25
REMARK    6  A    between atoms: N_9  and  C_26
REMARK    7  A    between atoms: C_12  and  C_21
REMARK    8  A    between atoms: C_22  and  C_24
REMARK    9  A    between atoms: C_25  and  C_27
REMARK                            x       y       z     vdW  Elec       q    Type
REMARK                         _______ _______ _______ _____ _____    ______ ____
ROOT
ATOM      3  O   UNL     1      -5.264 -14.248  16.747  0.00  0.00    -0.275 OA
ATOM      6  N   UNL     1      -3.923 -12.980  15.351  0.00  0.00    -0.287 N 
ATOM     11  C   UNL     1      -2.721 -11.340  14.121  0.00  0.00    +0.094 C 
ATOM     12  C   UNL     1      -3.959 -11.765  16.152  0.00  0.00    +0.164 C 
ATOM     13  C   UNL     1      -2.863 -10.873  15.573  0.00  0.00    +0.056 C 
ATOM     14  C   UNL     1      -3.038 -12.830  14.195  0.00  0.00    +0.131 C 
ATOM     22  C   UNL     1      -4.523 -14.159  15.766  0.00  0.00    +0.226 C 
ENDROOT
BRANCH  11   7
ATOM      4  O   UNL     1      -2.187 -10.480  11.430  0.00  0.00    -0.253 OA
ATOM      7  N   UNL     1      -3.626 -10.642  13.243  0.00  0.00    -0.295 N 
ATOM      8  N   UNL     1      -4.334  -9.606  11.313  0.00  0.00    -0.297 N 
ATOM     23  C   UNL     1      -3.282 -10.262  11.946  0.00  0.00    +0.300 C 
ATOM     29  H   UNL     1      -4.536 -10.364  13.600  0.00  0.00    +0.151 HD
ATOM     30  H   UNL     1      -5.169  -9.414  11.856  0.00  0.00    +0.151 HD
BRANCH   8  15
ATOM     15  C   UNL     1      -4.253  -9.102   9.960  0.00  0.00    +0.074 C 
ATOM     16  C   UNL     1      -5.328  -8.040   9.703  0.00  0.00    +0.022 C 
ATOM     17  C   UNL     1      -4.344 -10.243   8.941  0.00  0.00    +0.022 C 
ATOM     18  C   UNL     1      -6.732  -8.639   9.613  0.00  0.00    +0.002 C 
ATOM     19  C   UNL     1      -5.749 -10.837   8.852  0.00  0.00    +0.002 C 
ATOM     20  C   UNL     1      -6.800  -9.764   8.585  0.00  0.00    +0.000 C 
ENDBRANCH   8  15
ENDBRANCH  11   7
BRANCH  12  21
ATOM      2  O   UNL     1      -5.853 -11.114  14.902  0.00  0.00    -0.274 OA
ATOM      9  N   UNL     1      -5.881 -10.607  17.172  0.00  0.00    -0.294 N 
ATOM     21  C   UNL     1      -5.312 -11.136  16.011  0.00  0.00    +0.236 C 
ATOM     26  C   UNL     1      -7.190  -9.968  17.176  0.00  0.00    +0.132 C 
BRANCH   9  25
ATOM     25  C   UNL     1      -5.204 -10.656  18.465  0.00  0.00    +0.202 C 
BRANCH  25  27
ATOM      5  O   UNL     1      -6.431 -11.007  20.523  0.00  0.00    -0.274 OA
ATOM     10  N   UNL     1      -6.262 -12.739  19.021  0.00  0.00    -0.328 N 
ATOM     27  C   UNL     1      -6.037 -11.448  19.446  0.00  0.00    +0.228 C 
ATOM     31  H   UNL     1      -6.795 -13.389  19.588  0.00  0.00    +0.145 HD
ATOM     32  H   UNL     1      -5.914 -13.086  18.133  0.00  0.00    +0.145 HD
ENDBRANCH  25  27
ENDBRANCH   9  25
ENDBRANCH  12  21
BRANCH  22  24
ATOM     24  C   UNL     1      -4.228 -15.373  14.922  0.00  0.00    +0.164 C 
BRANCH  24   1
ATOM      1  S   UNL     1      -3.464 -16.605  15.985  0.00  0.00    -0.155 S 
ATOM     28  C   UNL     1      -1.829 -16.669  15.209  0.00  0.00    +0.085 C 
ENDBRANCH  24   1
ENDBRANCH  22  24
TORSDOF 7
ENDMDL
MODEL 4
REMARK VINA RESULT:      -5.8     27.174     29.567
REMARK  Name = 7049388
REMARK  9 active torsions:
REMARK  status: ('A' for Active; 'I' for Inactive)
REMARK    1  A    between atoms: S_1  and  C_24
REMARK    2  A    between atoms: S_1  and  C_28
REMARK    3  A    between atoms: N_7  and  C_11
REMARK    4  A    between atoms: N_8  and  C_15
REMARK    5  A    between atoms: N_9  and  C_25
REMARK    6  A    between atoms: N_9  and  C_26
REMARK    7  A    between atoms: C_12  and  C_21
REMARK    8  A    between atoms: C_22  and  C_24
REMARK    9  A    between atoms: C_25  and  C_27
REMARK                            x       y       z     vdW  Elec       q    Type
REMARK                         _______ _______ _______ _____ _____    ______ ____
ROOT
ATOM      3  O   UNL     1      -9.048  -8.518  17.505  0.00  0.00    -0.275 OA
ATOM      6  N   UNL     1      -8.908  -9.515  15.421  0.00  0.00    -0.287 N 
ATOM     11  C   UNL     1      -8.445 -10.771  13.458  0.00  0.00    +0.094 C 
ATOM     12  C   UNL     1      -8.200 -10.708  15.861  0.00  0.00    +0.164 C 
ATOM     13  C   UNL     1      -8.281 -11.676  14.682  0.00  0.00    +0.056 C 
ATOM     14  C   UNL     1      -9.239  -9.585  13.997  0.00  0.00    +0.131 C 
ATOM     22  C   UNL     1      -9.347  -8.545  16.310  0.00  0.00    +0.226 C 
ENDROOT
BRANCH  11   7
ATOM      4  O   UNL     1      -6.737 -12.309  11.730  0.00  0.00    -0.253 OA
ATOM      7  N   UNL     1      -7.173 -10.363  12.918  0.00  0.00    -0.295 N 
ATOM      8  N   UNL     1      -5.226 -10.547  11.703  0.00  0.00    -0.297 N 
ATOM     23  C   UNL     1      -6.407 -11.177  12.083  0.00  0.00    +0.300 C 
ATOM     29  H   UNL     1      -6.787  -9.467  13.201  0.00  0.00    +0.151 HD
ATOM     30  H   UNL     1      -5.018  -9.641  12.112  0.00  0.00    +0.151 HD
BRANCH   8  15
ATOM     15  C   UNL     1      -4.243 -11.162  10.838  0.00  0.00    +0.074 C 
ATOM     16  C   UNL     1      -3.021 -11.627  11.637  0.00  0.00    +0.022 C 
ATOM     17  C   UNL     1      -3.838 -10.214   9.705  0.00  0.00    +0.022 C 
ATOM     18  C   UNL     1      -2.162 -10.460  12.125  0.00  0.00    +0.002 C 
ATOM     19  C   UNL     1      -2.976  -9.050  10.195  0.00  0.00    +0.002 C 
ATOM     20  C   UNL     1      -1.761  -9.539  10.977  0.00  0.00    +0.000 C 
ENDBRANCH   8  15
ENDBRANCH  11   7
BRANCH  12  21
ATOM      2  O   UNL     1      -6.191  -9.542  15.440  0.00  0.00    -0.274 OA
ATOM      9  N   UNL     1      -6.213 -10.938  17.300  0.00  0.00    -0.294 N 
ATOM     21  C   UNL     1      -6.782 -10.340  16.173  0.00  0.00    +0.236 C 
ATOM     26  C   UNL     1      -4.844 -10.667  17.717  0.00  0.00    +0.132 C 
BRANCH   9  25
ATOM     25  C   UNL     1      -6.950 -11.877  18.141  0.00  0.00    +0.202 C 
BRANCH  25  27
ATOM      5  O   UNL     1      -6.527 -11.377  20.472  0.00  0.00    -0.274 OA
ATOM     10  N   UNL     1      -8.424 -10.536  19.482  0.00  0.00    -0.328 N 
ATOM     27  C   UNL     1      -7.240 -11.242  19.481  0.00  0.00    +0.228 C 
ATOM     31  H   UNL     1      -8.752 -10.069  20.319  0.00  0.00    +0.145 HD
ATOM     32  H   UNL     1      -9.005 -10.451  18.653  0.00  0.00    +0.145 HD
ENDBRANCH  25  27
ENDBRANCH   9  25
ENDBRANCH  12  21
BRANCH  22  24
ATOM     24  C   UNL     1     -10.232  -7.475  15.722  0.00  0.00    +0.164 C 
BRANCH  24   1
ATOM      1  S   UNL     1     -11.930  -7.868  16.162  0.00  0.00    -0.155 S 
ATOM     28  C   UNL     1     -12.700  -6.282  15.748  0.00  0.00    +0.085 C 
ENDBRANCH  24   1
ENDBRANCH  22  24
TORSDOF 7
ENDMDL
MODEL 5
REMARK VINA RESULT:      -5.6     26.985     29.234
REMARK  Name = 7049388
REMARK  9 active torsions:
REMARK  status: ('A' for Active; 'I' for Inactive)
REMARK    1  A    between atoms: S_1  and  C_24
REMARK    2  A    between atoms: S_1  and  C_28
REMARK    3  A    between atoms: N_7  and  C_11
REMARK    4  A    between atoms: N_8  and  C_15
REMARK    5  A    between atoms: N_9  and  C_25
REMARK    6  A    between atoms: N_9  and  C_26
REMARK    7  A    between atoms: C_12  and  C_21
REMARK    8  A    between atoms: C_22  and  C_24
REMARK    9  A    between atoms: C_25  and  C_27
REMARK                            x       y       z     vdW  Elec       q    Type
REMARK                         _______ _______ _______ _____ _____    ______ ____
ROOT
ATOM      3  O   UNL     1      -7.230 -13.570  17.289  0.00  0.00    -0.275 OA
ATOM      6  N   UNL     1      -5.376 -12.339  16.654  0.00  0.00    -0.287 N 
ATOM     11  C   UNL     1      -3.749 -10.745  15.975  0.00  0.00    +0.094 C 
ATOM     12  C   UNL     1      -5.940 -11.031  16.954  0.00  0.00    +0.164 C 
ATOM     13  C   UNL     1      -4.757 -10.067  16.909  0.00  0.00    +0.056 C 
ATOM     14  C   UNL     1      -3.981 -12.232  16.223  0.00  0.00    +0.131 C 
ATOM     22  C   UNL     1      -6.053 -13.518  16.927  0.00  0.00    +0.226 C 
ENDROOT
BRANCH  11   7
ATOM      4  O   UNL     1      -2.075 -11.408  13.734  0.00  0.00    -0.253 OA
ATOM      7  N   UNL     1      -3.974 -10.390  14.597  0.00  0.00    -0.295 N 
ATOM      8  N   UNL     1      -3.553 -10.290  12.336  0.00  0.00    -0.297 N 
ATOM     23  C   UNL     1      -3.105 -10.757  13.568  0.00  0.00    +0.300 C 
ATOM     29  H   UNL     1      -4.768  -9.801  14.368  0.00  0.00    +0.151 HD
ATOM     30  H   UNL     1      -4.378  -9.699  12.323  0.00  0.00    +0.151 HD
BRANCH   8  15
ATOM     15  C   UNL     1      -2.845 -10.525  11.096  0.00  0.00    +0.074 C 
ATOM     16  C   UNL     1      -2.744  -9.240  10.268  0.00  0.00    +0.022 C 
ATOM     17  C   UNL     1      -3.502 -11.653  10.293  0.00  0.00    +0.022 C 
ATOM     18  C   UNL     1      -4.085  -8.827   9.662  0.00  0.00    +0.002 C 
ATOM     19  C   UNL     1      -4.841 -11.236   9.686  0.00  0.00    +0.002 C 
ATOM     20  C   UNL     1      -4.712  -9.961   8.858  0.00  0.00    +0.000 C 
ENDBRANCH   8  15
ENDBRANCH  11   7
BRANCH  12  21
ATOM      2  O   UNL     1      -6.780 -11.070  14.748  0.00  0.00    -0.274 OA
ATOM      9  N   UNL     1      -8.076  -9.970  16.335  0.00  0.00    -0.294 N 
ATOM     21  C   UNL     1      -6.962 -10.697  15.910  0.00  0.00    +0.236 C 
ATOM     26  C   UNL     1      -9.144  -9.578  15.424  0.00  0.00    +0.132 C 
BRANCH   9  25
ATOM     25  C   UNL     1      -8.251  -9.548  17.722  0.00  0.00    +0.202 C 
BRANCH  25  27
ATOM      5  O   UNL     1      -9.511 -11.523  18.338  0.00  0.00    -0.274 OA
ATOM     10  N   UNL     1     -10.361  -9.453  18.865  0.00  0.00    -0.328 N 
ATOM     27  C   UNL     1      -9.407 -10.298  18.341  0.00  0.00    +0.228 C 
ATOM     31  H   UNL     1     -11.201  -9.818  19.300  0.00  0.00    +0.145 HD
ATOM     32  H   UNL     1     -10.260  -8.442  18.843  0.00  0.00    +0.145 HD
ENDBRANCH  25  27
ENDBRANCH   9  25
ENDBRANCH  12  21
BRANCH  22  24
ATOM     24  C   UNL     1      -5.256 -14.785  16.742  0.00  0.00    +0.164 C 
BRANCH  24   1
ATOM      1  S   UNL     1      -5.691 -15.474  15.140  0.00  0.00    -0.155 S 
ATOM     28  C   UNL     1      -4.028 -15.633  14.443  0.00  0.00    +0.085 C 
ENDBRANCH  24   1
ENDBRANCH  22  24
TORSDOF 7
ENDMDL
MODEL 6
REMARK VINA RESULT:      -5.5     13.473     17.964
REMARK  Name = 7049388
REMARK  9 active torsions:
REMARK  status: ('A' for Active; 'I' for Inactive)
REMARK    1  A    between atoms: S_1  and  C_24
REMARK    2  A    between atoms: S_1  and  C_28
REMARK    3  A    between atoms: N_7  and  C_11
REMARK    4  A    between atoms: N_8  and  C_15
REMARK    5  A    between atoms: N_9  and  C_25
REMARK    6  A    between atoms: N_9  and  C_26
REMARK    7  A    between atoms: C_12  and  C_21
REMARK    8  A    between atoms: C_22  and  C_24
REMARK    9  A    between atoms: C_25  and  C_27
REMARK                            x       y       z     vdW  Elec       q    Type
REMARK                         _______ _______ _______ _____ _____    ______ ____
ROOT
ATOM      3  O   UNL     1       8.965   7.204   7.897  0.00  0.00    -0.275 OA
ATOM      6  N   UNL     1      11.052   7.358   6.908  0.00  0.00    -0.287 N 
ATOM     11  C   UNL     1      12.989   7.740   5.586  0.00  0.00    +0.094 C 
ATOM     12  C   UNL     1      10.743   8.496   6.056  0.00  0.00    +0.164 C 
ATOM     13  C   UNL     1      12.093   8.981   5.534  0.00  0.00    +0.056 C 
ATOM     14  C   UNL     1      12.458   6.970   6.791  0.00  0.00    +0.131 C 
ATOM     22  C   UNL     1      10.145   6.853   7.827  0.00  0.00    +0.226 C 
ENDROOT
BRANCH  11   7
ATOM      4  O   UNL     1      15.166   6.981   3.867  0.00  0.00    -0.253 OA
ATOM      7  N   UNL     1      12.901   6.965   4.374  0.00  0.00    -0.295 N 
ATOM      8  N   UNL     1      13.656   5.886   2.485  0.00  0.00    -0.297 N 
ATOM     23  C   UNL     1      14.014   6.641   3.599  0.00  0.00    +0.300 C 
ATOM     29  H   UNL     1      11.983   6.688   4.037  0.00  0.00    +0.151 HD
ATOM     30  H   UNL     1      12.667   5.724   2.320  0.00  0.00    +0.151 HD
BRANCH   8  15
ATOM     15  C   UNL     1      14.611   5.413   1.509  0.00  0.00    +0.074 C 
ATOM     16  C   UNL     1      14.248   5.899   0.102  0.00  0.00    +0.022 C 
ATOM     17  C   UNL     1      14.735   3.886   1.555  0.00  0.00    +0.022 C 
ATOM     18  C   UNL     1      13.014   5.192  -0.461  0.00  0.00    +0.002 C 
ATOM     19  C   UNL     1      13.501   3.182   0.989  0.00  0.00    +0.002 C 
ATOM     20  C   UNL     1      13.166   3.674  -0.416  0.00  0.00    +0.000 C 
ENDBRANCH   8  15
ENDBRANCH  11   7
BRANCH  12  21
ATOM      2  O   UNL     1      10.096   6.962   4.382  0.00  0.00    -0.274 OA
ATOM      9  N   UNL     1       8.789   8.873   4.602  0.00  0.00    -0.294 N 
ATOM     21  C   UNL     1       9.854   8.036   4.940  0.00  0.00    +0.236 C 
ATOM     26  C   UNL     1       7.850   8.546   3.537  0.00  0.00    +0.132 C 
BRANCH   9  25
ATOM     25  C   UNL     1       8.540  10.136   5.290  0.00  0.00    +0.202 C 
BRANCH  25  27
ATOM      5  O   UNL     1       9.982  11.450   3.855  0.00  0.00    -0.274 OA
ATOM     10  N   UNL     1       7.833  12.174   4.233  0.00  0.00    -0.328 N 
ATOM     27  C   UNL     1       8.881  11.290   4.376  0.00  0.00    +0.228 C 
ATOM     31  H   UNL     1       7.925  13.004   3.658  0.00  0.00    +0.145 HD
ATOM     32  H   UNL     1       6.936  12.028   4.685  0.00  0.00    +0.145 HD
ENDBRANCH  25  27
ENDBRANCH   9  25
ENDBRANCH  12  21
BRANCH  22  24
ATOM     24  C   UNL     1      10.684   5.805   8.767  0.00  0.00    +0.164 C 
BRANCH  24   1
ATOM      1  S   UNL     1       9.578   4.389   8.699  0.00  0.00    -0.155 S 
ATOM     28  C   UNL     1       8.804   4.561  10.326  0.00  0.00    +0.085 C 
ENDBRANCH  24   1
ENDBRANCH  22  24
TORSDOF 7
ENDMDL
MODEL 7
REMARK VINA RESULT:      -5.3     15.619     17.781
REMARK  Name = 7049388
REMARK  9 active torsions:
REMARK  status: ('A' for Active; 'I' for Inactive)
REMARK    1  A    between atoms: S_1  and  C_24
REMARK    2  A    between atoms: S_1  and  C_28
REMARK    3  A    between atoms: N_7  and  C_11
REMARK    4  A    between atoms: N_8  and  C_15
REMARK    5  A    between atoms: N_9  and  C_25
REMARK    6  A    between atoms: N_9  and  C_26
REMARK    7  A    between atoms: C_12  and  C_21
REMARK    8  A    between atoms: C_22  and  C_24
REMARK    9  A    between atoms: C_25  and  C_27
REMARK                            x       y       z     vdW  Elec       q    Type
REMARK                         _______ _______ _______ _____ _____    ______ ____
ROOT
ATOM      3  O   UNL     1      13.402   6.788   3.805  0.00  0.00    -0.275 OA
ATOM      6  N   UNL     1      11.450   6.831   5.047  0.00  0.00    -0.287 N 
ATOM     11  C   UNL     1       9.291   6.613   6.016  0.00  0.00    +0.094 C 
ATOM     12  C   UNL     1      10.869   5.623   4.477  0.00  0.00    +0.164 C 
ATOM     13  C   UNL     1       9.698   5.274   5.392  0.00  0.00    +0.056 C 
ATOM     14  C   UNL     1      10.609   7.373   6.116  0.00  0.00    +0.131 C 
ATOM     22  C   UNL     1      12.721   7.270   4.713  0.00  0.00    +0.226 C 
ENDROOT
BRANCH  11   7
ATOM      4  O   UNL     1       8.690   9.423   6.096  0.00  0.00    -0.253 OA
ATOM      7  N   UNL     1       8.329   7.312   5.202  0.00  0.00    -0.295 N 
ATOM      8  N   UNL     1       7.126   9.109   4.410  0.00  0.00    -0.297 N 
ATOM     23  C   UNL     1       8.102   8.685   5.308  0.00  0.00    +0.300 C 
ATOM     29  H   UNL     1       7.750   6.777   4.561  0.00  0.00    +0.151 HD
ATOM     30  H   UNL     1       6.652   8.403   3.856  0.00  0.00    +0.151 HD
BRANCH   8  15
ATOM     15  C   UNL     1       6.692  10.484   4.304  0.00  0.00    +0.074 C 
ATOM     16  C   UNL     1       5.206  10.565   3.937  0.00  0.00    +0.022 C 
ATOM     17  C   UNL     1       7.555  11.258   3.302  0.00  0.00    +0.022 C 
ATOM     18  C   UNL     1       4.938  10.155   2.489  0.00  0.00    +0.002 C 
ATOM     19  C   UNL     1       7.282  10.848   1.855  0.00  0.00    +0.002 C 
ATOM     20  C   UNL     1       5.799  10.947   1.511  0.00  0.00    +0.000 C 
ENDBRANCH   8  15
ENDBRANCH  11   7
BRANCH  12  21
ATOM      2  O   UNL     1       9.828   6.987   2.856  0.00  0.00    -0.274 OA
ATOM      9  N   UNL     1      10.676   4.953   2.114  0.00  0.00    -0.294 N 
ATOM     21  C   UNL     1      10.409   5.923   3.083  0.00  0.00    +0.236 C 
ATOM     26  C   UNL     1      10.283   5.117   0.720  0.00  0.00    +0.132 C 
BRANCH   9  25
ATOM     25  C   UNL     1      11.367   3.706   2.427  0.00  0.00    +0.202 C 
BRANCH  25  27
ATOM      5  O   UNL     1      12.900   2.828   0.770  0.00  0.00    -0.274 OA
ATOM     10  N   UNL     1      13.591   4.558   2.118  0.00  0.00    -0.328 N 
ATOM     27  C   UNL     1      12.670   3.639   1.664  0.00  0.00    +0.228 C 
ATOM     31  H   UNL     1      14.516   4.617   1.707  0.00  0.00    +0.145 HD
ATOM     32  H   UNL     1      13.383   5.209   2.869  0.00  0.00    +0.145 HD
ENDBRANCH  25  27
ENDBRANCH   9  25
ENDBRANCH  12  21
BRANCH  22  24
ATOM     24  C   UNL     1      13.251   8.419   5.533  0.00  0.00    +0.164 C 
BRANCH  24   1
ATOM      1  S   UNL     1      14.811   7.898   6.260  0.00  0.00    -0.155 S 
ATOM     28  C   UNL     1      15.783   9.389   5.931  0.00  0.00    +0.085 C 
ENDBRANCH  24   1
ENDBRANCH  22  24
TORSDOF 7
ENDMDL
MODEL 8
REMARK VINA RESULT:      -5.2     14.698     17.022
REMARK  Name = 7049388
REMARK  9 active torsions:
REMARK  status: ('A' for Active; 'I' for Inactive)
REMARK    1  A    between atoms: S_1  and  C_24
REMARK    2  A    between atoms: S_1  and  C_28
REMARK    3  A    between atoms: N_7  and  C_11
REMARK    4  A    between atoms: N_8  and  C_15
REMARK    5  A    between atoms: N_9  and  C_25
REMARK    6  A    between atoms: N_9  and  C_26
REMARK    7  A    between atoms: C_12  and  C_21
REMARK    8  A    between atoms: C_22  and  C_24
REMARK    9  A    between atoms: C_25  and  C_27
REMARK                            x       y       z     vdW  Elec       q    Type
REMARK                         _______ _______ _______ _____ _____    ______ ____
ROOT
ATOM      3  O   UNL     1      11.335   5.862   5.168  0.00  0.00    -0.275 OA
ATOM      6  N   UNL     1      12.614   7.657   5.873  0.00  0.00    -0.287 N 
ATOM     11  C   UNL     1      14.088   9.493   6.197  0.00  0.00    +0.094 C 
ATOM     12  C   UNL     1      12.938   8.156   4.545  0.00  0.00    +0.164 C 
ATOM     13  C   UNL     1      13.524   9.547   4.774  0.00  0.00    +0.056 C 
ATOM     14  C   UNL     1      13.142   8.537   6.917  0.00  0.00    +0.131 C 
ATOM     22  C   UNL     1      11.761   6.583   6.073  0.00  0.00    +0.226 C 
ENDROOT
BRANCH  11   7
ATOM      4  O   UNL     1      16.441  10.972   5.458  0.00  0.00    -0.253 OA
ATOM      7  N   UNL     1      15.448   9.016   6.216  0.00  0.00    -0.295 N 
ATOM      8  N   UNL     1      17.733   9.107   5.950  0.00  0.00    -0.297 N 
ATOM     23  C   UNL     1      16.534   9.806   5.840  0.00  0.00    +0.300 C 
ATOM     29  H   UNL     1      15.622   8.045   6.460  0.00  0.00    +0.151 HD
ATOM     30  H   UNL     1      17.689   8.126   6.205  0.00  0.00    +0.151 HD
BRANCH   8  15
ATOM     15  C   UNL     1      19.019   9.685   5.625  0.00  0.00    +0.074 C 
ATOM     16  C   UNL     1      19.580   9.084   4.332  0.00  0.00    +0.022 C 
ATOM     17  C   UNL     1      20.005   9.524   6.786  0.00  0.00    +0.022 C 
ATOM     18  C   UNL     1      20.046   7.638   4.513  0.00  0.00    +0.002 C 
ATOM     19  C   UNL     1      20.470   8.078   6.963  0.00  0.00    +0.002 C 
ATOM     20  C   UNL     1      21.035   7.506   5.666  0.00  0.00    +0.000 C 
ENDBRANCH   8  15
ENDBRANCH  11   7
BRANCH  12  21
ATOM      2  O   UNL     1      14.925   6.882   4.565  0.00  0.00    -0.274 OA
ATOM      9  N   UNL     1      13.676   6.828   2.605  0.00  0.00    -0.294 N 
ATOM     21  C   UNL     1      13.938   7.235   3.915  0.00  0.00    +0.236 C 
ATOM     26  C   UNL     1      14.565   5.934   1.875  0.00  0.00    +0.132 C 
BRANCH   9  25
ATOM     25  C   UNL     1      12.493   7.270   1.872  0.00  0.00    +0.202 C 
BRANCH  25  27
ATOM      5  O   UNL     1      11.621   5.746   0.203  0.00  0.00    -0.274 OA
ATOM     10  N   UNL     1      11.083   5.401   2.412  0.00  0.00    -0.328 N 
ATOM     27  C   UNL     1      11.716   6.068   1.385  0.00  0.00    +0.228 C 
ATOM     31  H   UNL     1      10.514   4.583   2.229  0.00  0.00    +0.145 HD
ATOM     32  H   UNL     1      11.165   5.695   3.380  0.00  0.00    +0.145 HD
ENDBRANCH  25  27
ENDBRANCH   9  25
ENDBRANCH  12  21
BRANCH  22  24
ATOM     24  C   UNL     1      11.373   6.316   7.505  0.00  0.00    +0.164 C 
BRANCH  24   1
ATOM      1  S   UNL     1       9.646   5.818   7.520  0.00  0.00    -0.155 S 
ATOM     28  C   UNL     1       9.793   4.329   8.539  0.00  0.00    +0.085 C 
ENDBRANCH  24   1
ENDBRANCH  22  24
TORSDOF 7
ENDMDL
MODEL 9
REMARK VINA RESULT:      -5.2     28.707     30.635
REMARK  Name = 7049388
REMARK  9 active torsions:
REMARK  status: ('A' for Active; 'I' for Inactive)
REMARK    1  A    between atoms: S_1  and  C_24
REMARK    2  A    between atoms: S_1  and  C_28
REMARK    3  A    between atoms: N_7  and  C_11
REMARK    4  A    between atoms: N_8  and  C_15
REMARK    5  A    between atoms: N_9  and  C_25
REMARK    6  A    between atoms: N_9  and  C_26
REMARK    7  A    between atoms: C_12  and  C_21
REMARK    8  A    between atoms: C_22  and  C_24
REMARK    9  A    between atoms: C_25  and  C_27
REMARK                            x       y       z     vdW  Elec       q    Type
REMARK                         _______ _______ _______ _____ _____    ______ ____
ROOT
ATOM      3  O   UNL     1      -7.992 -10.076   6.657  0.00  0.00    -0.275 OA
ATOM      6  N   UNL     1      -8.872  -7.979   7.086  0.00  0.00    -0.287 N 
ATOM     11  C   UNL     1      -9.526  -5.837   7.879  0.00  0.00    +0.094 C 
ATOM     12  C   UNL     1      -7.831  -7.553   8.009  0.00  0.00    +0.164 C 
ATOM     13  C   UNL     1      -8.040  -6.050   8.179  0.00  0.00    +0.056 C 
ATOM     14  C   UNL     1      -9.834  -6.905   6.834  0.00  0.00    +0.131 C 
ATOM     22  C   UNL     1      -8.818  -9.193   6.418  0.00  0.00    +0.226 C 
ENDROOT
BRANCH  11   7
ATOM      4  O   UNL     1     -11.450  -3.960   8.902  0.00  0.00    -0.253 OA
ATOM      7  N   UNL     1     -10.339  -5.992   9.059  0.00  0.00    -0.295 N 
ATOM      8  N   UNL     1     -11.906  -5.422  10.646  0.00  0.00    -0.297 N 
ATOM     23  C   UNL     1     -11.252  -5.026   9.483  0.00  0.00    +0.300 C 
ATOM     29  H   UNL     1     -10.204  -6.814   9.640  0.00  0.00    +0.151 HD
ATOM     30  H   UNL     1     -11.613  -6.289  11.084  0.00  0.00    +0.151 HD
BRANCH   8  15
ATOM     15  C   UNL     1     -12.906  -4.612  11.307  0.00  0.00    +0.074 C 
ATOM     16  C   UNL     1     -12.351  -3.995  12.595  0.00  0.00    +0.022 C 
ATOM     17  C   UNL     1     -14.177  -5.422  11.582  0.00  0.00    +0.022 C 
ATOM     18  C   UNL     1     -12.161  -5.029  13.705  0.00  0.00    +0.002 C 
ATOM     19  C   UNL     1     -13.984  -6.454  12.694  0.00  0.00    +0.002 C 
ATOM     20  C   UNL     1     -13.442  -5.814  13.968  0.00  0.00    +0.000 C 
ENDBRANCH   8  15
ENDBRANCH  11   7
BRANCH  12  21
ATOM      2  O   UNL     1      -9.148  -8.542   9.700  0.00  0.00    -0.274 OA
ATOM      9  N   UNL     1      -6.843  -8.631   9.992  0.00  0.00    -0.294 N 
ATOM     21  C   UNL     1      -8.008  -8.284   9.305  0.00  0.00    +0.236 C 
ATOM     26  C   UNL     1      -6.872  -9.343  11.264  0.00  0.00    +0.132 C 
BRANCH   9  25
ATOM     25  C   UNL     1      -5.512  -8.306   9.488  0.00  0.00    +0.202 C 
BRANCH  25  27
ATOM      5  O   UNL     1      -3.847 -10.051   9.709  0.00  0.00    -0.274 OA
ATOM     10  N   UNL     1      -5.288 -10.110   7.918  0.00  0.00    -0.328 N 
ATOM     27  C   UNL     1      -4.794  -9.574   9.088  0.00  0.00    +0.228 C 
ATOM     31  H   UNL     1      -4.891 -10.955   7.523  0.00  0.00    +0.145 HD
ATOM     32  H   UNL     1      -6.063  -9.690   7.414  0.00  0.00    +0.145 HD
ENDBRANCH  25  27
ENDBRANCH   9  25
ENDBRANCH  12  21
BRANCH  22  24
ATOM     24  C   UNL     1      -9.866  -9.398   5.354  0.00  0.00    +0.164 C 
BRANCH  24   1
ATOM      1  S   UNL     1      -9.021  -9.864   3.837  0.00  0.00    -0.155 S 
ATOM     28  C   UNL     1      -8.124  -8.321   3.532  0.00  0.00    +0.085 C 
ENDBRANCH  24   1
ENDBRANCH  22  24
TORSDOF 7
ENDMDL
MODEL 10
REMARK VINA RESULT:      -5.1     14.556     17.711
REMARK  Name = 7049388
REMARK  9 active torsions:
REMARK  status: ('A' for Active; 'I' for Inactive)
REMARK    1  A    between atoms: S_1  and  C_24
REMARK    2  A    between atoms: S_1  and  C_28
REMARK    3  A    between atoms: N_7  and  C_11
REMARK    4  A    between atoms: N_8  and  C_15
REMARK    5  A    between atoms: N_9  and  C_25
REMARK    6  A    between atoms: N_9  and  C_26
REMARK    7  A    between atoms: C_12  and  C_21
REMARK    8  A    between atoms: C_22  and  C_24
REMARK    9  A    between atoms: C_25  and  C_27
REMARK                            x       y       z     vdW  Elec       q    Type
REMARK                         _______ _______ _______ _____ _____    ______ ____
ROOT
ATOM      3  O   UNL     1      15.626   8.825   0.643  0.00  0.00    -0.275 OA
ATOM      6  N   UNL     1      15.405   8.523   2.927  0.00  0.00    -0.287 N 
ATOM     11  C   UNL     1      14.965   7.852   5.164  0.00  0.00    +0.094 C 
ATOM     12  C   UNL     1      15.116   7.097   2.874  0.00  0.00    +0.164 C 
ATOM     13  C   UNL     1      15.248   6.609   4.314  0.00  0.00    +0.056 C 
ATOM     14  C   UNL     1      15.500   8.996   4.308  0.00  0.00    +0.131 C 
ATOM     22  C   UNL     1      15.718   9.257   1.794  0.00  0.00    +0.226 C 
ENDROOT
BRANCH  11   7
ATOM      4  O   UNL     1      13.468   6.533   7.234  0.00  0.00    -0.253 OA
ATOM      7  N   UNL     1      13.559   8.002   5.440  0.00  0.00    -0.295 N 
ATOM      8  N   UNL     1      11.558   7.645   6.522  0.00  0.00    -0.297 N 
ATOM     23  C   UNL     1      12.911   7.321   6.471  0.00  0.00    +0.300 C 
ATOM     29  H   UNL     1      13.000   8.587   4.825  0.00  0.00    +0.151 HD
ATOM     30  H   UNL     1      11.187   8.250   5.797  0.00  0.00    +0.151 HD
BRANCH   8  15
ATOM     15  C   UNL     1      10.646   7.083   7.494  0.00  0.00    +0.074 C 
ATOM     16  C   UNL     1      10.191   5.681   7.076  0.00  0.00    +0.022 C 
ATOM     17  C   UNL     1       9.449   8.011   7.726  0.00  0.00    +0.022 C 
ATOM     18  C   UNL     1       9.229   5.709   5.887  0.00  0.00    +0.002 C 
ATOM     19  C   UNL     1       8.489   8.034   6.537  0.00  0.00    +0.002 C 
ATOM     20  C   UNL     1       8.041   6.629   6.146  0.00  0.00    +0.000 C 
ENDBRANCH   8  15
ENDBRANCH  11   7
BRANCH  12  21
ATOM      2  O   UNL     1      12.821   7.642   2.766  0.00  0.00    -0.274 OA
ATOM      9  N   UNL     1      13.537   5.888   1.418  0.00  0.00    -0.294 N 
ATOM     21  C   UNL     1      13.723   6.907   2.354  0.00  0.00    +0.236 C 
ATOM     26  C   UNL     1      12.235   5.596   0.833  0.00  0.00    +0.132 C 
BRANCH   9  25
ATOM     25  C   UNL     1      14.634   5.040   0.959  0.00  0.00    +0.202 C 
BRANCH  25  27
ATOM      5  O   UNL     1      13.620   2.886   1.403  0.00  0.00    -0.274 OA
ATOM     10  N   UNL     1      15.558   3.450   2.503  0.00  0.00    -0.328 N 
ATOM     27  C   UNL     1      14.534   3.680   1.610  0.00  0.00    +0.228 C 
ATOM     31  H   UNL     1      15.610   2.582   3.025  0.00  0.00    +0.145 HD
ATOM     32  H   UNL     1      16.296   4.128   2.669  0.00  0.00    +0.145 HD
ENDBRANCH  25  27
ENDBRANCH   9  25
ENDBRANCH  12  21
BRANCH  22  24
ATOM     24  C   UNL     1      16.183  10.670   2.041  0.00  0.00    +0.164 C 
BRANCH  24   1
ATOM      1  S   UNL     1      15.114  11.769   1.103  0.00  0.00    -0.155 S 
ATOM     28  C   UNL     1      13.569  11.494   2.006  0.00  0.00    +0.085 C 
ENDBRANCH  24   1
ENDBRANCH  22  24
TORSDOF 7
ENDMDL
