REMARK  Name = 45783791
REMARK  6 active torsions:
REMARK  status: ('A' for Active; 'I' for Inactive)
REMARK    1  A    between atoms: N_2  and  C_10
REMARK    2  A    between atoms: N_6  and  C_21
REMARK    3  A    between atoms: N_6  and  C_22
REMARK    4  A    between atoms: C_7  and  C_10
REMARK    5  A    between atoms: C_11  and  C_15
REMARK    6  A    between atoms: C_16  and  C_17
REMARK                            x       y       z     vdW  Elec       q    Type
REMARK                         _______ _______ _______ _____ _____    ______ ____
ROOT
ATOM      1  O   UNL     1      -0.867  -2.072   1.390  0.00  0.00    -0.336 OA
ATOM      3  N   UNL     1      -0.424  -0.515  -0.158  0.00  0.00    -0.190 NA
ATOM      4  N   UNL     1       0.521  -1.883   1.413  0.00  0.00    -0.056 NA
ATOM     15  C   UNL     1      -1.345  -1.229   0.438  0.00  0.00    +0.245 A 
ATOM     16  C   UNL     1       0.704  -0.950   0.473  0.00  0.00    +0.204 A 
ENDROOT
BRANCH  16  17
ATOM      5  N   UNL     1       4.387  -0.442   0.526  0.00  0.00    -0.240 NA
ATOM     17  C   UNL     1       2.001  -0.434   0.141  0.00  0.00    +0.041 A 
ATOM     18  C   UNL     1       2.155   0.535  -0.844  0.00  0.00    +0.016 A 
ATOM     19  C   UNL     1       3.138  -0.886   0.791  0.00  0.00    +0.124 A 
ATOM     20  C   UNL     1       3.425   1.016  -1.145  0.00  0.00    +0.044 A 
ATOM     21  C   UNL     1       4.498   0.500  -0.437  0.00  0.00    +0.118 A 
BRANCH  21   6
ATOM      6  N   UNL     1       5.785   1.000  -0.756  0.00  0.00    -0.332 N 
ATOM     22  C   UNL     1       6.970   0.551  -0.100  0.00  0.00    +0.127 C 
ATOM     23  H   UNL     1       5.827   1.853  -1.303  0.00  0.00    +0.147 HD
ENDBRANCH  21   6
ENDBRANCH  16  17
BRANCH  15  11
ATOM      2  N   UNL     1      -3.353   0.046  -0.295  0.00  0.00    -0.291 NA
ATOM     11  C   UNL     1      -2.843  -1.243   0.216  0.00  0.00    +0.146 C 
ATOM     12  C   UNL     1      -4.535  -0.267  -1.099  0.00  0.00    +0.085 C 
ATOM     13  C   UNL     1      -3.279  -2.280  -0.835  0.00  0.00    +0.030 C 
ATOM     14  C   UNL     1      -4.078  -1.493  -1.864  0.00  0.00    +0.017 C 
BRANCH   2  10
ATOM     10  C   UNL     1      -3.647   1.006   0.760  0.00  0.00    +0.088 C 
BRANCH  10   7
ATOM      7  C   UNL     1      -3.647   2.406   0.236  0.00  0.00    +0.003 C 
ATOM      8  C   UNL     1      -3.229   3.527   1.141  0.00  0.00    +0.005 C 
ATOM      9  C   UNL     1      -2.339   3.105   0.009  0.00  0.00    +0.005 C 
ENDBRANCH  10   7
ENDBRANCH   2  10
ENDBRANCH  15  11
TORSDOF 5
