MODEL 1
REMARK VINA RESULT:      -7.8      0.000      0.000
REMARK  Name = 51137137
REMARK  6 active torsions:
REMARK  status: ('A' for Active; 'I' for Inactive)
REMARK    1  A    between atoms: S_1  and  C_21
REMARK    2  A    between atoms: S_1  and  C_28
REMARK    3  A    between atoms: N_5  and  C_12
REMARK    4  A    between atoms: C_8  and  C_13
REMARK    5  A    between atoms: C_12  and  C_14
REMARK    6  A    between atoms: C_28  and  C_29
REMARK                            x       y       z     vdW  Elec       q    Type
REMARK                         _______ _______ _______ _____ _____    ______ ____
ROOT
ATOM      5  N   UNL     1      21.654   4.568  21.364  0.00  0.00    -0.297 NA
ATOM      8  C   UNL     1      20.233   6.234  20.522  0.00  0.00    +0.090 C 
ATOM      9  C   UNL     1      20.512   4.726  20.461  0.00  0.00    +0.097 C 
ATOM     10  C   UNL     1      20.801   6.680  21.881  0.00  0.00    +0.029 C 
ATOM     11  C   UNL     1      21.338   5.405  22.521  0.00  0.00    +0.085 C 
ENDROOT
BRANCH   8  13
ATOM      2  O   UNL     1      18.276   7.577  21.074  0.00  0.00    -0.439 OA
ATOM      6  N   UNL     1      17.930   6.028  19.455  0.00  0.00    -0.213 NA
ATOM     13  C   UNL     1      18.777   6.574  20.300  0.00  0.00    +0.201 A 
ATOM     16  C   UNL     1      16.766   6.722  19.683  0.00  0.00    +0.111 A 
ATOM     17  C   UNL     1      16.975   7.671  20.673  0.00  0.00    +0.155 A 
ATOM     20  C   UNL     1      15.494   6.617  19.102  0.00  0.00    +0.058 A 
ATOM     21  C   UNL     1      14.489   7.484  19.555  0.00  0.00    +0.090 A 
ATOM     22  C   UNL     1      16.005   8.545  21.148  0.00  0.00    +0.050 A 
ATOM     24  C   UNL     1      14.742   8.428  20.559  0.00  0.00    +0.030 A 
BRANCH  21   1
ATOM      1  S   UNL     1      12.890   7.383  18.852  0.00  0.00    -0.003 S 
ATOM      3  O   UNL     1      13.015   7.391  17.402  0.00  0.00    -0.169 OA
ATOM      4  O   UNL     1      12.181   6.299  19.514  0.00  0.00    -0.169 OA
BRANCH   1  28
ATOM     28  C   UNL     1      12.111   8.914  19.314  0.00  0.00    +0.168 C 
ATOM     29  C   UNL     1      10.974   8.684  20.285  0.00  0.00    +0.028 C 
ENDBRANCH   1  28
ENDBRANCH  21   1
ENDBRANCH   8  13
BRANCH   5  12
ATOM     12  C   UNL     1      21.883   3.179  21.731  0.00  0.00    +0.121 C 
BRANCH  12  14
ATOM      7  N   UNL     1      25.325   2.580  20.578  0.00  0.00    -0.360 N 
ATOM     14  C   UNL     1      23.310   2.763  21.490  0.00  0.00    -0.008 A 
ATOM     15  C   UNL     1      24.081   1.875  22.289  0.00  0.00    +0.004 A 
ATOM     18  C   UNL     1      24.102   3.180  20.444  0.00  0.00    +0.088 A 
ATOM     19  C   UNL     1      25.342   1.777  21.696  0.00  0.00    +0.047 A 
ATOM     23  C   UNL     1      23.827   1.141  23.466  0.00  0.00    +0.010 A 
ATOM     25  C   UNL     1      26.364   0.979  22.222  0.00  0.00    +0.026 A 
ATOM     26  C   UNL     1      24.841   0.340  24.004  0.00  0.00    +0.001 A 
ATOM     27  C   UNL     1      26.089   0.262  23.390  0.00  0.00    +0.002 A 
ATOM     30  H   UNL     1      26.106   2.706  19.947  0.00  0.00    +0.165 HD
ENDBRANCH  12  14
ENDBRANCH   5  12
TORSDOF 5
ENDMDL
MODEL 2
REMARK VINA RESULT:      -7.4      1.885      2.608
REMARK  Name = 51137137
REMARK  6 active torsions:
REMARK  status: ('A' for Active; 'I' for Inactive)
REMARK    1  A    between atoms: S_1  and  C_21
REMARK    2  A    between atoms: S_1  and  C_28
REMARK    3  A    between atoms: N_5  and  C_12
REMARK    4  A    between atoms: C_8  and  C_13
REMARK    5  A    between atoms: C_12  and  C_14
REMARK    6  A    between atoms: C_28  and  C_29
REMARK                            x       y       z     vdW  Elec       q    Type
REMARK                         _______ _______ _______ _____ _____    ______ ____
ROOT
ATOM      5  N   UNL     1      21.524   5.604  21.671  0.00  0.00    -0.297 NA
ATOM      8  C   UNL     1      19.854   7.028  20.843  0.00  0.00    +0.090 C 
ATOM      9  C   UNL     1      20.268   5.552  20.920  0.00  0.00    +0.097 C 
ATOM     10  C   UNL     1      20.543   7.688  22.051  0.00  0.00    +0.029 C 
ATOM     11  C   UNL     1      21.277   6.553  22.756  0.00  0.00    +0.085 C 
ENDROOT
BRANCH   8  13
ATOM      2  O   UNL     1      17.840   8.142  21.643  0.00  0.00    -0.439 OA
ATOM      6  N   UNL     1      17.485   6.610  20.010  0.00  0.00    -0.213 NA
ATOM     13  C   UNL     1      18.357   7.219  20.784  0.00  0.00    +0.201 A 
ATOM     16  C   UNL     1      16.287   7.171  20.381  0.00  0.00    +0.111 A 
ATOM     17  C   UNL     1      16.501   8.109  21.380  0.00  0.00    +0.155 A 
ATOM     20  C   UNL     1      14.978   6.949  19.929  0.00  0.00    +0.058 A 
ATOM     21  C   UNL     1      13.944   7.692  20.515  0.00  0.00    +0.090 A 
ATOM     22  C   UNL     1      15.503   8.863  21.984  0.00  0.00    +0.050 A 
ATOM     24  C   UNL     1      14.203   8.630  21.522  0.00  0.00    +0.030 A 
BRANCH  21   1
ATOM      1  S   UNL     1      12.298   7.443  19.975  0.00  0.00    -0.003 S 
ATOM      3  O   UNL     1      11.620   8.729  19.929  0.00  0.00    -0.169 OA
ATOM      4  O   UNL     1      12.343   6.603  18.787  0.00  0.00    -0.169 OA
BRANCH   1  28
ATOM     28  C   UNL     1      11.544   6.504  21.284  0.00  0.00    +0.168 C 
ATOM     29  C   UNL     1      10.517   7.323  22.031  0.00  0.00    +0.028 C 
ENDBRANCH   1  28
ENDBRANCH  21   1
ENDBRANCH   8  13
BRANCH   5  12
ATOM     12  C   UNL     1      21.931   4.296  22.163  0.00  0.00    +0.121 C 
BRANCH  12  14
ATOM      7  N   UNL     1      24.046   2.126  20.076  0.00  0.00    -0.360 N 
ATOM     14  C   UNL     1      22.947   3.648  21.259  0.00  0.00    -0.008 A 
ATOM     15  C   UNL     1      24.047   4.288  20.626  0.00  0.00    +0.004 A 
ATOM     18  C   UNL     1      22.972   2.319  20.903  0.00  0.00    +0.088 A 
ATOM     19  C   UNL     1      24.721   3.311  19.888  0.00  0.00    +0.047 A 
ATOM     23  C   UNL     1      24.537   5.610  20.607  0.00  0.00    +0.010 A 
ATOM     25  C   UNL     1      25.864   3.591  19.131  0.00  0.00    +0.026 A 
ATOM     26  C   UNL     1      25.679   5.904  19.853  0.00  0.00    +0.001 A 
ATOM     27  C   UNL     1      26.331   4.908  19.128  0.00  0.00    +0.002 A 
ATOM     30  H   UNL     1      24.308   1.241  19.662  0.00  0.00    +0.165 HD
ENDBRANCH  12  14
ENDBRANCH   5  12
TORSDOF 5
ENDMDL
MODEL 3
REMARK VINA RESULT:      -7.3     28.460     33.249
REMARK  Name = 51137137
REMARK  6 active torsions:
REMARK  status: ('A' for Active; 'I' for Inactive)
REMARK    1  A    between atoms: S_1  and  C_21
REMARK    2  A    between atoms: S_1  and  C_28
REMARK    3  A    between atoms: N_5  and  C_12
REMARK    4  A    between atoms: C_8  and  C_13
REMARK    5  A    between atoms: C_12  and  C_14
REMARK    6  A    between atoms: C_28  and  C_29
REMARK                            x       y       z     vdW  Elec       q    Type
REMARK                         _______ _______ _______ _____ _____    ______ ____
ROOT
ATOM      5  N   UNL     1     -10.815  -7.476  15.903  0.00  0.00    -0.297 NA
ATOM      8  C   UNL     1      -9.386  -9.331  16.046  0.00  0.00    +0.090 C 
ATOM      9  C   UNL     1      -9.717  -8.114  15.172  0.00  0.00    +0.097 C 
ATOM     10  C   UNL     1      -9.867  -8.940  17.456  0.00  0.00    +0.029 C 
ATOM     11  C   UNL     1     -10.412  -7.524  17.308  0.00  0.00    +0.085 C 
ENDROOT
BRANCH   8  13
ATOM      2  O   UNL     1      -7.292  -9.904  17.153  0.00  0.00    -0.439 OA
ATOM      6  N   UNL     1      -7.208  -9.959  14.888  0.00  0.00    -0.213 NA
ATOM     13  C   UNL     1      -7.934  -9.740  15.962  0.00  0.00    +0.201 A 
ATOM     16  C   UNL     1      -5.978 -10.298  15.402  0.00  0.00    +0.111 A 
ATOM     17  C   UNL     1      -6.027 -10.265  16.788  0.00  0.00    +0.155 A 
ATOM     20  C   UNL     1      -4.774 -10.646  14.774  0.00  0.00    +0.058 A 
ATOM     21  C   UNL     1      -3.670 -10.945  15.585  0.00  0.00    +0.090 A 
ATOM     22  C   UNL     1      -4.956 -10.554  17.624  0.00  0.00    +0.050 A 
ATOM     24  C   UNL     1      -3.762 -10.899  16.982  0.00  0.00    +0.030 A 
BRANCH  21   1
ATOM      1  S   UNL     1      -2.151 -11.385  14.837  0.00  0.00    -0.003 S 
ATOM      3  O   UNL     1      -1.061 -10.945  15.695  0.00  0.00    -0.169 OA
ATOM      4  O   UNL     1      -2.242 -12.780  14.435  0.00  0.00    -0.169 OA
BRANCH   1  28
ATOM     28  C   UNL     1      -2.085 -10.392  13.362  0.00  0.00    +0.168 C 
ATOM     29  C   UNL     1      -2.144 -11.247  12.116  0.00  0.00    +0.028 C 
ENDBRANCH   1  28
ENDBRANCH  21   1
ENDBRANCH   8  13
BRANCH   5  12
ATOM     12  C   UNL     1     -11.070  -6.119  15.446  0.00  0.00    +0.121 C 
BRANCH  12  14
ATOM      7  N   UNL     1     -14.661  -6.200  14.648  0.00  0.00    -0.360 N 
ATOM     14  C   UNL     1     -12.471  -5.959  14.918  0.00  0.00    -0.008 A 
ATOM     15  C   UNL     1     -12.883  -5.114  13.850  0.00  0.00    +0.004 A 
ATOM     18  C   UNL     1     -13.586  -6.614  15.388  0.00  0.00    +0.088 A 
ATOM     19  C   UNL     1     -14.262  -5.283  13.702  0.00  0.00    +0.047 A 
ATOM     23  C   UNL     1     -12.214  -4.217  12.994  0.00  0.00    +0.010 A 
ATOM     25  C   UNL     1     -15.007  -4.598  12.735  0.00  0.00    +0.026 A 
ATOM     26  C   UNL     1     -12.947  -3.524  12.023  0.00  0.00    +0.001 A 
ATOM     27  C   UNL     1     -14.322  -3.714  11.898  0.00  0.00    +0.002 A 
ATOM     30  H   UNL     1     -15.612  -6.519  14.776  0.00  0.00    +0.165 HD
ENDBRANCH  12  14
ENDBRANCH   5  12
TORSDOF 5
ENDMDL
MODEL 4
REMARK VINA RESULT:      -7.2     31.402     34.508
REMARK  Name = 51137137
REMARK  6 active torsions:
REMARK  status: ('A' for Active; 'I' for Inactive)
REMARK    1  A    between atoms: S_1  and  C_21
REMARK    2  A    between atoms: S_1  and  C_28
REMARK    3  A    between atoms: N_5  and  C_12
REMARK    4  A    between atoms: C_8  and  C_13
REMARK    5  A    between atoms: C_12  and  C_14
REMARK    6  A    between atoms: C_28  and  C_29
REMARK                            x       y       z     vdW  Elec       q    Type
REMARK                         _______ _______ _______ _____ _____    ______ ____
ROOT
ATOM      5  N   UNL     1     -13.576   7.030  20.835  0.00  0.00    -0.297 NA
ATOM      8  C   UNL     1     -15.142   5.460  21.598  0.00  0.00    +0.090 C 
ATOM      9  C   UNL     1     -13.636   5.746  21.536  0.00  0.00    +0.097 C 
ATOM     10  C   UNL     1     -15.805   6.846  21.505  0.00  0.00    +0.029 C 
ATOM     11  C   UNL     1     -14.646   7.833  21.425  0.00  0.00    +0.085 C 
ENDROOT
BRANCH   8  13
ATOM      2  O   UNL     1     -16.386   3.606  22.574  0.00  0.00    -0.439 OA
ATOM      6  N   UNL     1     -15.173   4.814  24.061  0.00  0.00    -0.213 NA
ATOM     13  C   UNL     1     -15.539   4.647  22.809  0.00  0.00    +0.201 A 
ATOM     16  C   UNL     1     -15.829   3.801  24.719  0.00  0.00    +0.111 A 
ATOM     17  C   UNL     1     -16.572   3.060  23.812  0.00  0.00    +0.155 A 
ATOM     20  C   UNL     1     -15.852   3.437  26.073  0.00  0.00    +0.058 A 
ATOM     21  C   UNL     1     -16.632   2.333  26.444  0.00  0.00    +0.090 A 
ATOM     22  C   UNL     1     -17.356   1.962  24.142  0.00  0.00    +0.050 A 
ATOM     24  C   UNL     1     -17.369   1.612  25.496  0.00  0.00    +0.030 A 
BRANCH  21   1
ATOM      1  S   UNL     1     -16.684   1.847  28.124  0.00  0.00    -0.003 S 
ATOM      3  O   UNL     1     -18.023   2.089  28.641  0.00  0.00    -0.169 OA
ATOM      4  O   UNL     1     -16.097   0.519  28.222  0.00  0.00    -0.169 OA
BRANCH   1  28
ATOM     28  C   UNL     1     -15.597   2.990  28.945  0.00  0.00    +0.168 C 
ATOM     29  C   UNL     1     -15.735   2.903  30.448  0.00  0.00    +0.028 C 
ENDBRANCH   1  28
ENDBRANCH  21   1
ENDBRANCH   8  13
BRANCH   5  12
ATOM     12  C   UNL     1     -12.274   7.668  20.956  0.00  0.00    +0.121 C 
BRANCH  12  14
ATOM      7  N   UNL     1     -10.714   7.396  17.635  0.00  0.00    -0.360 N 
ATOM     14  C   UNL     1     -11.607   7.843  19.617  0.00  0.00    -0.008 A 
ATOM     15  C   UNL     1     -11.164   9.066  19.044  0.00  0.00    +0.004 A 
ATOM     18  C   UNL     1     -11.317   6.833  18.728  0.00  0.00    +0.088 A 
ATOM     19  C   UNL     1     -10.607   8.759  17.799  0.00  0.00    +0.047 A 
ATOM     23  C   UNL     1     -11.183  10.411  19.464  0.00  0.00    +0.010 A 
ATOM     25  C   UNL     1     -10.067   9.733  16.953  0.00  0.00    +0.026 A 
ATOM     26  C   UNL     1     -10.646  11.396  18.627  0.00  0.00    +0.001 A 
ATOM     27  C   UNL     1     -10.097  11.060  17.391  0.00  0.00    +0.002 A 
ATOM     30  H   UNL     1     -10.392   6.887  16.823  0.00  0.00    +0.165 HD
ENDBRANCH  12  14
ENDBRANCH   5  12
TORSDOF 5
ENDMDL
MODEL 5
REMARK VINA RESULT:      -7.0     28.831     32.248
REMARK  Name = 51137137
REMARK  6 active torsions:
REMARK  status: ('A' for Active; 'I' for Inactive)
REMARK    1  A    between atoms: S_1  and  C_21
REMARK    2  A    between atoms: S_1  and  C_28
REMARK    3  A    between atoms: N_5  and  C_12
REMARK    4  A    between atoms: C_8  and  C_13
REMARK    5  A    between atoms: C_12  and  C_14
REMARK    6  A    between atoms: C_28  and  C_29
REMARK                            x       y       z     vdW  Elec       q    Type
REMARK                         _______ _______ _______ _____ _____    ______ ____
ROOT
ATOM      5  N   UNL     1      -8.136 -10.020  17.291  0.00  0.00    -0.297 NA
ATOM      8  C   UNL     1      -9.629  -8.211  17.275  0.00  0.00    +0.090 C 
ATOM      9  C   UNL     1      -8.564  -8.918  16.427  0.00  0.00    +0.097 C 
ATOM     10  C   UNL     1     -10.147  -9.298  18.234  0.00  0.00    +0.029 C 
ATOM     11  C   UNL     1      -9.372 -10.556  17.858  0.00  0.00    +0.085 C 
ENDROOT
BRANCH   8  13
ATOM      2  O   UNL     1     -11.980  -7.912  16.709  0.00  0.00    -0.439 OA
ATOM      6  N   UNL     1     -10.548  -6.641  15.495  0.00  0.00    -0.213 NA
ATOM     13  C   UNL     1     -10.697  -7.540  16.443  0.00  0.00    +0.201 A 
ATOM     16  C   UNL     1     -11.839  -6.391  15.092  0.00  0.00    +0.111 A 
ATOM     17  C   UNL     1     -12.717  -7.167  15.833  0.00  0.00    +0.155 A 
ATOM     20  C   UNL     1     -12.355  -5.529  14.114  0.00  0.00    +0.058 A 
ATOM     21  C   UNL     1     -13.745  -5.495  13.933  0.00  0.00    +0.090 A 
ATOM     22  C   UNL     1     -14.098  -7.161  15.683  0.00  0.00    +0.050 A 
ATOM     24  C   UNL     1     -14.597  -6.297  14.703  0.00  0.00    +0.030 A 
BRANCH  21   1
ATOM      1  S   UNL     1     -14.426  -4.431  12.723  0.00  0.00    -0.003 S 
ATOM      3  O   UNL     1     -15.728  -4.945  12.326  0.00  0.00    -0.169 OA
ATOM      4  O   UNL     1     -14.302  -3.066  13.212  0.00  0.00    -0.169 OA
BRANCH   1  28
ATOM     28  C   UNL     1     -13.346  -4.613  11.321  0.00  0.00    +0.168 C 
ATOM     29  C   UNL     1     -12.401  -3.439  11.195  0.00  0.00    +0.028 C 
ENDBRANCH   1  28
ENDBRANCH  21   1
ENDBRANCH   8  13
BRANCH   5  12
ATOM     12  C   UNL     1      -7.375 -11.028  16.568  0.00  0.00    +0.121 C 
BRANCH  12  14
ATOM      7  N   UNL     1      -4.045 -11.038  18.134  0.00  0.00    -0.360 N 
ATOM     14  C   UNL     1      -5.915 -11.002  16.940  0.00  0.00    -0.008 A 
ATOM     15  C   UNL     1      -4.816 -10.865  16.048  0.00  0.00    +0.004 A 
ATOM     18  C   UNL     1      -5.410 -11.105  18.216  0.00  0.00    +0.088 A 
ATOM     19  C   UNL     1      -3.654 -10.891  16.822  0.00  0.00    +0.047 A 
ATOM     23  C   UNL     1      -4.697 -10.722  14.651  0.00  0.00    +0.010 A 
ATOM     25  C   UNL     1      -2.374 -10.780  16.266  0.00  0.00    +0.026 A 
ATOM     26  C   UNL     1      -3.423 -10.611  14.082  0.00  0.00    +0.001 A 
ATOM     27  C   UNL     1      -2.281 -10.640  14.879  0.00  0.00    +0.002 A 
ATOM     30  H   UNL     1      -3.413 -11.087  18.922  0.00  0.00    +0.165 HD
ENDBRANCH  12  14
ENDBRANCH   5  12
TORSDOF 5
ENDMDL
MODEL 6
REMARK VINA RESULT:      -7.0     30.335     33.588
REMARK  Name = 51137137
REMARK  6 active torsions:
REMARK  status: ('A' for Active; 'I' for Inactive)
REMARK    1  A    between atoms: S_1  and  C_21
REMARK    2  A    between atoms: S_1  and  C_28
REMARK    3  A    between atoms: N_5  and  C_12
REMARK    4  A    between atoms: C_8  and  C_13
REMARK    5  A    between atoms: C_12  and  C_14
REMARK    6  A    between atoms: C_28  and  C_29
REMARK                            x       y       z     vdW  Elec       q    Type
REMARK                         _______ _______ _______ _____ _____    ______ ____
ROOT
ATOM      5  N   UNL     1     -10.369  -8.266  16.498  0.00  0.00    -0.297 NA
ATOM      8  C   UNL     1     -12.005  -6.671  15.971  0.00  0.00    +0.090 C 
ATOM      9  C   UNL     1     -10.526  -7.017  15.751  0.00  0.00    +0.097 C 
ATOM     10  C   UNL     1     -12.680  -8.020  16.273  0.00  0.00    +0.029 C 
ATOM     11  C   UNL     1     -11.560  -9.051  16.179  0.00  0.00    +0.085 C 
ENDROOT
BRANCH   8  13
ATOM      2  O   UNL     1     -11.740  -5.161  14.078  0.00  0.00    -0.439 OA
ATOM      6  N   UNL     1     -13.867  -5.857  14.438  0.00  0.00    -0.213 NA
ATOM     13  C   UNL     1     -12.609  -5.903  14.819  0.00  0.00    +0.201 A 
ATOM     16  C   UNL     1     -13.837  -5.015  13.351  0.00  0.00    +0.111 A 
ATOM     17  C   UNL     1     -12.536  -4.587  13.129  0.00  0.00    +0.155 A 
ATOM     20  C   UNL     1     -14.855  -4.562  12.501  0.00  0.00    +0.058 A 
ATOM     21  C   UNL     1     -14.505  -3.691  11.460  0.00  0.00    +0.090 A 
ATOM     22  C   UNL     1     -12.151  -3.726  12.109  0.00  0.00    +0.050 A 
ATOM     24  C   UNL     1     -13.178  -3.282  11.270  0.00  0.00    +0.030 A 
BRANCH  21   1
ATOM      1  S   UNL     1     -15.748  -3.106  10.377  0.00  0.00    -0.003 S 
ATOM      3  O   UNL     1     -16.806  -4.101  10.296  0.00  0.00    -0.169 OA
ATOM      4  O   UNL     1     -16.066  -1.739  10.762  0.00  0.00    -0.169 OA
BRANCH   1  28
ATOM     28  C   UNL     1     -14.957  -3.058   8.785  0.00  0.00    +0.168 C 
ATOM     29  C   UNL     1     -14.853  -4.439   8.177  0.00  0.00    +0.028 C 
ENDBRANCH   1  28
ENDBRANCH  21   1
ENDBRANCH   8  13
BRANCH   5  12
ATOM     12  C   UNL     1      -9.138  -8.965  16.158  0.00  0.00    +0.121 C 
BRANCH  12  14
ATOM      7  N   UNL     1      -8.315 -10.620  19.340  0.00  0.00    -0.360 N 
ATOM     14  C   UNL     1      -8.534  -9.652  17.354  0.00  0.00    -0.008 A 
ATOM     15  C   UNL     1      -7.171 -10.024  17.520  0.00  0.00    +0.004 A 
ATOM     18  C   UNL     1      -9.213 -10.031  18.490  0.00  0.00    +0.088 A 
ATOM     19  C   UNL     1      -7.060 -10.630  18.774  0.00  0.00    +0.047 A 
ATOM     23  C   UNL     1      -6.017  -9.903  16.720  0.00  0.00    +0.010 A 
ATOM     25  C   UNL     1      -5.847 -11.122  19.269  0.00  0.00    +0.026 A 
ATOM     26  C   UNL     1      -4.797 -10.392  17.203  0.00  0.00    +0.001 A 
ATOM     27  C   UNL     1      -4.717 -10.992  18.459  0.00  0.00    +0.002 A 
ATOM     30  H   UNL     1      -8.539 -10.994  20.252  0.00  0.00    +0.165 HD
ENDBRANCH  12  14
ENDBRANCH   5  12
TORSDOF 5
ENDMDL
MODEL 7
REMARK VINA RESULT:      -6.8      1.887      2.645
REMARK  Name = 51137137
REMARK  6 active torsions:
REMARK  status: ('A' for Active; 'I' for Inactive)
REMARK    1  A    between atoms: S_1  and  C_21
REMARK    2  A    between atoms: S_1  and  C_28
REMARK    3  A    between atoms: N_5  and  C_12
REMARK    4  A    between atoms: C_8  and  C_13
REMARK    5  A    between atoms: C_12  and  C_14
REMARK    6  A    between atoms: C_28  and  C_29
REMARK                            x       y       z     vdW  Elec       q    Type
REMARK                         _______ _______ _______ _____ _____    ______ ____
ROOT
ATOM      5  N   UNL     1      22.397   5.921  22.201  0.00  0.00    -0.297 NA
ATOM      8  C   UNL     1      20.599   6.301  20.743  0.00  0.00    +0.090 C 
ATOM      9  C   UNL     1      20.993   5.548  22.022  0.00  0.00    +0.097 C 
ATOM     10  C   UNL     1      21.580   7.485  20.672  0.00  0.00    +0.029 C 
ATOM     11  C   UNL     1      22.446   7.355  21.919  0.00  0.00    +0.085 C 
ENDROOT
BRANCH   8  13
ATOM      2  O   UNL     1      18.393   6.099  19.730  0.00  0.00    -0.439 OA
ATOM      6  N   UNL     1      18.491   7.508  21.504  0.00  0.00    -0.213 NA
ATOM     13  C   UNL     1      19.138   6.683  20.709  0.00  0.00    +0.201 A 
ATOM     16  C   UNL     1      17.206   7.473  21.015  0.00  0.00    +0.111 A 
ATOM     17  C   UNL     1      17.144   6.612  19.929  0.00  0.00    +0.155 A 
ATOM     20  C   UNL     1      16.039   8.133  21.426  0.00  0.00    +0.058 A 
ATOM     21  C   UNL     1      14.858   7.887  20.712  0.00  0.00    +0.090 A 
ATOM     22  C   UNL     1      15.993   6.343  19.199  0.00  0.00    +0.050 A 
ATOM     24  C   UNL     1      14.838   7.009  19.620  0.00  0.00    +0.030 A 
BRANCH  21   1
ATOM      1  S   UNL     1      13.381   8.691  21.197  0.00  0.00    -0.003 S 
ATOM      3  O   UNL     1      12.600   7.780  22.021  0.00  0.00    -0.169 OA
ATOM      4  O   UNL     1      13.738  10.006  21.707  0.00  0.00    -0.169 OA
BRANCH   1  28
ATOM     28  C   UNL     1      12.485   8.915  19.677  0.00  0.00    +0.168 C 
ATOM     29  C   UNL     1      11.021   8.576  19.843  0.00  0.00    +0.028 C 
ENDBRANCH   1  28
ENDBRANCH  21   1
ENDBRANCH   8  13
BRANCH   5  12
ATOM     12  C   UNL     1      22.891   5.601  23.532  0.00  0.00    +0.121 C 
BRANCH  12  14
ATOM      7  N   UNL     1      23.348   2.099  24.564  0.00  0.00    -0.360 N 
ATOM     14  C   UNL     1      23.176   4.131  23.686  0.00  0.00    -0.008 A 
ATOM     15  C   UNL     1      23.713   3.263  22.696  0.00  0.00    +0.004 A 
ATOM     18  C   UNL     1      22.963   3.387  24.825  0.00  0.00    +0.088 A 
ATOM     19  C   UNL     1      23.811   1.994  23.271  0.00  0.00    +0.047 A 
ATOM     23  C   UNL     1      24.127   3.435  21.359  0.00  0.00    +0.010 A 
ATOM     25  C   UNL     1      24.303   0.884  22.574  0.00  0.00    +0.026 A 
ATOM     26  C   UNL     1      24.621   2.334  20.650  0.00  0.00    +0.001 A 
ATOM     27  C   UNL     1      24.707   1.080  21.251  0.00  0.00    +0.002 A 
ATOM     30  H   UNL     1      23.302   1.335  25.224  0.00  0.00    +0.165 HD
ENDBRANCH  12  14
ENDBRANCH   5  12
TORSDOF 5
ENDMDL
MODEL 8
REMARK VINA RESULT:      -6.8      1.522      2.011
REMARK  Name = 51137137
REMARK  6 active torsions:
REMARK  status: ('A' for Active; 'I' for Inactive)
REMARK    1  A    between atoms: S_1  and  C_21
REMARK    2  A    between atoms: S_1  and  C_28
REMARK    3  A    between atoms: N_5  and  C_12
REMARK    4  A    between atoms: C_8  and  C_13
REMARK    5  A    between atoms: C_12  and  C_14
REMARK    6  A    between atoms: C_28  and  C_29
REMARK                            x       y       z     vdW  Elec       q    Type
REMARK                         _______ _______ _______ _____ _____    ______ ____
ROOT
ATOM      5  N   UNL     1      22.717   4.200  21.313  0.00  0.00    -0.297 NA
ATOM      8  C   UNL     1      21.207   5.994  21.360  0.00  0.00    +0.090 C 
ATOM      9  C   UNL     1      21.708   4.848  20.472  0.00  0.00    +0.097 C 
ATOM     10  C   UNL     1      21.500   5.529  22.798  0.00  0.00    +0.029 C 
ATOM     11  C   UNL     1      22.118   4.143  22.646  0.00  0.00    +0.085 C 
ENDROOT
BRANCH   8  13
ATOM      2  O   UNL     1      19.186   5.753  20.021  0.00  0.00    -0.439 OA
ATOM      6  N   UNL     1      18.998   7.194  21.761  0.00  0.00    -0.213 NA
ATOM     13  C   UNL     1      19.767   6.362  21.093  0.00  0.00    +0.201 A 
ATOM     16  C   UNL     1      17.805   7.138  21.081  0.00  0.00    +0.111 A 
ATOM     17  C   UNL     1      17.917   6.256  20.015  0.00  0.00    +0.155 A 
ATOM     20  C   UNL     1      16.584   7.793  21.293  0.00  0.00    +0.058 A 
ATOM     21  C   UNL     1      15.529   7.523  20.410  0.00  0.00    +0.090 A 
ATOM     22  C   UNL     1      16.896   5.963  19.121  0.00  0.00    +0.050 A 
ATOM     24  C   UNL     1      15.685   6.625  19.345  0.00  0.00    +0.030 A 
BRANCH  21   1
ATOM      1  S   UNL     1      13.990   8.320  20.645  0.00  0.00    -0.003 S 
ATOM      3  O   UNL     1      13.488   7.991  21.970  0.00  0.00    -0.169 OA
ATOM      4  O   UNL     1      14.147   9.713  20.253  0.00  0.00    -0.169 OA
BRANCH   1  28
ATOM     28  C   UNL     1      12.907   7.538  19.470  0.00  0.00    +0.168 C 
ATOM     29  C   UNL     1      11.742   8.433  19.110  0.00  0.00    +0.028 C 
ENDBRANCH   1  28
ENDBRANCH  21   1
ENDBRANCH   8  13
BRANCH   5  12
ATOM     12  C   UNL     1      23.089   2.883  20.818  0.00  0.00    +0.121 C 
BRANCH  12  14
ATOM      7  N   UNL     1      26.741   2.501  21.063  0.00  0.00    -0.360 N 
ATOM     14  C   UNL     1      24.523   2.549  21.136  0.00  0.00    -0.008 A 
ATOM     15  C   UNL     1      24.982   1.670  22.156  0.00  0.00    +0.004 A 
ATOM     18  C   UNL     1      25.627   3.044  20.480  0.00  0.00    +0.088 A 
ATOM     19  C   UNL     1      26.378   1.658  22.089  0.00  0.00    +0.047 A 
ATOM     23  C   UNL     1      24.343   0.881  23.133  0.00  0.00    +0.010 A 
ATOM     25  C   UNL     1      27.168   0.894  22.955  0.00  0.00    +0.026 A 
ATOM     26  C   UNL     1      25.121   0.113  24.006  0.00  0.00    +0.001 A 
ATOM     27  C   UNL     1      26.512   0.121  23.916  0.00  0.00    +0.002 A 
ATOM     30  H   UNL     1      27.693   2.690  20.782  0.00  0.00    +0.165 HD
ENDBRANCH  12  14
ENDBRANCH   5  12
TORSDOF 5
ENDMDL
MODEL 9
REMARK VINA RESULT:      -6.8     28.294     31.772
REMARK  Name = 51137137
REMARK  6 active torsions:
REMARK  status: ('A' for Active; 'I' for Inactive)
REMARK    1  A    between atoms: S_1  and  C_21
REMARK    2  A    between atoms: S_1  and  C_28
REMARK    3  A    between atoms: N_5  and  C_12
REMARK    4  A    between atoms: C_8  and  C_13
REMARK    5  A    between atoms: C_12  and  C_14
REMARK    6  A    between atoms: C_28  and  C_29
REMARK                            x       y       z     vdW  Elec       q    Type
REMARK                         _______ _______ _______ _____ _____    ______ ____
ROOT
ATOM      5  N   UNL     1      -4.508 -11.536  17.355  0.00  0.00    -0.297 NA
ATOM      8  C   UNL     1      -6.189 -10.528  18.643  0.00  0.00    +0.090 C 
ATOM      9  C   UNL     1      -5.781 -10.830  17.195  0.00  0.00    +0.097 C 
ATOM     10  C   UNL     1      -5.471 -11.601  19.481  0.00  0.00    +0.029 C 
ATOM     11  C   UNL     1      -4.726 -12.461  18.466  0.00  0.00    +0.085 C 
ENDROOT
BRANCH   8  13
ATOM      2  O   UNL     1      -8.383  -9.792  17.881  0.00  0.00    -0.439 OA
ATOM      6  N   UNL     1      -8.407 -10.992  19.804  0.00  0.00    -0.213 NA
ATOM     13  C   UNL     1      -7.687 -10.471  18.835  0.00  0.00    +0.201 A 
ATOM     16  C   UNL     1      -9.691 -10.632  19.471  0.00  0.00    +0.111 A 
ATOM     17  C   UNL     1      -9.680  -9.897  18.295  0.00  0.00    +0.155 A 
ATOM     20  C   UNL     1     -10.918 -10.883  20.102  0.00  0.00    +0.058 A 
ATOM     21  C   UNL     1     -12.081 -10.373  19.508  0.00  0.00    +0.090 A 
ATOM     22  C   UNL     1     -10.809  -9.377  17.676  0.00  0.00    +0.050 A 
ATOM     24  C   UNL     1     -12.025  -9.634  18.318  0.00  0.00    +0.030 A 
BRANCH  21   1
ATOM      1  S   UNL     1     -13.630 -10.667  20.265  0.00  0.00    -0.003 S 
ATOM      3  O   UNL     1     -13.512 -11.824  21.140  0.00  0.00    -0.169 OA
ATOM      4  O   UNL     1     -14.112  -9.401  20.797  0.00  0.00    -0.169 OA
BRANCH   1  28
ATOM     28  C   UNL     1     -14.694 -11.138  18.920  0.00  0.00    +0.168 C 
ATOM     29  C   UNL     1     -14.446 -12.567  18.493  0.00  0.00    +0.028 C 
ENDBRANCH   1  28
ENDBRANCH  21   1
ENDBRANCH   8  13
BRANCH   5  12
ATOM     12  C   UNL     1      -4.097 -12.220  16.138  0.00  0.00    +0.121 C 
BRANCH  12  14
ATOM      7  N   UNL     1      -1.529  -9.985  14.742  0.00  0.00    -0.360 N 
ATOM     14  C   UNL     1      -3.158 -11.380  15.313  0.00  0.00    -0.008 A 
ATOM     15  C   UNL     1      -3.148 -11.264  13.895  0.00  0.00    +0.004 A 
ATOM     18  C   UNL     1      -2.151 -10.582  15.806  0.00  0.00    +0.088 A 
ATOM     19  C   UNL     1      -2.116 -10.383  13.562  0.00  0.00    +0.047 A 
ATOM     23  C   UNL     1      -3.920 -11.827  12.859  0.00  0.00    +0.010 A 
ATOM     25  C   UNL     1      -1.817 -10.036  12.240  0.00  0.00    +0.026 A 
ATOM     26  C   UNL     1      -3.631 -11.488  11.532  0.00  0.00    +0.001 A 
ATOM     27  C   UNL     1      -2.595 -10.606  11.230  0.00  0.00    +0.002 A 
ATOM     30  H   UNL     1      -0.750  -9.343  14.811  0.00  0.00    +0.165 HD
ENDBRANCH  12  14
ENDBRANCH   5  12
TORSDOF 5
ENDMDL
MODEL 10
REMARK VINA RESULT:      -6.7     29.052     31.679
REMARK  Name = 51137137
REMARK  6 active torsions:
REMARK  status: ('A' for Active; 'I' for Inactive)
REMARK    1  A    between atoms: S_1  and  C_21
REMARK    2  A    between atoms: S_1  and  C_28
REMARK    3  A    between atoms: N_5  and  C_12
REMARK    4  A    between atoms: C_8  and  C_13
REMARK    5  A    between atoms: C_12  and  C_14
REMARK    6  A    between atoms: C_28  and  C_29
REMARK                            x       y       z     vdW  Elec       q    Type
REMARK                         _______ _______ _______ _____ _____    ______ ____
ROOT
ATOM      5  N   UNL     1      -4.402 -10.771  15.254  0.00  0.00    -0.297 NA
ATOM      8  C   UNL     1      -5.910  -9.633  16.643  0.00  0.00    +0.090 C 
ATOM      9  C   UNL     1      -5.776 -10.267  15.252  0.00  0.00    +0.097 C 
ATOM     10  C   UNL     1      -4.866 -10.364  17.506  0.00  0.00    +0.029 C 
ATOM     11  C   UNL     1      -4.225 -11.382  16.570  0.00  0.00    +0.085 C 
ENDROOT
BRANCH   8  13
ATOM      2  O   UNL     1      -8.211  -8.832  16.592  0.00  0.00    -0.439 OA
ATOM      6  N   UNL     1      -7.805 -10.436  18.142  0.00  0.00    -0.213 NA
ATOM     13  C   UNL     1      -7.322  -9.681  17.180  0.00  0.00    +0.201 A 
ATOM     16  C   UNL     1      -9.126 -10.062  18.204  0.00  0.00    +0.111 A 
ATOM     17  C   UNL     1      -9.378  -9.080  17.256  0.00  0.00    +0.155 A 
ATOM     20  C   UNL     1     -10.177 -10.498  19.024  0.00  0.00    +0.058 A 
ATOM     21  C   UNL     1     -11.439  -9.914  18.844  0.00  0.00    +0.090 A 
ATOM     22  C   UNL     1     -10.613  -8.479  17.049  0.00  0.00    +0.050 A 
ATOM     24  C   UNL     1     -11.650  -8.924  17.876  0.00  0.00    +0.030 A 
BRANCH  21   1
ATOM      1  S   UNL     1     -12.774 -10.434  19.848  0.00  0.00    -0.003 S 
ATOM      3  O   UNL     1     -12.537 -11.806  20.270  0.00  0.00    -0.169 OA
ATOM      4  O   UNL     1     -13.010  -9.399  20.844  0.00  0.00    -0.169 OA
BRANCH   1  28
ATOM     28  C   UNL     1     -14.168 -10.462  18.744  0.00  0.00    +0.168 C 
ATOM     29  C   UNL     1     -15.235  -9.482  19.175  0.00  0.00    +0.028 C 
ENDBRANCH   1  28
ENDBRANCH  21   1
ENDBRANCH   8  13
BRANCH   5  12
ATOM     12  C   UNL     1      -4.153 -11.708  14.169  0.00  0.00    +0.121 C 
BRANCH  12  14
ATOM      7  N   UNL     1      -1.790 -10.413  11.664  0.00  0.00    -0.360 N 
ATOM     14  C   UNL     1      -3.419 -11.061  13.024  0.00  0.00    -0.008 A 
ATOM     15  C   UNL     1      -3.992 -10.271  11.989  0.00  0.00    +0.004 A 
ATOM     18  C   UNL     1      -2.064 -11.130  12.798  0.00  0.00    +0.088 A 
ATOM     19  C   UNL     1      -2.948  -9.878  11.148  0.00  0.00    +0.047 A 
ATOM     23  C   UNL     1      -5.303  -9.853  11.685  0.00  0.00    +0.010 A 
ATOM     25  C   UNL     1      -3.151  -9.083  10.014  0.00  0.00    +0.026 A 
ATOM     26  C   UNL     1      -5.521  -9.058  10.553  0.00  0.00    +0.001 A 
ATOM     27  C   UNL     1      -4.460  -8.680   9.733  0.00  0.00    +0.002 A 
ATOM     30  H   UNL     1      -0.870 -10.293  11.262  0.00  0.00    +0.165 HD
ENDBRANCH  12  14
ENDBRANCH   5  12
TORSDOF 5
ENDMDL
