MODEL 1
REMARK VINA RESULT:      -7.8      0.000      0.000
REMARK  Name = 11882559
REMARK  14 active torsions:
REMARK  status: ('A' for Active; 'I' for Inactive)
REMARK    1  A    between atoms: S_1  and  C_35
REMARK    2  A    between atoms: S_1  and  C_39
REMARK    3  A    between atoms: O_2  and  C_13
REMARK    4  A    between atoms: O_3  and  C_16
REMARK    5  A    between atoms: O_4  and  C_18
REMARK    6  A    between atoms: O_8  and  C_27
REMARK    7  A    between atoms: O_8  and  C_38
REMARK    8  A    between atoms: N_9  and  C_14
REMARK    9  A    between atoms: N_10  and  C_20
REMARK   10  A    between atoms: C_13  and  C_19
REMARK   11  A    between atoms: C_20  and  C_22
REMARK   12  A    between atoms: C_20  and  C_25
REMARK   13  A    between atoms: C_21  and  C_23
REMARK   14  A    between atoms: C_22  and  C_24
REMARK                            x       y       z     vdW  Elec       q    Type
REMARK                         _______ _______ _______ _____ _____    ______ ____
ROOT
ATOM     13  C   UNL     1      15.503   6.948  20.457  0.00  0.00    +0.146 C 
ATOM     14  C   UNL     1      17.916   7.013  21.252  0.00  0.00    +0.107 C 
ATOM     15  C   UNL     1      16.592   7.777  21.142  0.00  0.00    +0.069 C 
ATOM     16  C   UNL     1      18.379   6.474  19.891  0.00  0.00    +0.163 C 
ATOM     17  C   UNL     1      15.970   6.435  19.096  0.00  0.00    +0.078 C 
ATOM     18  C   UNL     1      17.286   5.663  19.193  0.00  0.00    +0.148 C 
ENDROOT
BRANCH  13  19
ATOM      5  O   UNL     1      14.119   8.595  19.418  0.00  0.00    -0.273 OA
ATOM     10  N   UNL     1      13.303   7.441  21.268  0.00  0.00    -0.301 N 
ATOM     19  C   UNL     1      14.245   7.753  20.303  0.00  0.00    +0.246 C 
ATOM     44  H   UNL     1      13.470   6.648  21.881  0.00  0.00    +0.150 HD
BRANCH  10  20
ATOM     20  C   UNL     1      12.015   8.091  21.353  0.00  0.00    +0.163 C 
BRANCH  20  25
ATOM      7  O   UNL     1      11.146   5.852  20.978  0.00  0.00    -0.274 OA
ATOM     12  N   UNL     1       9.791   7.399  22.002  0.00  0.00    -0.328 N 
ATOM     25  C   UNL     1      10.961   6.992  21.397  0.00  0.00    +0.231 C 
ATOM     46  H   UNL     1       9.010   6.759  22.108  0.00  0.00    +0.145 HD
ATOM     47  H   UNL     1       9.661   8.338  22.365  0.00  0.00    +0.145 HD
ENDBRANCH  20  25
BRANCH  20  22
ATOM     22  C   UNL     1      11.897   8.991  22.589  0.00  0.00    +0.069 C 
BRANCH  22  24
ATOM     11  N   UNL     1      11.683  12.304  21.068  0.00  0.00    -0.360 N 
ATOM     24  C   UNL     1      11.721  10.447  22.223  0.00  0.00    -0.020 A 
ATOM     26  C   UNL     1      11.296  11.460  23.096  0.00  0.00    +0.003 A 
ATOM     28  C   UNL     1      11.954  10.965  20.992  0.00  0.00    +0.087 A 
ATOM     30  C   UNL     1      11.278  12.634  22.342  0.00  0.00    +0.047 A 
ATOM     31  C   UNL     1      10.920  11.519  24.453  0.00  0.00    +0.010 A 
ATOM     34  C   UNL     1      10.901  13.871  22.878  0.00  0.00    +0.026 A 
ATOM     36  C   UNL     1      10.540  12.749  25.003  0.00  0.00    +0.001 A 
ATOM     37  C   UNL     1      10.532  13.905  24.226  0.00  0.00    +0.002 A 
ATOM     45  H   UNL     1      11.765  12.957  20.300  0.00  0.00    +0.165 HD
ENDBRANCH  22  24
ENDBRANCH  20  22
ENDBRANCH  10  20
ENDBRANCH  13  19
BRANCH  14   9
ATOM      6  O   UNL     1      19.960   6.234  23.110  0.00  0.00    -0.270 OA
ATOM      9  N   UNL     1      18.927   7.869  21.831  0.00  0.00    -0.306 N 
ATOM     21  C   UNL     1      19.875   7.397  22.724  0.00  0.00    +0.248 C 
ATOM     40  H   UNL     1      18.846   8.864  21.649  0.00  0.00    +0.149 HD
BRANCH  21  23
ATOM     23  C   UNL     1      20.828   8.408  23.248  0.00  0.00    +0.078 A 
ATOM     27  C   UNL     1      21.604   9.141  22.373  0.00  0.00    +0.133 A 
ATOM     29  C   UNL     1      20.906   8.579  24.616  0.00  0.00    +0.018 A 
ATOM     32  C   UNL     1      22.493  10.084  22.885  0.00  0.00    +0.061 A 
ATOM     33  C   UNL     1      21.796   9.523  25.130  0.00  0.00    +0.015 A 
ATOM     35  C   UNL     1      22.590  10.276  24.264  0.00  0.00    +0.011 A 
BRANCH  35   1
ATOM      1  S   UNL     1      23.726  11.481  24.920  0.00  0.00    -0.128 S 
ATOM     39  C   UNL     1      23.044  11.770  26.576  0.00  0.00    +0.090 C 
ENDBRANCH  35   1
BRANCH  27   8
ATOM      8  O   UNL     1      21.524   8.969  21.023  0.00  0.00    -0.494 OA
ATOM     38  C   UNL     1      22.472   8.086  20.426  0.00  0.00    +0.277 C 
ENDBRANCH  27   8
ENDBRANCH  21  23
ENDBRANCH  14   9
BRANCH  13   2
ATOM      2  O   UNL     1      15.134   5.840  21.269  0.00  0.00    -0.379 OA
ATOM     41  H   UNL     1      15.943   5.441  21.631  0.00  0.00    +0.211 HD
ENDBRANCH  13   2
BRANCH  16   3
ATOM      3  O   UNL     1      19.501   5.608  20.090  0.00  0.00    -0.387 OA
ATOM     42  H   UNL     1      19.381   5.162  20.944  0.00  0.00    +0.210 HD
ENDBRANCH  16   3
BRANCH  18   4
ATOM      4  O   UNL     1      17.732   5.345  17.874  0.00  0.00    -0.389 OA
ATOM     43  H   UNL     1      17.559   6.117  17.310  0.00  0.00    +0.210 HD
ENDBRANCH  18   4
TORSDOF 12
ENDMDL
MODEL 2
REMARK VINA RESULT:      -7.6      1.579      2.546
REMARK  Name = 11882559
REMARK  14 active torsions:
REMARK  status: ('A' for Active; 'I' for Inactive)
REMARK    1  A    between atoms: S_1  and  C_35
REMARK    2  A    between atoms: S_1  and  C_39
REMARK    3  A    between atoms: O_2  and  C_13
REMARK    4  A    between atoms: O_3  and  C_16
REMARK    5  A    between atoms: O_4  and  C_18
REMARK    6  A    between atoms: O_8  and  C_27
REMARK    7  A    between atoms: O_8  and  C_38
REMARK    8  A    between atoms: N_9  and  C_14
REMARK    9  A    between atoms: N_10  and  C_20
REMARK   10  A    between atoms: C_13  and  C_19
REMARK   11  A    between atoms: C_20  and  C_22
REMARK   12  A    between atoms: C_20  and  C_25
REMARK   13  A    between atoms: C_21  and  C_23
REMARK   14  A    between atoms: C_22  and  C_24
REMARK                            x       y       z     vdW  Elec       q    Type
REMARK                         _______ _______ _______ _____ _____    ______ ____
ROOT
ATOM     13  C   UNL     1      15.969   7.274  20.503  0.00  0.00    +0.146 C 
ATOM     14  C   UNL     1      18.372   6.922  21.254  0.00  0.00    +0.107 C 
ATOM     15  C   UNL     1      17.208   7.912  21.137  0.00  0.00    +0.069 C 
ATOM     16  C   UNL     1      18.696   6.261  19.907  0.00  0.00    +0.163 C 
ATOM     17  C   UNL     1      16.302   6.638  19.155  0.00  0.00    +0.078 C 
ATOM     18  C   UNL     1      17.456   5.641  19.258  0.00  0.00    +0.148 C 
ENDROOT
BRANCH  13  19
ATOM      5  O   UNL     1      14.688   9.177  21.168  0.00  0.00    -0.273 OA
ATOM     10  N   UNL     1      14.134   8.082  19.190  0.00  0.00    -0.301 N 
ATOM     19  C   UNL     1      14.877   8.291  20.340  0.00  0.00    +0.246 C 
ATOM     44  H   UNL     1      14.450   7.386  18.520  0.00  0.00    +0.150 HD
BRANCH  10  20
ATOM     20  C   UNL     1      13.011   8.909  18.814  0.00  0.00    +0.163 C 
BRANCH  20  25
ATOM      7  O   UNL     1      13.276   8.207  16.502  0.00  0.00    -0.274 OA
ATOM     12  N   UNL     1      12.888  10.429  16.939  0.00  0.00    -0.328 N 
ATOM     25  C   UNL     1      13.092   9.116  17.308  0.00  0.00    +0.231 C 
ATOM     46  H   UNL     1      12.903  10.703  15.962  0.00  0.00    +0.145 HD
ATOM     47  H   UNL     1      12.713  11.166  17.614  0.00  0.00    +0.145 HD
ENDBRANCH  20  25
BRANCH  20  22
ATOM     22  C   UNL     1      11.667   8.273  19.193  0.00  0.00    +0.069 C 
BRANCH  22  24
ATOM     11  N   UNL     1      10.602   8.233  22.685  0.00  0.00    -0.360 N 
ATOM     24  C   UNL     1      11.293   8.539  20.632  0.00  0.00    -0.020 A 
ATOM     26  C   UNL     1      11.380   9.781  21.280  0.00  0.00    +0.003 A 
ATOM     28  C   UNL     1      10.820   7.601  21.490  0.00  0.00    +0.087 A 
ATOM     30  C   UNL     1      10.935   9.565  22.586  0.00  0.00    +0.047 A 
ATOM     31  C   UNL     1      11.788  11.077  20.908  0.00  0.00    +0.010 A 
ATOM     34  C   UNL     1      10.879  10.584  23.544  0.00  0.00    +0.026 A 
ATOM     36  C   UNL     1      11.737  12.107  21.855  0.00  0.00    +0.001 A 
ATOM     37  C   UNL     1      11.289  11.862  23.151  0.00  0.00    +0.002 A 
ATOM     45  H   UNL     1      10.248   7.786  23.520  0.00  0.00    +0.165 HD
ENDBRANCH  22  24
ENDBRANCH  20  22
ENDBRANCH  10  20
ENDBRANCH  13  19
BRANCH  14   9
ATOM      6  O   UNL     1      20.250   5.866  23.149  0.00  0.00    -0.270 OA
ATOM      9  N   UNL     1      19.536   7.597  21.783  0.00  0.00    -0.306 N 
ATOM     21  C   UNL     1      20.387   7.000  22.698  0.00  0.00    +0.248 C 
ATOM     40  H   UNL     1      19.646   8.577  21.545  0.00  0.00    +0.149 HD
BRANCH  21  23
ATOM     23  C   UNL     1      21.523   7.834  23.164  0.00  0.00    +0.078 A 
ATOM     27  C   UNL     1      22.569   8.113  22.307  0.00  0.00    +0.133 A 
ATOM     29  C   UNL     1      21.492   8.309  24.461  0.00  0.00    +0.018 A 
ATOM     32  C   UNL     1      23.626   8.898  22.763  0.00  0.00    +0.061 A 
ATOM     33  C   UNL     1      22.550   9.094  24.919  0.00  0.00    +0.015 A 
ATOM     35  C   UNL     1      23.618   9.388  24.070  0.00  0.00    +0.011 A 
BRANCH  35   1
ATOM      1  S   UNL     1      24.970  10.391  24.654  0.00  0.00    -0.128 S 
ATOM     39  C   UNL     1      25.002   9.976  26.420  0.00  0.00    +0.090 C 
ENDBRANCH  35   1
BRANCH  27   8
ATOM      8  O   UNL     1      22.595   7.642  21.028  0.00  0.00    -0.494 OA
ATOM     38  C   UNL     1      22.579   8.611  19.981  0.00  0.00    +0.277 C 
ENDBRANCH  27   8
ENDBRANCH  21  23
ENDBRANCH  14   9
BRANCH  13   2
ATOM      2  O   UNL     1      15.424   6.282  21.363  0.00  0.00    -0.379 OA
ATOM     41  H   UNL     1      15.719   6.465  22.271  0.00  0.00    +0.211 HD
ENDBRANCH  13   2
BRANCH  16   3
ATOM      3  O   UNL     1      19.645   5.211  20.119  0.00  0.00    -0.387 OA
ATOM     42  H   UNL     1      19.267   4.600  20.772  0.00  0.00    +0.210 HD
ENDBRANCH  16   3
BRANCH  18   4
ATOM      4  O   UNL     1      17.805   5.202  17.945  0.00  0.00    -0.389 OA
ATOM     43  H   UNL     1      18.443   5.838  17.581  0.00  0.00    +0.210 HD
ENDBRANCH  18   4
TORSDOF 12
ENDMDL
MODEL 3
REMARK VINA RESULT:      -7.1     29.314     31.542
REMARK  Name = 11882559
REMARK  14 active torsions:
REMARK  status: ('A' for Active; 'I' for Inactive)
REMARK    1  A    between atoms: S_1  and  C_35
REMARK    2  A    between atoms: S_1  and  C_39
REMARK    3  A    between atoms: O_2  and  C_13
REMARK    4  A    between atoms: O_3  and  C_16
REMARK    5  A    between atoms: O_4  and  C_18
REMARK    6  A    between atoms: O_8  and  C_27
REMARK    7  A    between atoms: O_8  and  C_38
REMARK    8  A    between atoms: N_9  and  C_14
REMARK    9  A    between atoms: N_10  and  C_20
REMARK   10  A    between atoms: C_13  and  C_19
REMARK   11  A    between atoms: C_20  and  C_22
REMARK   12  A    between atoms: C_20  and  C_25
REMARK   13  A    between atoms: C_21  and  C_23
REMARK   14  A    between atoms: C_22  and  C_24
REMARK                            x       y       z     vdW  Elec       q    Type
REMARK                         _______ _______ _______ _____ _____    ______ ____
ROOT
ATOM     13  C   UNL     1      -6.672 -10.742  18.874  0.00  0.00    +0.146 C 
ATOM     14  C   UNL     1      -4.928 -10.287  17.082  0.00  0.00    +0.107 C 
ATOM     15  C   UNL     1      -6.421 -10.314  17.426  0.00  0.00    +0.069 C 
ATOM     16  C   UNL     1      -4.243 -11.621  17.410  0.00  0.00    +0.163 C 
ATOM     17  C   UNL     1      -6.001 -12.079  19.181  0.00  0.00    +0.078 C 
ATOM     18  C   UNL     1      -4.509 -12.064  18.851  0.00  0.00    +0.148 C 
ENDROOT
BRANCH  13  19
ATOM      5  O   UNL     1      -8.592 -11.500  20.076  0.00  0.00    -0.273 OA
ATOM     10  N   UNL     1      -8.891 -10.087  18.250  0.00  0.00    -0.301 N 
ATOM     19  C   UNL     1      -8.144 -10.825  19.153  0.00  0.00    +0.246 C 
ATOM     44  H   UNL     1      -8.409  -9.477  17.595  0.00  0.00    +0.150 HD
BRANCH  10  20
ATOM     20  C   UNL     1     -10.334 -10.021  18.286  0.00  0.00    +0.163 C 
BRANCH  20  25
ATOM      7  O   UNL     1     -11.881  -8.382  17.376  0.00  0.00    -0.274 OA
ATOM     12  N   UNL     1      -9.678  -7.785  17.639  0.00  0.00    -0.328 N 
ATOM     25  C   UNL     1     -10.734  -8.670  17.707  0.00  0.00    +0.231 C 
ATOM     46  H   UNL     1      -9.811  -6.844  17.283  0.00  0.00    +0.145 HD
ATOM     47  H   UNL     1      -8.741  -8.030  17.939  0.00  0.00    +0.145 HD
ENDBRANCH  20  25
BRANCH  20  22
ATOM     22  C   UNL     1     -10.990 -11.157  17.492  0.00  0.00    +0.069 C 
BRANCH  22  24
ATOM     11  N   UNL     1      -8.690 -12.735  15.135  0.00  0.00    -0.360 N 
ATOM     24  C   UNL     1     -10.137 -11.611  16.330  0.00  0.00    -0.020 A 
ATOM     26  C   UNL     1     -10.131 -11.034  15.051  0.00  0.00    +0.003 A 
ATOM     28  C   UNL     1      -9.261 -12.644  16.377  0.00  0.00    +0.087 A 
ATOM     30  C   UNL     1      -9.203 -11.764  14.305  0.00  0.00    +0.047 A 
ATOM     31  C   UNL     1     -10.811  -9.967  14.431  0.00  0.00    +0.010 A 
ATOM     34  C   UNL     1      -8.920 -11.480  12.964  0.00  0.00    +0.026 A 
ATOM     36  C   UNL     1     -10.538  -9.671  13.090  0.00  0.00    +0.001 A 
ATOM     37  C   UNL     1      -9.607 -10.417  12.371  0.00  0.00    +0.002 A 
ATOM     45  H   UNL     1      -7.994 -13.417  14.866  0.00  0.00    +0.165 HD
ENDBRANCH  22  24
ENDBRANCH  20  22
ENDBRANCH  10  20
ENDBRANCH  13  19
BRANCH  14   9
ATOM      6  O   UNL     1      -5.773 -11.857  14.833  0.00  0.00    -0.270 OA
ATOM      9  N   UNL     1      -4.755  -9.956  15.685  0.00  0.00    -0.306 N 
ATOM     21  C   UNL     1      -5.201 -10.784  14.667  0.00  0.00    +0.248 C 
ATOM     40  H   UNL     1      -4.187  -9.144  15.472  0.00  0.00    +0.149 HD
BRANCH  21  23
ATOM     23  C   UNL     1      -4.924 -10.315  13.285  0.00  0.00    +0.078 A 
ATOM     27  C   UNL     1      -3.674 -10.511  12.730  0.00  0.00    +0.133 A 
ATOM     29  C   UNL     1      -5.942  -9.688  12.596  0.00  0.00    +0.018 A 
ATOM     32  C   UNL     1      -3.434 -10.063  11.432  0.00  0.00    +0.061 A 
ATOM     33  C   UNL     1      -5.702  -9.239  11.296  0.00  0.00    +0.015 A 
ATOM     35  C   UNL     1      -4.447  -9.426  10.715  0.00  0.00    +0.011 A 
BRANCH  35   1
ATOM      1  S   UNL     1      -4.141  -8.853   9.056  0.00  0.00    -0.128 S 
ATOM     39  C   UNL     1      -5.135 -10.011   8.075  0.00  0.00    +0.090 C 
ENDBRANCH  35   1
BRANCH  27   8
ATOM      8  O   UNL     1      -2.672 -11.131  13.415  0.00  0.00    -0.494 OA
ATOM     38  C   UNL     1      -2.135 -12.321  12.842  0.00  0.00    +0.277 C 
ENDBRANCH  27   8
ENDBRANCH  21  23
ENDBRANCH  14   9
BRANCH  13   2
ATOM      2  O   UNL     1      -6.181  -9.758  19.776  0.00  0.00    -0.379 OA
ATOM     41  H   UNL     1      -6.937  -9.255  20.124  0.00  0.00    +0.211 HD
ENDBRANCH  13   2
BRANCH  16   3
ATOM      3  O   UNL     1      -2.828 -11.469  17.258  0.00  0.00    -0.387 OA
ATOM     42  H   UNL     1      -2.428 -12.351  17.323  0.00  0.00    +0.210 HD
ENDBRANCH  16   3
BRANCH  18   4
ATOM      4  O   UNL     1      -3.985 -13.381  19.022  0.00  0.00    -0.389 OA
ATOM     43  H   UNL     1      -4.733 -13.976  19.199  0.00  0.00    +0.210 HD
ENDBRANCH  18   4
TORSDOF 12
ENDMDL
MODEL 4
REMARK VINA RESULT:      -7.1      1.588      2.451
REMARK  Name = 11882559
REMARK  14 active torsions:
REMARK  status: ('A' for Active; 'I' for Inactive)
REMARK    1  A    between atoms: S_1  and  C_35
REMARK    2  A    between atoms: S_1  and  C_39
REMARK    3  A    between atoms: O_2  and  C_13
REMARK    4  A    between atoms: O_3  and  C_16
REMARK    5  A    between atoms: O_4  and  C_18
REMARK    6  A    between atoms: O_8  and  C_27
REMARK    7  A    between atoms: O_8  and  C_38
REMARK    8  A    between atoms: N_9  and  C_14
REMARK    9  A    between atoms: N_10  and  C_20
REMARK   10  A    between atoms: C_13  and  C_19
REMARK   11  A    between atoms: C_20  and  C_22
REMARK   12  A    between atoms: C_20  and  C_25
REMARK   13  A    between atoms: C_21  and  C_23
REMARK   14  A    between atoms: C_22  and  C_24
REMARK                            x       y       z     vdW  Elec       q    Type
REMARK                         _______ _______ _______ _____ _____    ______ ____
ROOT
ATOM     13  C   UNL     1      15.569   6.920  20.467  0.00  0.00    +0.146 C 
ATOM     14  C   UNL     1      17.957   6.940  21.339  0.00  0.00    +0.107 C 
ATOM     15  C   UNL     1      16.645   7.721  21.205  0.00  0.00    +0.069 C 
ATOM     16  C   UNL     1      18.457   6.429  19.981  0.00  0.00    +0.163 C 
ATOM     17  C   UNL     1      16.074   6.434  19.110  0.00  0.00    +0.078 C 
ATOM     18  C   UNL     1      17.378   5.646  19.229  0.00  0.00    +0.148 C 
ENDROOT
BRANCH  13  19
ATOM      5  O   UNL     1      14.241   8.616  19.435  0.00  0.00    -0.273 OA
ATOM     10  N   UNL     1      13.343   7.406  21.209  0.00  0.00    -0.301 N 
ATOM     19  C   UNL     1      14.325   7.742  20.293  0.00  0.00    +0.246 C 
ATOM     44  H   UNL     1      13.479   6.591  21.801  0.00  0.00    +0.150 HD
BRANCH  10  20
ATOM     20  C   UNL     1      12.059   8.065  21.268  0.00  0.00    +0.163 C 
BRANCH  20  25
ATOM      7  O   UNL     1       9.981   7.150  22.137  0.00  0.00    -0.274 OA
ATOM     12  N   UNL     1      11.313   5.806  20.834  0.00  0.00    -0.328 N 
ATOM     25  C   UNL     1      11.010   6.983  21.486  0.00  0.00    +0.231 C 
ATOM     46  H   UNL     1      10.691   5.007  20.887  0.00  0.00    +0.145 HD
ATOM     47  H   UNL     1      12.155   5.691  20.280  0.00  0.00    +0.145 HD
ENDBRANCH  20  25
BRANCH  20  22
ATOM     22  C   UNL     1      11.990   9.109  22.389  0.00  0.00    +0.069 C 
BRANCH  22  24
ATOM     11  N   UNL     1      12.447  12.467  21.031  0.00  0.00    -0.360 N 
ATOM     24  C   UNL     1      12.448  10.474  21.932  0.00  0.00    -0.020 A 
ATOM     26  C   UNL     1      13.730  11.010  22.129  0.00  0.00    +0.003 A 
ATOM     28  C   UNL     1      11.672  11.363  21.264  0.00  0.00    +0.087 A 
ATOM     30  C   UNL     1      13.709  12.279  21.549  0.00  0.00    +0.047 A 
ATOM     31  C   UNL     1      14.919  10.563  22.739  0.00  0.00    +0.010 A 
ATOM     34  C   UNL     1      14.821  13.129  21.548  0.00  0.00    +0.026 A 
ATOM     36  C   UNL     1      16.040  11.401  22.747  0.00  0.00    +0.001 A 
ATOM     37  C   UNL     1      15.990  12.663  22.159  0.00  0.00    +0.002 A 
ATOM     45  H   UNL     1      12.138  13.301  20.550  0.00  0.00    +0.165 HD
ENDBRANCH  22  24
ENDBRANCH  20  22
ENDBRANCH  10  20
ENDBRANCH  13  19
BRANCH  14   9
ATOM      6  O   UNL     1      20.059   6.063  23.084  0.00  0.00    -0.270 OA
ATOM      9  N   UNL     1      18.958   7.772  21.970  0.00  0.00    -0.306 N 
ATOM     21  C   UNL     1      19.937   7.251  22.800  0.00  0.00    +0.248 C 
ATOM     40  H   UNL     1      18.847   8.775  21.874  0.00  0.00    +0.149 HD
BRANCH  21  23
ATOM     23  C   UNL     1      20.875   8.239  23.391  0.00  0.00    +0.078 A 
ATOM     27  C   UNL     1      20.967   8.364  24.763  0.00  0.00    +0.133 A 
ATOM     29  C   UNL     1      21.632   9.011  22.532  0.00  0.00    +0.018 A 
ATOM     32  C   UNL     1      21.852   9.298  25.298  0.00  0.00    +0.061 A 
ATOM     33  C   UNL     1      22.518   9.946  23.067  0.00  0.00    +0.015 A 
ATOM     35  C   UNL     1      22.628  10.090  24.451  0.00  0.00    +0.011 A 
BRANCH  35   1
ATOM      1  S   UNL     1      23.760  11.284  25.134  0.00  0.00    -0.128 S 
ATOM     39  C   UNL     1      23.624  10.947  26.912  0.00  0.00    +0.090 C 
ENDBRANCH  35   1
BRANCH  27   8
ATOM      8  O   UNL     1      20.217   7.600  25.607  0.00  0.00    -0.494 OA
ATOM     38  C   UNL     1      20.062   8.074  26.944  0.00  0.00    +0.277 C 
ENDBRANCH  27   8
ENDBRANCH  21  23
ENDBRANCH  14   9
BRANCH  13   2
ATOM      2  O   UNL     1      15.164   5.798  21.241  0.00  0.00    -0.379 OA
ATOM     41  H   UNL     1      15.934   5.220  21.372  0.00  0.00    +0.211 HD
ENDBRANCH  13   2
BRANCH  16   3
ATOM      3  O   UNL     1      19.563   5.546  20.193  0.00  0.00    -0.387 OA
ATOM     42  H   UNL     1      20.079   5.518  19.371  0.00  0.00    +0.210 HD
ENDBRANCH  16   3
BRANCH  18   4
ATOM      4  O   UNL     1      17.862   5.354  17.918  0.00  0.00    -0.389 OA
ATOM     43  H   UNL     1      18.529   6.025  17.693  0.00  0.00    +0.210 HD
ENDBRANCH  18   4
TORSDOF 12
ENDMDL
MODEL 5
REMARK VINA RESULT:      -7.1     29.264     31.544
REMARK  Name = 11882559
REMARK  14 active torsions:
REMARK  status: ('A' for Active; 'I' for Inactive)
REMARK    1  A    between atoms: S_1  and  C_35
REMARK    2  A    between atoms: S_1  and  C_39
REMARK    3  A    between atoms: O_2  and  C_13
REMARK    4  A    between atoms: O_3  and  C_16
REMARK    5  A    between atoms: O_4  and  C_18
REMARK    6  A    between atoms: O_8  and  C_27
REMARK    7  A    between atoms: O_8  and  C_38
REMARK    8  A    between atoms: N_9  and  C_14
REMARK    9  A    between atoms: N_10  and  C_20
REMARK   10  A    between atoms: C_13  and  C_19
REMARK   11  A    between atoms: C_20  and  C_22
REMARK   12  A    between atoms: C_20  and  C_25
REMARK   13  A    between atoms: C_21  and  C_23
REMARK   14  A    between atoms: C_22  and  C_24
REMARK                            x       y       z     vdW  Elec       q    Type
REMARK                         _______ _______ _______ _____ _____    ______ ____
ROOT
ATOM     13  C   UNL     1      -6.847 -10.796  18.750  0.00  0.00    +0.146 C 
ATOM     14  C   UNL     1      -5.083 -10.302  16.988  0.00  0.00    +0.107 C 
ATOM     15  C   UNL     1      -6.581 -10.358  17.307  0.00  0.00    +0.069 C 
ATOM     16  C   UNL     1      -4.378 -11.623  17.323  0.00  0.00    +0.163 C 
ATOM     17  C   UNL     1      -6.156 -12.121  19.064  0.00  0.00    +0.078 C 
ATOM     18  C   UNL     1      -4.659 -12.076  18.758  0.00  0.00    +0.148 C 
ENDROOT
BRANCH  13  19
ATOM      5  O   UNL     1      -8.779 -11.005  20.139  0.00  0.00    -0.273 OA
ATOM     10  N   UNL     1      -9.057 -10.910  17.830  0.00  0.00    -0.301 N 
ATOM     19  C   UNL     1      -8.323 -10.908  19.004  0.00  0.00    +0.246 C 
ATOM     44  H   UNL     1      -8.585 -10.711  16.953  0.00  0.00    +0.150 HD
BRANCH  10  20
ATOM     20  C   UNL     1     -10.497 -11.031  17.800  0.00  0.00    +0.163 C 
BRANCH  20  25
ATOM      7  O   UNL     1     -10.456 -13.450  18.042  0.00  0.00    -0.274 OA
ATOM     12  N   UNL     1     -11.614 -12.210  19.591  0.00  0.00    -0.328 N 
ATOM     25  C   UNL     1     -10.848 -12.360  18.454  0.00  0.00    +0.231 C 
ATOM     46  H   UNL     1     -11.908 -13.017  20.131  0.00  0.00    +0.145 HD
ATOM     47  H   UNL     1     -11.911 -11.302  19.933  0.00  0.00    +0.145 HD
ENDBRANCH  20  25
BRANCH  20  22
ATOM     22  C   UNL     1     -11.194  -9.877  18.530  0.00  0.00    +0.069 C 
BRANCH  22  24
ATOM     11  N   UNL     1     -13.942  -8.474  16.577  0.00  0.00    -0.360 N 
ATOM     24  C   UNL     1     -12.131  -9.109  17.627  0.00  0.00    -0.020 A 
ATOM     26  C   UNL     1     -11.774  -8.013  16.826  0.00  0.00    +0.003 A 
ATOM     28  C   UNL     1     -13.449  -9.385  17.473  0.00  0.00    +0.087 A 
ATOM     30  C   UNL     1     -12.940  -7.623  16.167  0.00  0.00    +0.047 A 
ATOM     31  C   UNL     1     -10.584  -7.299  16.582  0.00  0.00    +0.010 A 
ATOM     34  C   UNL     1     -12.979  -6.549  15.270  0.00  0.00    +0.026 A 
ATOM     36  C   UNL     1     -10.607  -6.221  15.688  0.00  0.00    +0.001 A 
ATOM     37  C   UNL     1     -11.786  -5.855  15.043  0.00  0.00    +0.002 A 
ATOM     45  H   UNL     1     -14.902  -8.430  16.264  0.00  0.00    +0.165 HD
ENDBRANCH  22  24
ENDBRANCH  20  22
ENDBRANCH  10  20
ENDBRANCH  13  19
BRANCH  14   9
ATOM      6  O   UNL     1      -6.381 -11.522  14.737  0.00  0.00    -0.270 OA
ATOM      9  N   UNL     1      -4.894  -9.963  15.595  0.00  0.00    -0.306 N 
ATOM     21  C   UNL     1      -5.570 -10.613  14.576  0.00  0.00    +0.248 C 
ATOM     40  H   UNL     1      -4.154  -9.304  15.379  0.00  0.00    +0.149 HD
BRANCH  21  23
ATOM     23  C   UNL     1      -5.246 -10.167  13.197  0.00  0.00    +0.078 A 
ATOM     27  C   UNL     1      -4.019 -10.477  12.645  0.00  0.00    +0.133 A 
ATOM     29  C   UNL     1      -6.199  -9.444  12.507  0.00  0.00    +0.018 A 
ATOM     32  C   UNL     1      -3.733 -10.048  11.350  0.00  0.00    +0.061 A 
ATOM     33  C   UNL     1      -5.913  -9.014  11.211  0.00  0.00    +0.015 A 
ATOM     35  C   UNL     1      -4.679  -9.316  10.632  0.00  0.00    +0.011 A 
BRANCH  35   1
ATOM      1  S   UNL     1      -4.314  -8.767   8.977  0.00  0.00    -0.128 S 
ATOM     39  C   UNL     1      -5.359  -9.868   7.983  0.00  0.00    +0.090 C 
ENDBRANCH  35   1
BRANCH  27   8
ATOM      8  O   UNL     1      -3.081 -11.190  13.330  0.00  0.00    -0.494 OA
ATOM     38  C   UNL     1      -1.943 -11.638  12.596  0.00  0.00    +0.277 C 
ENDBRANCH  27   8
ENDBRANCH  21  23
ENDBRANCH  14   9
BRANCH  13   2
ATOM      2  O   UNL     1      -6.391  -9.805  19.663  0.00  0.00    -0.379 OA
ATOM     41  H   UNL     1      -6.605 -10.096  20.565  0.00  0.00    +0.211 HD
ENDBRANCH  13   2
BRANCH  16   3
ATOM      3  O   UNL     1      -2.964 -11.443  17.195  0.00  0.00    -0.387 OA
ATOM     42  H   UNL     1      -2.568 -12.319  17.058  0.00  0.00    +0.210 HD
ENDBRANCH  16   3
BRANCH  18   4
ATOM      4  O   UNL     1      -4.113 -13.383  18.934  0.00  0.00    -0.389 OA
ATOM     43  H   UNL     1      -4.223 -13.865  18.097  0.00  0.00    +0.210 HD
ENDBRANCH  18   4
TORSDOF 12
ENDMDL
MODEL 6
REMARK VINA RESULT:      -7.0     29.367     32.627
REMARK  Name = 11882559
REMARK  14 active torsions:
REMARK  status: ('A' for Active; 'I' for Inactive)
REMARK    1  A    between atoms: S_1  and  C_35
REMARK    2  A    between atoms: S_1  and  C_39
REMARK    3  A    between atoms: O_2  and  C_13
REMARK    4  A    between atoms: O_3  and  C_16
REMARK    5  A    between atoms: O_4  and  C_18
REMARK    6  A    between atoms: O_8  and  C_27
REMARK    7  A    between atoms: O_8  and  C_38
REMARK    8  A    between atoms: N_9  and  C_14
REMARK    9  A    between atoms: N_10  and  C_20
REMARK   10  A    between atoms: C_13  and  C_19
REMARK   11  A    between atoms: C_20  and  C_22
REMARK   12  A    between atoms: C_20  and  C_25
REMARK   13  A    between atoms: C_21  and  C_23
REMARK   14  A    between atoms: C_22  and  C_24
REMARK                            x       y       z     vdW  Elec       q    Type
REMARK                         _______ _______ _______ _____ _____    ______ ____
ROOT
ATOM     13  C   UNL     1     -15.502   3.158  31.048  0.00  0.00    +0.146 C 
ATOM     14  C   UNL     1     -14.581   4.802  32.753  0.00  0.00    +0.107 C 
ATOM     15  C   UNL     1     -14.543   4.324  31.297  0.00  0.00    +0.069 C 
ATOM     16  C   UNL     1     -14.347   3.649  33.738  0.00  0.00    +0.163 C 
ATOM     17  C   UNL     1     -15.245   2.010  32.022  0.00  0.00    +0.078 C 
ATOM     18  C   UNL     1     -15.289   2.471  33.479  0.00  0.00    +0.148 C 
ENDROOT
BRANCH  13  19
ATOM      5  O   UNL     1     -14.563   1.821  29.305  0.00  0.00    -0.273 OA
ATOM     10  N   UNL     1     -16.278   3.306  28.785  0.00  0.00    -0.301 N 
ATOM     19  C   UNL     1     -15.385   2.672  29.632  0.00  0.00    +0.246 C 
ATOM     44  H   UNL     1     -16.990   3.912  29.184  0.00  0.00    +0.150 HD
BRANCH  10  20
ATOM     20  C   UNL     1     -16.352   3.034  27.368  0.00  0.00    +0.163 C 
BRANCH  20  25
ATOM      7  O   UNL     1     -18.566   2.148  26.899  0.00  0.00    -0.274 OA
ATOM     12  N   UNL     1     -16.853   0.670  27.300  0.00  0.00    -0.328 N 
ATOM     25  C   UNL     1     -17.388   1.935  27.177  0.00  0.00    +0.231 C 
ATOM     46  H   UNL     1     -17.434  -0.154  27.183  0.00  0.00    +0.145 HD
ATOM     47  H   UNL     1     -15.873   0.510  27.505  0.00  0.00    +0.145 HD
ENDBRANCH  20  25
BRANCH  20  22
ATOM     22  C   UNL     1     -16.736   4.277  26.555  0.00  0.00    +0.069 C 
BRANCH  22  24
ATOM     11  N   UNL     1     -15.405   3.419  23.265  0.00  0.00    -0.360 N 
ATOM     24  C   UNL     1     -16.280   4.185  25.117  0.00  0.00    -0.020 A 
ATOM     26  C   UNL     1     -16.443   5.186  24.147  0.00  0.00    +0.003 A 
ATOM     28  C   UNL     1     -15.650   3.113  24.577  0.00  0.00    +0.087 A 
ATOM     30  C   UNL     1     -15.879   4.678  22.975  0.00  0.00    +0.047 A 
ATOM     31  C   UNL     1     -17.008   6.476  24.125  0.00  0.00    +0.010 A 
ATOM     34  C   UNL     1     -15.852   5.399  21.775  0.00  0.00    +0.026 A 
ATOM     36  C   UNL     1     -16.989   7.209  22.932  0.00  0.00    +0.001 A 
ATOM     37  C   UNL     1     -16.419   6.677  21.778  0.00  0.00    +0.002 A 
ATOM     45  H   UNL     1     -14.944   2.808  22.604  0.00  0.00    +0.165 HD
ENDBRANCH  22  24
ENDBRANCH  20  22
ENDBRANCH  10  20
ENDBRANCH  13  19
BRANCH  14   9
ATOM      6  O   UNL     1     -14.949   7.608  32.277  0.00  0.00    -0.270 OA
ATOM      9  N   UNL     1     -13.600   5.846  32.950  0.00  0.00    -0.306 N 
ATOM     21  C   UNL     1     -13.875   7.179  32.690  0.00  0.00    +0.248 C 
ATOM     40  H   UNL     1     -12.656   5.553  33.177  0.00  0.00    +0.149 HD
BRANCH  21  23
ATOM     23  C   UNL     1     -12.754   8.126  32.918  0.00  0.00    +0.078 A 
ATOM     27  C   UNL     1     -12.419   8.497  34.205  0.00  0.00    +0.133 A 
ATOM     29  C   UNL     1     -12.078   8.609  31.816  0.00  0.00    +0.018 A 
ATOM     32  C   UNL     1     -11.364   9.388  34.398  0.00  0.00    +0.061 A 
ATOM     33  C   UNL     1     -11.022   9.501  32.008  0.00  0.00    +0.015 A 
ATOM     35  C   UNL     1     -10.665   9.891  33.300  0.00  0.00    +0.011 A 
BRANCH  35   1
ATOM      1  S   UNL     1      -9.317  11.030  33.545  0.00  0.00    -0.128 S 
ATOM     39  C   UNL     1      -9.443  12.076  32.069  0.00  0.00    +0.090 C 
ENDBRANCH  35   1
BRANCH  27   8
ATOM      8  O   UNL     1     -13.089   8.018  35.290  0.00  0.00    -0.494 OA
ATOM     38  C   UNL     1     -12.320   7.755  36.463  0.00  0.00    +0.277 C 
ENDBRANCH  27   8
ENDBRANCH  21  23
ENDBRANCH  14   9
BRANCH  13   2
ATOM      2  O   UNL     1     -16.852   3.586  31.180  0.00  0.00    -0.379 OA
ATOM     41  H   UNL     1     -17.425   2.801  31.187  0.00  0.00    +0.211 HD
ENDBRANCH  13   2
BRANCH  16   3
ATOM      3  O   UNL     1     -14.592   4.114  35.069  0.00  0.00    -0.387 OA
ATOM     42  H   UNL     1     -15.547   4.049  35.232  0.00  0.00    +0.210 HD
ENDBRANCH  16   3
BRANCH  18   4
ATOM      4  O   UNL     1     -14.897   1.385  34.318  0.00  0.00    -0.389 OA
ATOM     43  H   UNL     1     -14.578   1.759  35.157  0.00  0.00    +0.210 HD
ENDBRANCH  18   4
TORSDOF 12
ENDMDL
MODEL 7
REMARK VINA RESULT:      -7.0     29.193     32.130
REMARK  Name = 11882559
REMARK  14 active torsions:
REMARK  status: ('A' for Active; 'I' for Inactive)
REMARK    1  A    between atoms: S_1  and  C_35
REMARK    2  A    between atoms: S_1  and  C_39
REMARK    3  A    between atoms: O_2  and  C_13
REMARK    4  A    between atoms: O_3  and  C_16
REMARK    5  A    between atoms: O_4  and  C_18
REMARK    6  A    between atoms: O_8  and  C_27
REMARK    7  A    between atoms: O_8  and  C_38
REMARK    8  A    between atoms: N_9  and  C_14
REMARK    9  A    between atoms: N_10  and  C_20
REMARK   10  A    between atoms: C_13  and  C_19
REMARK   11  A    between atoms: C_20  and  C_22
REMARK   12  A    between atoms: C_20  and  C_25
REMARK   13  A    between atoms: C_21  and  C_23
REMARK   14  A    between atoms: C_22  and  C_24
REMARK                            x       y       z     vdW  Elec       q    Type
REMARK                         _______ _______ _______ _____ _____    ______ ____
ROOT
ATOM     13  C   UNL     1      -5.219 -12.098  17.115  0.00  0.00    +0.146 C 
ATOM     14  C   UNL     1      -7.446 -10.905  17.396  0.00  0.00    +0.107 C 
ATOM     15  C   UNL     1      -6.200 -11.086  16.521  0.00  0.00    +0.069 C 
ATOM     16  C   UNL     1      -7.079 -10.562  18.846  0.00  0.00    +0.163 C 
ATOM     17  C   UNL     1      -4.848 -11.734  18.551  0.00  0.00    +0.078 C 
ATOM     18  C   UNL     1      -6.081 -11.560  19.438  0.00  0.00    +0.148 C 
ENDROOT
BRANCH  13  19
ATOM      5  O   UNL     1      -3.069 -11.380  16.362  0.00  0.00    -0.273 OA
ATOM     10  N   UNL     1      -4.028 -13.269  15.397  0.00  0.00    -0.301 N 
ATOM     19  C   UNL     1      -3.983 -12.195  16.270  0.00  0.00    +0.246 C 
ATOM     44  H   UNL     1      -4.783 -13.944  15.485  0.00  0.00    +0.150 HD
BRANCH  10  20
ATOM     20  C   UNL     1      -2.971 -13.569  14.458  0.00  0.00    +0.163 C 
BRANCH  20  25
ATOM      7  O   UNL     1      -1.704 -15.600  14.034  0.00  0.00    -0.274 OA
ATOM     12  N   UNL     1      -3.319 -15.633  15.668  0.00  0.00    -0.328 N 
ATOM     25  C   UNL     1      -2.592 -15.029  14.664  0.00  0.00    +0.231 C 
ATOM     46  H   UNL     1      -3.157 -16.604  15.916  0.00  0.00    +0.145 HD
ATOM     47  H   UNL     1      -4.033 -15.143  16.196  0.00  0.00    +0.145 HD
ENDBRANCH  20  25
BRANCH  20  22
ATOM     22  C   UNL     1      -3.396 -13.328  13.005  0.00  0.00    +0.069 C 
BRANCH  22  24
ATOM     11  N   UNL     1      -1.764 -10.147  12.260  0.00  0.00    -0.360 N 
ATOM     24  C   UNL     1      -2.912 -11.996  12.479  0.00  0.00    -0.020 A 
ATOM     26  C   UNL     1      -3.448 -11.313  11.376  0.00  0.00    +0.003 A 
ATOM     28  C   UNL     1      -1.890 -11.284  13.013  0.00  0.00    +0.087 A 
ATOM     30  C   UNL     1      -2.703 -10.139  11.253  0.00  0.00    +0.047 A 
ATOM     31  C   UNL     1      -4.487 -11.557  10.457  0.00  0.00    +0.010 A 
ATOM     34  C   UNL     1      -2.946  -9.191  10.253  0.00  0.00    +0.026 A 
ATOM     36  C   UNL     1      -4.743 -10.618   9.451  0.00  0.00    +0.001 A 
ATOM     37  C   UNL     1      -3.983  -9.454   9.352  0.00  0.00    +0.002 A 
ATOM     45  H   UNL     1      -1.081  -9.419  12.419  0.00  0.00    +0.165 HD
ENDBRANCH  22  24
ENDBRANCH  20  22
ENDBRANCH  10  20
ENDBRANCH  13  19
BRANCH  14   9
ATOM      6  O   UNL     1     -10.313 -10.815  17.493  0.00  0.00    -0.270 OA
ATOM      9  N   UNL     1      -8.296  -9.882  16.830  0.00  0.00    -0.306 N 
ATOM     21  C   UNL     1      -9.677  -9.928  16.930  0.00  0.00    +0.248 C 
ATOM     40  H   UNL     1      -7.848  -9.181  16.250  0.00  0.00    +0.149 HD
BRANCH  21  23
ATOM     23  C   UNL     1     -10.409  -8.815  16.274  0.00  0.00    +0.078 A 
ATOM     27  C   UNL     1     -10.760  -8.914  14.942  0.00  0.00    +0.133 A 
ATOM     29  C   UNL     1     -10.717  -7.703  17.032  0.00  0.00    +0.018 A 
ATOM     32  C   UNL     1     -11.447  -7.859  14.344  0.00  0.00    +0.061 A 
ATOM     33  C   UNL     1     -11.404  -6.646  16.434  0.00  0.00    +0.015 A 
ATOM     35  C   UNL     1     -11.768  -6.724  15.089  0.00  0.00    +0.011 A 
BRANCH  35   1
ATOM      1  S   UNL     1     -12.645  -5.374  14.325  0.00  0.00    -0.128 S 
ATOM     39  C   UNL     1     -14.310  -6.071  14.141  0.00  0.00    +0.090 C 
ENDBRANCH  35   1
BRANCH  27   8
ATOM      8  O   UNL     1     -10.455 -10.014  14.197  0.00  0.00    -0.494 OA
ATOM     38  C   UNL     1      -9.605  -9.817  13.069  0.00  0.00    +0.277 C 
ENDBRANCH  27   8
ENDBRANCH  21  23
ENDBRANCH  14   9
BRANCH  13   2
ATOM      2  O   UNL     1      -5.780 -13.405  17.098  0.00  0.00    -0.379 OA
ATOM     41  H   UNL     1      -6.715 -13.343  17.357  0.00  0.00    +0.211 HD
ENDBRANCH  13   2
BRANCH  16   3
ATOM      3  O   UNL     1      -8.262 -10.605  19.650  0.00  0.00    -0.387 OA
ATOM     42  H   UNL     1      -8.133  -9.997  20.396  0.00  0.00    +0.210 HD
ENDBRANCH  16   3
BRANCH  18   4
ATOM      4  O   UNL     1      -5.665 -11.079  20.716  0.00  0.00    -0.389 OA
ATOM     43  H   UNL     1      -5.529 -11.850  21.293  0.00  0.00    +0.210 HD
ENDBRANCH  18   4
TORSDOF 12
ENDMDL
MODEL 8
REMARK VINA RESULT:      -6.8     29.182     33.003
REMARK  Name = 11882559
REMARK  14 active torsions:
REMARK  status: ('A' for Active; 'I' for Inactive)
REMARK    1  A    between atoms: S_1  and  C_35
REMARK    2  A    between atoms: S_1  and  C_39
REMARK    3  A    between atoms: O_2  and  C_13
REMARK    4  A    between atoms: O_3  and  C_16
REMARK    5  A    between atoms: O_4  and  C_18
REMARK    6  A    between atoms: O_8  and  C_27
REMARK    7  A    between atoms: O_8  and  C_38
REMARK    8  A    between atoms: N_9  and  C_14
REMARK    9  A    between atoms: N_10  and  C_20
REMARK   10  A    between atoms: C_13  and  C_19
REMARK   11  A    between atoms: C_20  and  C_22
REMARK   12  A    between atoms: C_20  and  C_25
REMARK   13  A    between atoms: C_21  and  C_23
REMARK   14  A    between atoms: C_22  and  C_24
REMARK                            x       y       z     vdW  Elec       q    Type
REMARK                         _______ _______ _______ _____ _____    ______ ____
ROOT
ATOM     13  C   UNL     1     -16.869   3.619  23.807  0.00  0.00    +0.146 C 
ATOM     14  C   UNL     1     -16.941   3.465  26.343  0.00  0.00    +0.107 C 
ATOM     15  C   UNL     1     -16.300   4.143  25.127  0.00  0.00    +0.069 C 
ATOM     16  C   UNL     1     -16.859   1.935  26.253  0.00  0.00    +0.163 C 
ATOM     17  C   UNL     1     -16.763   2.098  23.722  0.00  0.00    +0.078 C 
ATOM     18  C   UNL     1     -17.407   1.408  24.925  0.00  0.00    +0.148 C 
ENDROOT
BRANCH  13  19
ATOM      5  O   UNL     1     -14.947   4.376  22.608  0.00  0.00    -0.273 OA
ATOM     10  N   UNL     1     -17.054   4.679  21.666  0.00  0.00    -0.301 N 
ATOM     19  C   UNL     1     -16.168   4.252  22.641  0.00  0.00    +0.246 C 
ATOM     44  H   UNL     1     -18.034   4.424  21.746  0.00  0.00    +0.150 HD
BRANCH  10  20
ATOM     20  C   UNL     1     -16.634   5.341  20.452  0.00  0.00    +0.163 C 
BRANCH  20  25
ATOM      7  O   UNL     1     -18.595   5.957  19.155  0.00  0.00    -0.274 OA
ATOM     12  N   UNL     1     -17.627   3.908  18.778  0.00  0.00    -0.328 N 
ATOM     25  C   UNL     1     -17.732   5.123  19.420  0.00  0.00    +0.231 C 
ATOM     46  H   UNL     1     -18.290   3.641  18.057  0.00  0.00    +0.145 HD
ATOM     47  H   UNL     1     -16.895   3.239  18.991  0.00  0.00    +0.145 HD
ENDBRANCH  20  25
BRANCH  20  22
ATOM     22  C   UNL     1     -16.389   6.841  20.662  0.00  0.00    +0.069 C 
BRANCH  22  24
ATOM     11  N   UNL     1     -14.346   8.319  18.020  0.00  0.00    -0.360 N 
ATOM     24  C   UNL     1     -15.320   7.381  19.740  0.00  0.00    -0.020 A 
ATOM     26  C   UNL     1     -13.939   7.351  19.988  0.00  0.00    +0.003 A 
ATOM     28  C   UNL     1     -15.563   7.971  18.543  0.00  0.00    +0.087 A 
ATOM     30  C   UNL     1     -13.337   7.952  18.882  0.00  0.00    +0.047 A 
ATOM     31  C   UNL     1     -13.121   6.878  21.033  0.00  0.00    +0.010 A 
ATOM     34  C   UNL     1     -11.951   8.106  18.767  0.00  0.00    +0.026 A 
ATOM     36  C   UNL     1     -11.732   7.025  20.933  0.00  0.00    +0.001 A 
ATOM     37  C   UNL     1     -11.159   7.630  19.816  0.00  0.00    +0.002 A 
ATOM     45  H   UNL     1     -14.208   8.780  17.131  0.00  0.00    +0.165 HD
ENDBRANCH  22  24
ENDBRANCH  20  22
ENDBRANCH  10  20
ENDBRANCH  13  19
BRANCH  14   9
ATOM      6  O   UNL     1     -18.239   4.031  28.840  0.00  0.00    -0.270 OA
ATOM      9  N   UNL     1     -16.311   3.938  27.555  0.00  0.00    -0.306 N 
ATOM     21  C   UNL     1     -17.027   4.183  28.715  0.00  0.00    +0.248 C 
ATOM     40  H   UNL     1     -15.332   4.198  27.493  0.00  0.00    +0.149 HD
BRANCH  21  23
ATOM     23  C   UNL     1     -16.237   4.691  29.866  0.00  0.00    +0.078 A 
ATOM     27  C   UNL     1     -15.270   3.891  30.443  0.00  0.00    +0.133 A 
ATOM     29  C   UNL     1     -16.504   5.964  30.327  0.00  0.00    +0.018 A 
ATOM     32  C   UNL     1     -14.540   4.385  31.523  0.00  0.00    +0.061 A 
ATOM     33  C   UNL     1     -15.774   6.459  31.408  0.00  0.00    +0.015 A 
ATOM     35  C   UNL     1     -14.792   5.669  32.006  0.00  0.00    +0.011 A 
BRANCH  35   1
ATOM      1  S   UNL     1     -13.860   6.301  33.387  0.00  0.00    -0.128 S 
ATOM     39  C   UNL     1     -14.266   5.103  34.687  0.00  0.00    +0.090 C 
ENDBRANCH  35   1
BRANCH  27   8
ATOM      8  O   UNL     1     -15.009   2.634  29.985  0.00  0.00    -0.494 OA
ATOM     38  C   UNL     1     -13.761   2.054  30.359  0.00  0.00    +0.277 C 
ENDBRANCH  27   8
ENDBRANCH  21  23
ENDBRANCH  14   9
BRANCH  13   2
ATOM      2  O   UNL     1     -18.233   3.998  23.667  0.00  0.00    -0.379 OA
ATOM     41  H   UNL     1     -18.266   4.892  23.287  0.00  0.00    +0.211 HD
ENDBRANCH  13   2
BRANCH  16   3
ATOM      3  O   UNL     1     -17.644   1.363  27.303  0.00  0.00    -0.387 OA
ATOM     42  H   UNL     1     -17.147   1.467  28.132  0.00  0.00    +0.210 HD
ENDBRANCH  16   3
BRANCH  18   4
ATOM      4  O   UNL     1     -17.140   0.007  24.850  0.00  0.00    -0.389 OA
ATOM     43  H   UNL     1     -16.946  -0.305  25.750  0.00  0.00    +0.210 HD
ENDBRANCH  18   4
TORSDOF 12
ENDMDL
MODEL 9
REMARK VINA RESULT:      -6.8     27.944     31.337
REMARK  Name = 11882559
REMARK  14 active torsions:
REMARK  status: ('A' for Active; 'I' for Inactive)
REMARK    1  A    between atoms: S_1  and  C_35
REMARK    2  A    between atoms: S_1  and  C_39
REMARK    3  A    between atoms: O_2  and  C_13
REMARK    4  A    between atoms: O_3  and  C_16
REMARK    5  A    between atoms: O_4  and  C_18
REMARK    6  A    between atoms: O_8  and  C_27
REMARK    7  A    between atoms: O_8  and  C_38
REMARK    8  A    between atoms: N_9  and  C_14
REMARK    9  A    between atoms: N_10  and  C_20
REMARK   10  A    between atoms: C_13  and  C_19
REMARK   11  A    between atoms: C_20  and  C_22
REMARK   12  A    between atoms: C_20  and  C_25
REMARK   13  A    between atoms: C_21  and  C_23
REMARK   14  A    between atoms: C_22  and  C_24
REMARK                            x       y       z     vdW  Elec       q    Type
REMARK                         _______ _______ _______ _____ _____    ______ ____
ROOT
ATOM     13  C   UNL     1      -4.170 -10.863  16.029  0.00  0.00    +0.146 C 
ATOM     14  C   UNL     1      -3.477 -10.298  13.650  0.00  0.00    +0.107 C 
ATOM     15  C   UNL     1      -4.420 -11.115  14.540  0.00  0.00    +0.069 C 
ATOM     16  C   UNL     1      -2.005 -10.516  14.027  0.00  0.00    +0.163 C 
ATOM     17  C   UNL     1      -2.706 -11.103  16.393  0.00  0.00    +0.078 C 
ATOM     18  C   UNL     1      -1.754 -10.287  15.519  0.00  0.00    +0.148 C 
ENDROOT
BRANCH  13  19
ATOM      5  O   UNL     1      -4.714 -12.850  17.240  0.00  0.00    -0.273 OA
ATOM     10  N   UNL     1      -6.280 -11.131  17.132  0.00  0.00    -0.301 N 
ATOM     19  C   UNL     1      -5.061 -11.732  16.869  0.00  0.00    +0.246 C 
ATOM     44  H   UNL     1      -6.417 -10.159  16.871  0.00  0.00    +0.150 HD
BRANCH  10  20
ATOM     20  C   UNL     1      -7.325 -11.768  17.901  0.00  0.00    +0.163 C 
BRANCH  20  25
ATOM      7  O   UNL     1      -7.123 -12.047  20.307  0.00  0.00    -0.274 OA
ATOM     12  N   UNL     1      -7.057  -9.921  19.437  0.00  0.00    -0.328 N 
ATOM     25  C   UNL     1      -7.176 -11.291  19.339  0.00  0.00    +0.231 C 
ATOM     46  H   UNL     1      -6.939  -9.473  20.340  0.00  0.00    +0.145 HD
ATOM     47  H   UNL     1      -7.079  -9.312  18.627  0.00  0.00    +0.145 HD
ENDBRANCH  20  25
BRANCH  20  22
ATOM     22  C   UNL     1      -8.725 -11.434  17.370  0.00  0.00    +0.069 C 
BRANCH  22  24
ATOM     11  N   UNL     1      -8.750  -8.802  14.840  0.00  0.00    -0.360 N 
ATOM     24  C   UNL     1      -8.678 -10.561  16.138  0.00  0.00    -0.020 A 
ATOM     26  C   UNL     1      -8.431 -11.010  14.831  0.00  0.00    +0.003 A 
ATOM     28  C   UNL     1      -8.871  -9.219  16.138  0.00  0.00    +0.087 A 
ATOM     30  C   UNL     1      -8.481  -9.875  14.020  0.00  0.00    +0.047 A 
ATOM     31  C   UNL     1      -8.167 -12.259  14.236  0.00  0.00    +0.010 A 
ATOM     34  C   UNL     1      -8.280  -9.926  12.636  0.00  0.00    +0.026 A 
ATOM     36  C   UNL     1      -7.964 -12.326  12.852  0.00  0.00    +0.001 A 
ATOM     37  C   UNL     1      -8.020 -11.177  12.067  0.00  0.00    +0.002 A 
ATOM     45  H   UNL     1      -8.844  -7.845  14.527  0.00  0.00    +0.165 HD
ENDBRANCH  22  24
ENDBRANCH  20  22
ENDBRANCH  10  20
ENDBRANCH  13  19
BRANCH  14   9
ATOM      6  O   UNL     1      -5.259  -8.971  11.833  0.00  0.00    -0.270 OA
ATOM      9  N   UNL     1      -3.703 -10.635  12.262  0.00  0.00    -0.306 N 
ATOM     21  C   UNL     1      -4.588  -9.930  11.463  0.00  0.00    +0.248 C 
ATOM     40  H   UNL     1      -3.272 -11.488  11.920  0.00  0.00    +0.149 HD
BRANCH  21  23
ATOM     23  C   UNL     1      -4.726 -10.417  10.067  0.00  0.00    +0.078 A 
ATOM     27  C   UNL     1      -4.870 -11.768   9.821  0.00  0.00    +0.133 A 
ATOM     29  C   UNL     1      -4.705  -9.485   9.048  0.00  0.00    +0.018 A 
ATOM     32  C   UNL     1      -4.997 -12.206   8.504  0.00  0.00    +0.061 A 
ATOM     33  C   UNL     1      -4.832  -9.922   7.729  0.00  0.00    +0.015 A 
ATOM     35  C   UNL     1      -4.978 -11.283   7.457  0.00  0.00    +0.011 A 
BRANCH  35   1
ATOM      1  S   UNL     1      -5.141 -11.841   5.773  0.00  0.00    -0.128 S 
ATOM     39  C   UNL     1      -6.360 -10.671   5.112  0.00  0.00    +0.090 C 
ENDBRANCH  35   1
BRANCH  27   8
ATOM      8  O   UNL     1      -4.890 -12.685  10.829  0.00  0.00    -0.494 OA
ATOM     38  C   UNL     1      -4.082 -13.848  10.664  0.00  0.00    +0.277 C 
ENDBRANCH  27   8
ENDBRANCH  21  23
ENDBRANCH  14   9
BRANCH  13   2
ATOM      2  O   UNL     1      -4.523  -9.530  16.375  0.00  0.00    -0.379 OA
ATOM     41  H   UNL     1      -3.872  -8.926  15.980  0.00  0.00    +0.211 HD
ENDBRANCH  13   2
BRANCH  16   3
ATOM      3  O   UNL     1      -1.196  -9.584  13.303  0.00  0.00    -0.387 OA
ATOM     42  H   UNL     1      -0.499  -9.272  13.903  0.00  0.00    +0.210 HD
ENDBRANCH  16   3
BRANCH  18   4
ATOM      4  O   UNL     1      -0.412 -10.672  15.815  0.00  0.00    -0.389 OA
ATOM     43  H   UNL     1      -0.418 -11.616  16.044  0.00  0.00    +0.210 HD
ENDBRANCH  18   4
TORSDOF 12
ENDMDL
MODEL 10
REMARK VINA RESULT:      -6.8      7.060     11.578
REMARK  Name = 11882559
REMARK  14 active torsions:
REMARK  status: ('A' for Active; 'I' for Inactive)
REMARK    1  A    between atoms: S_1  and  C_35
REMARK    2  A    between atoms: S_1  and  C_39
REMARK    3  A    between atoms: O_2  and  C_13
REMARK    4  A    between atoms: O_3  and  C_16
REMARK    5  A    between atoms: O_4  and  C_18
REMARK    6  A    between atoms: O_8  and  C_27
REMARK    7  A    between atoms: O_8  and  C_38
REMARK    8  A    between atoms: N_9  and  C_14
REMARK    9  A    between atoms: N_10  and  C_20
REMARK   10  A    between atoms: C_13  and  C_19
REMARK   11  A    between atoms: C_20  and  C_22
REMARK   12  A    between atoms: C_20  and  C_25
REMARK   13  A    between atoms: C_21  and  C_23
REMARK   14  A    between atoms: C_22  and  C_24
REMARK                            x       y       z     vdW  Elec       q    Type
REMARK                         _______ _______ _______ _____ _____    ______ ____
ROOT
ATOM     13  C   UNL     1      23.950   2.044  23.466  0.00  0.00    +0.146 C 
ATOM     14  C   UNL     1      22.795   3.886  22.150  0.00  0.00    +0.107 C 
ATOM     15  C   UNL     1      22.614   2.611  22.981  0.00  0.00    +0.069 C 
ATOM     16  C   UNL     1      23.781   3.677  20.992  0.00  0.00    +0.163 C 
ATOM     17  C   UNL     1      24.913   1.822  22.301  0.00  0.00    +0.078 C 
ATOM     18  C   UNL     1      25.111   3.089  21.469  0.00  0.00    +0.148 C 
ENDROOT
BRANCH  13  19
ATOM      5  O   UNL     1      24.596  -0.119  24.250  0.00  0.00    -0.273 OA
ATOM     10  N   UNL     1      22.489   0.700  24.808  0.00  0.00    -0.301 N 
ATOM     19  C   UNL     1      23.738   0.759  24.214  0.00  0.00    +0.246 C 
ATOM     44  H   UNL     1      21.904   1.530  24.808  0.00  0.00    +0.150 HD
BRANCH  10  20
ATOM     20  C   UNL     1      22.030  -0.440  25.568  0.00  0.00    +0.163 C 
BRANCH  20  25
ATOM      7  O   UNL     1      23.622  -0.931  27.337  0.00  0.00    -0.274 OA
ATOM     12  N   UNL     1      21.955   0.595  27.751  0.00  0.00    -0.328 N 
ATOM     25  C   UNL     1      22.625  -0.317  26.963  0.00  0.00    +0.231 C 
ATOM     46  H   UNL     1      22.257   0.783  28.702  0.00  0.00    +0.145 HD
ATOM     47  H   UNL     1      21.147   1.112  27.421  0.00  0.00    +0.145 HD
ENDBRANCH  20  25
BRANCH  20  22
ATOM     22  C   UNL     1      20.500  -0.511  25.645  0.00  0.00    +0.069 C 
BRANCH  22  24
ATOM     11  N   UNL     1      19.759  -3.893  24.485  0.00  0.00    -0.360 N 
ATOM     24  C   UNL     1      19.954  -1.789  25.054  0.00  0.00    -0.020 A 
ATOM     26  C   UNL     1      18.753  -1.907  24.337  0.00  0.00    +0.003 A 
ATOM     28  C   UNL     1      20.561  -2.999  25.142  0.00  0.00    +0.087 A 
ATOM     30  C   UNL     1      18.647  -3.254  23.984  0.00  0.00    +0.047 A 
ATOM     31  C   UNL     1      17.732  -1.020  23.943  0.00  0.00    +0.010 A 
ATOM     34  C   UNL     1      17.567  -3.761  23.253  0.00  0.00    +0.026 A 
ATOM     36  C   UNL     1      16.645  -1.512  23.211  0.00  0.00    +0.001 A 
ATOM     37  C   UNL     1      16.566  -2.861  22.872  0.00  0.00    +0.002 A 
ATOM     45  H   UNL     1      19.953  -4.879  24.383  0.00  0.00    +0.165 HD
ENDBRANCH  22  24
ENDBRANCH  20  22
ENDBRANCH  10  20
ENDBRANCH  13  19
BRANCH  14   9
ATOM      6  O   UNL     1      21.981   6.602  21.703  0.00  0.00    -0.270 OA
ATOM      9  N   UNL     1      21.513   4.331  21.652  0.00  0.00    -0.306 N 
ATOM     21  C   UNL     1      21.214   5.671  21.469  0.00  0.00    +0.248 C 
ATOM     40  H   UNL     1      20.790   3.627  21.550  0.00  0.00    +0.149 HD
BRANCH  21  23
ATOM     23  C   UNL     1      19.844   5.966  20.976  0.00  0.00    +0.078 A 
ATOM     27  C   UNL     1      19.069   6.909  21.622  0.00  0.00    +0.133 A 
ATOM     29  C   UNL     1      19.388   5.273  19.873  0.00  0.00    +0.018 A 
ATOM     32  C   UNL     1      17.786   7.171  21.144  0.00  0.00    +0.061 A 
ATOM     33  C   UNL     1      18.103   5.535  19.394  0.00  0.00    +0.015 A 
ATOM     35  C   UNL     1      17.302   6.484  20.030  0.00  0.00    +0.011 A 
BRANCH  35   1
ATOM      1  S   UNL     1      15.662   6.817  19.419  0.00  0.00    -0.128 S 
ATOM     39  C   UNL     1      14.695   6.846  20.954  0.00  0.00    +0.090 C 
ENDBRANCH  35   1
BRANCH  27   8
ATOM      8  O   UNL     1      19.524   7.591  22.711  0.00  0.00    -0.494 OA
ATOM     38  C   UNL     1      19.591   9.012  22.604  0.00  0.00    +0.277 C 
ENDBRANCH  27   8
ENDBRANCH  21  23
ENDBRANCH  14   9
BRANCH  13   2
ATOM      2  O   UNL     1      24.553   2.923  24.407  0.00  0.00    -0.379 OA
ATOM     41  H   UNL     1      25.019   3.623  23.920  0.00  0.00    +0.211 HD
ENDBRANCH  13   2
BRANCH  16   3
ATOM      3  O   UNL     1      24.060   4.941  20.382  0.00  0.00    -0.387 OA
ATOM     42  H   UNL     1      23.212   5.334  20.118  0.00  0.00    +0.210 HD
ENDBRANCH  16   3
BRANCH  18   4
ATOM      4  O   UNL     1      25.900   2.769  20.323  0.00  0.00    -0.389 OA
ATOM     43  H   UNL     1      26.825   2.694  20.612  0.00  0.00    +0.210 HD
ENDBRANCH  18   4
TORSDOF 12
ENDMDL
