MODEL 1
REMARK VINA RESULT:      -6.0      0.000      0.000
REMARK  Name = 51136651
REMARK  12 active torsions:
REMARK  status: ('A' for Active; 'I' for Inactive)
REMARK    1  A    between atoms: O_2  and  C_18
REMARK    2  A    between atoms: O_4  and  C_29
REMARK    3  A    between atoms: O_4  and  C_30
REMARK    4  A    between atoms: C_7  and  C_12
REMARK    5  A    between atoms: C_8  and  C_13
REMARK    6  A    between atoms: C_12  and  C_15
REMARK    7  A    between atoms: C_13  and  C_18
REMARK    8  A    between atoms: C_14  and  C_16
REMARK    9  A    between atoms: C_16  and  C_17
REMARK   10  A    between atoms: C_17  and  C_21
REMARK   11  A    between atoms: C_17  and  C_22
REMARK   12  A    between atoms: C_17  and  C_23
REMARK                            x       y       z     vdW  Elec       q    Type
REMARK                         _______ _______ _______ _____ _____    ______ ____
ROOT
ATOM      1  O   UNL     1      12.058   6.854  17.830  0.00  0.00    -0.276 OA
ATOM      5  N   UNL     1      13.800   8.377  18.024  0.00  0.00    -0.301 N 
ATOM      7  C   UNL     1      14.723  10.555  18.788  0.00  0.00    +0.016 C 
ATOM      8  C   UNL     1      14.624  11.067  17.329  0.00  0.00    +0.006 C 
ATOM      9  C   UNL     1      14.871   9.023  18.795  0.00  0.00    +0.112 C 
ATOM     10  C   UNL     1      13.526  10.330  16.544  0.00  0.00    +0.023 C 
ATOM     11  C   UNL     1      13.702   8.816  16.631  0.00  0.00    +0.108 C 
ATOM     14  C   UNL     1      12.933   7.398  18.507  0.00  0.00    +0.216 C 
ENDROOT
BRANCH   7  12
ATOM     12  C   UNL     1      13.550  10.981  19.679  0.00  0.00    +0.061 C 
BRANCH  12  15
ATOM      6  N   UNL     1      15.337  11.758  21.081  0.00  0.00    -0.287 NA
ATOM     15  C   UNL     1      14.070  11.525  20.987  0.00  0.00    +0.044 C 
ATOM     19  C   UNL     1      13.110  11.756  22.098  0.00  0.00    -0.001 A 
ATOM     20  C   UNL     1      13.652  11.882  23.383  0.00  0.00    -0.033 A 
ATOM     24  C   UNL     1      15.833  12.344  22.331  0.00  0.00    +0.146 C 
ATOM     25  C   UNL     1      15.137  11.761  23.555  0.00  0.00    +0.059 C 
ATOM     26  C   UNL     1      11.730  11.834  21.900  0.00  0.00    +0.013 A 
ATOM     27  C   UNL     1      12.800  12.060  24.477  0.00  0.00    +0.050 A 
ATOM     28  C   UNL     1      10.889  12.029  22.995  0.00  0.00    +0.046 A 
ATOM     29  C   UNL     1      11.420  12.138  24.281  0.00  0.00    +0.120 A 
BRANCH  29   4
ATOM      4  O   UNL     1      10.593  12.321  25.346  0.00  0.00    -0.495 OA
ATOM     30  C   UNL     1      10.508  13.640  25.883  0.00  0.00    +0.277 C 
ENDBRANCH  29   4
ENDBRANCH  12  15
ENDBRANCH   7  12
BRANCH   8  13
ATOM     13  C   UNL     1      14.431  12.580  17.234  0.00  0.00    +0.124 C 
BRANCH  13  18
ATOM      3  O   UNL     1      16.747  13.337  17.216  0.00  0.00    -0.251 OA
ATOM     18  C   UNL     1      15.639  13.326  17.729  0.00  0.00    +0.305 C 
BRANCH  18   2
ATOM      2  O   UNL     1      15.324  14.009  18.859  0.00  0.00    -0.481 OA
ATOM     31  H   UNL     1      14.428  13.783  19.187  0.00  0.00    +0.295 HD
ENDBRANCH  18   2
ENDBRANCH  13  18
ENDBRANCH   8  13
BRANCH  14  16
ATOM     16  C   UNL     1      13.098   7.004  19.953  0.00  0.00    +0.102 C 
BRANCH  16  17
ATOM     17  C   UNL     1      11.956   7.519  20.847  0.00  0.00    -0.029 C 
ATOM     21  C   UNL     1      11.113   6.356  21.398  0.00  0.00    +0.011 C 
ATOM     22  C   UNL     1      11.045   8.492  20.079  0.00  0.00    +0.011 C 
ATOM     23  C   UNL     1      12.589   8.271  22.033  0.00  0.00    +0.011 C 
ENDBRANCH  16  17
ENDBRANCH  14  16
TORSDOF 8
ENDMDL
MODEL 2
REMARK VINA RESULT:      -5.5     26.530     29.635
REMARK  Name = 51136651
REMARK  12 active torsions:
REMARK  status: ('A' for Active; 'I' for Inactive)
REMARK    1  A    between atoms: O_2  and  C_18
REMARK    2  A    between atoms: O_4  and  C_29
REMARK    3  A    between atoms: O_4  and  C_30
REMARK    4  A    between atoms: C_7  and  C_12
REMARK    5  A    between atoms: C_8  and  C_13
REMARK    6  A    between atoms: C_12  and  C_15
REMARK    7  A    between atoms: C_13  and  C_18
REMARK    8  A    between atoms: C_14  and  C_16
REMARK    9  A    between atoms: C_16  and  C_17
REMARK   10  A    between atoms: C_17  and  C_21
REMARK   11  A    between atoms: C_17  and  C_22
REMARK   12  A    between atoms: C_17  and  C_23
REMARK                            x       y       z     vdW  Elec       q    Type
REMARK                         _______ _______ _______ _____ _____    ______ ____
ROOT
ATOM      1  O   UNL     1      -8.306 -11.686  17.709  0.00  0.00    -0.276 OA
ATOM      5  N   UNL     1      -6.491 -10.524  16.842  0.00  0.00    -0.301 N 
ATOM      7  C   UNL     1      -4.613 -10.292  15.230  0.00  0.00    +0.016 C 
ATOM      8  C   UNL     1      -3.637 -10.689  16.366  0.00  0.00    +0.006 C 
ATOM      9  C   UNL     1      -5.880  -9.653  15.829  0.00  0.00    +0.112 C 
ATOM     10  C   UNL     1      -4.331 -11.558  17.430  0.00  0.00    +0.023 C 
ATOM     11  C   UNL     1      -5.603 -10.892  17.946  0.00  0.00    +0.108 C 
ATOM     14  C   UNL     1      -7.810 -10.975  16.831  0.00  0.00    +0.216 C 
ENDROOT
BRANCH   7  12
ATOM     12  C   UNL     1      -4.991 -11.449  14.298  0.00  0.00    +0.061 C 
BRANCH  12  15
ATOM      6  N   UNL     1      -3.457 -11.462  12.451  0.00  0.00    -0.287 NA
ATOM     15  C   UNL     1      -4.624 -11.104  12.876  0.00  0.00    +0.044 C 
ATOM     19  C   UNL     1      -5.608 -10.368  12.041  0.00  0.00    -0.001 A 
ATOM     20  C   UNL     1      -5.114  -9.733  10.894  0.00  0.00    -0.033 A 
ATOM     24  C   UNL     1      -3.124 -11.180  11.050  0.00  0.00    +0.146 C 
ATOM     25  C   UNL     1      -3.647  -9.822  10.597  0.00  0.00    +0.059 C 
ATOM     26  C   UNL     1      -6.963 -10.286  12.368  0.00  0.00    +0.013 A 
ATOM     27  C   UNL     1      -5.981  -8.991  10.088  0.00  0.00    +0.050 A 
ATOM     28  C   UNL     1      -7.824  -9.556  11.548  0.00  0.00    +0.046 A 
ATOM     29  C   UNL     1      -7.336  -8.907  10.414  0.00  0.00    +0.120 A 
BRANCH  29   4
ATOM      4  O   UNL     1      -8.181  -8.190   9.623  0.00  0.00    -0.495 OA
ATOM     30  C   UNL     1      -7.746  -7.913   8.293  0.00  0.00    +0.277 C 
ENDBRANCH  29   4
ENDBRANCH  12  15
ENDBRANCH   7  12
BRANCH   8  13
ATOM     13  C   UNL     1      -2.369 -11.373  15.856  0.00  0.00    +0.124 C 
BRANCH  13  18
ATOM      3  O   UNL     1      -1.376  -9.732  14.353  0.00  0.00    -0.251 OA
ATOM     18  C   UNL     1      -1.347 -10.372  15.393  0.00  0.00    +0.305 C 
BRANCH  18   2
ATOM      2  O   UNL     1      -0.355 -10.270  16.314  0.00  0.00    -0.481 OA
ATOM     31  H   UNL     1      -0.147 -11.135  16.726  0.00  0.00    +0.295 HD
ENDBRANCH  18   2
ENDBRANCH  13  18
ENDBRANCH   8  13
BRANCH  14  16
ATOM     16  C   UNL     1      -8.658 -10.555  15.658  0.00  0.00    +0.102 C 
BRANCH  16  17
ATOM     17  C   UNL     1      -9.711  -9.495  16.030  0.00  0.00    -0.029 C 
ATOM     21  C   UNL     1     -10.114  -8.658  14.803  0.00  0.00    +0.011 C 
ATOM     22  C   UNL     1      -9.193  -8.562  17.138  0.00  0.00    +0.011 C 
ATOM     23  C   UNL     1     -10.958 -10.233  16.552  0.00  0.00    +0.011 C 
ENDBRANCH  16  17
ENDBRANCH  14  16
TORSDOF 8
ENDMDL
MODEL 3
REMARK VINA RESULT:      -5.5     30.497     32.159
REMARK  Name = 51136651
REMARK  12 active torsions:
REMARK  status: ('A' for Active; 'I' for Inactive)
REMARK    1  A    between atoms: O_2  and  C_18
REMARK    2  A    between atoms: O_4  and  C_29
REMARK    3  A    between atoms: O_4  and  C_30
REMARK    4  A    between atoms: C_7  and  C_12
REMARK    5  A    between atoms: C_8  and  C_13
REMARK    6  A    between atoms: C_12  and  C_15
REMARK    7  A    between atoms: C_13  and  C_18
REMARK    8  A    between atoms: C_14  and  C_16
REMARK    9  A    between atoms: C_16  and  C_17
REMARK   10  A    between atoms: C_17  and  C_21
REMARK   11  A    between atoms: C_17  and  C_22
REMARK   12  A    between atoms: C_17  and  C_23
REMARK                            x       y       z     vdW  Elec       q    Type
REMARK                         _______ _______ _______ _____ _____    ______ ____
ROOT
ATOM      1  O   UNL     1     -16.060   4.947  34.188  0.00  0.00    -0.276 OA
ATOM      5  N   UNL     1     -14.936   3.863  32.468  0.00  0.00    -0.301 N 
ATOM      7  C   UNL     1     -14.897   2.353  30.494  0.00  0.00    +0.016 C 
ATOM      8  C   UNL     1     -14.291   1.249  31.397  0.00  0.00    +0.006 C 
ATOM      9  C   UNL     1     -14.544   3.741  31.058  0.00  0.00    +0.112 C 
ATOM     10  C   UNL     1     -14.686   1.444  32.871  0.00  0.00    +0.023 C 
ATOM     11  C   UNL     1     -14.354   2.854  33.353  0.00  0.00    +0.108 C 
ATOM     14  C   UNL     1     -15.767   4.852  32.993  0.00  0.00    +0.216 C 
ENDROOT
BRANCH   7  12
ATOM     12  C   UNL     1     -16.413   2.231  30.292  0.00  0.00    +0.061 C 
BRANCH  12  15
ATOM      6  N   UNL     1     -16.753   0.961  28.283  0.00  0.00    -0.287 NA
ATOM     15  C   UNL     1     -16.728   2.137  28.819  0.00  0.00    +0.044 C 
ATOM     19  C   UNL     1     -16.983   3.388  28.060  0.00  0.00    -0.001 A 
ATOM     20  C   UNL     1     -16.886   3.311  26.664  0.00  0.00    -0.033 A 
ATOM     24  C   UNL     1     -17.119   0.865  26.865  0.00  0.00    +0.146 C 
ATOM     25  C   UNL     1     -16.522   1.997  26.039  0.00  0.00    +0.059 C 
ATOM     26  C   UNL     1     -17.292   4.599  28.682  0.00  0.00    +0.013 A 
ATOM     27  C   UNL     1     -17.075   4.462  25.895  0.00  0.00    +0.050 A 
ATOM     28  C   UNL     1     -17.495   5.739  27.905  0.00  0.00    +0.046 A 
ATOM     29  C   UNL     1     -17.384   5.673  26.516  0.00  0.00    +0.120 A 
BRANCH  29   4
ATOM      4  O   UNL     1     -17.576   6.792  25.764  0.00  0.00    -0.495 OA
ATOM     30  C   UNL     1     -18.307   7.860  26.366  0.00  0.00    +0.277 C 
ENDBRANCH  29   4
ENDBRANCH  12  15
ENDBRANCH   7  12
BRANCH   8  13
ATOM     13  C   UNL     1     -14.635  -0.165  30.930  0.00  0.00    +0.124 C 
BRANCH  13  18
ATOM      3  O   UNL     1     -14.027  -0.711  28.634  0.00  0.00    -0.251 OA
ATOM     18  C   UNL     1     -13.732  -0.616  29.815  0.00  0.00    +0.305 C 
BRANCH  18   2
ATOM      2  O   UNL     1     -12.504  -0.912  30.312  0.00  0.00    -0.481 OA
ATOM     31  H   UNL     1     -11.847  -0.213  30.106  0.00  0.00    +0.295 HD
ENDBRANCH  18   2
ENDBRANCH  13  18
ENDBRANCH   8  13
BRANCH  14  16
ATOM     16  C   UNL     1     -16.328   5.853  32.015  0.00  0.00    +0.102 C 
BRANCH  16  17
ATOM     17  C   UNL     1     -15.714   7.256  32.175  0.00  0.00    -0.029 C 
ATOM     21  C   UNL     1     -14.210   7.171  32.486  0.00  0.00    +0.011 C 
ATOM     22  C   UNL     1     -16.422   8.048  33.287  0.00  0.00    +0.011 C 
ATOM     23  C   UNL     1     -15.899   8.006  30.843  0.00  0.00    +0.011 C 
ENDBRANCH  16  17
ENDBRANCH  14  16
TORSDOF 8
ENDMDL
MODEL 4
REMARK VINA RESULT:      -5.4     29.863     31.892
REMARK  Name = 51136651
REMARK  12 active torsions:
REMARK  status: ('A' for Active; 'I' for Inactive)
REMARK    1  A    between atoms: O_2  and  C_18
REMARK    2  A    between atoms: O_4  and  C_29
REMARK    3  A    between atoms: O_4  and  C_30
REMARK    4  A    between atoms: C_7  and  C_12
REMARK    5  A    between atoms: C_8  and  C_13
REMARK    6  A    between atoms: C_12  and  C_15
REMARK    7  A    between atoms: C_13  and  C_18
REMARK    8  A    between atoms: C_14  and  C_16
REMARK    9  A    between atoms: C_16  and  C_17
REMARK   10  A    between atoms: C_17  and  C_21
REMARK   11  A    between atoms: C_17  and  C_22
REMARK   12  A    between atoms: C_17  and  C_23
REMARK                            x       y       z     vdW  Elec       q    Type
REMARK                         _______ _______ _______ _____ _____    ______ ____
ROOT
ATOM      1  O   UNL     1     -15.388   5.297  35.216  0.00  0.00    -0.276 OA
ATOM      5  N   UNL     1     -14.575   4.420  33.225  0.00  0.00    -0.301 N 
ATOM      7  C   UNL     1     -14.919   3.477  30.951  0.00  0.00    +0.016 C 
ATOM      8  C   UNL     1     -14.622   2.071  31.529  0.00  0.00    +0.006 C 
ATOM      9  C   UNL     1     -14.221   4.551  31.805  0.00  0.00    +0.112 C 
ATOM     10  C   UNL     1     -14.959   1.993  33.028  0.00  0.00    +0.023 C 
ATOM     11  C   UNL     1     -14.276   3.112  33.810  0.00  0.00    +0.108 C 
ATOM     14  C   UNL     1     -15.123   5.427  34.018  0.00  0.00    +0.216 C 
ENDROOT
BRANCH   7  12
ATOM     12  C   UNL     1     -16.413   3.793  30.816  0.00  0.00    +0.061 C 
BRANCH  12  15
ATOM      6  N   UNL     1     -16.831   6.045  30.095  0.00  0.00    -0.287 NA
ATOM     15  C   UNL     1     -16.624   4.822  29.732  0.00  0.00    +0.044 C 
ATOM     19  C   UNL     1     -16.592   4.384  28.313  0.00  0.00    -0.001 A 
ATOM     20  C   UNL     1     -17.163   5.251  27.372  0.00  0.00    -0.033 A 
ATOM     24  C   UNL     1     -16.975   7.056  29.041  0.00  0.00    +0.146 C 
ATOM     25  C   UNL     1     -17.772   6.535  27.851  0.00  0.00    +0.059 C 
ATOM     26  C   UNL     1     -16.041   3.166  27.911  0.00  0.00    +0.013 A 
ATOM     27  C   UNL     1     -17.202   4.879  26.025  0.00  0.00    +0.050 A 
ATOM     28  C   UNL     1     -16.070   2.811  26.562  0.00  0.00    +0.046 A 
ATOM     29  C   UNL     1     -16.651   3.662  25.622  0.00  0.00    +0.120 A 
BRANCH  29   4
ATOM      4  O   UNL     1     -16.682   3.305  24.308  0.00  0.00    -0.495 OA
ATOM     30  C   UNL     1     -16.269   4.287  23.359  0.00  0.00    +0.277 C 
ENDBRANCH  29   4
ENDBRANCH  12  15
ENDBRANCH   7  12
BRANCH   8  13
ATOM     13  C   UNL     1     -15.317   0.947  30.762  0.00  0.00    +0.124 C 
BRANCH  13  18
ATOM      3  O   UNL     1     -14.551  -1.023  29.548  0.00  0.00    -0.251 OA
ATOM     18  C   UNL     1     -14.327   0.070  30.045  0.00  0.00    +0.305 C 
BRANCH  18   2
ATOM      2  O   UNL     1     -13.111   0.674  30.023  0.00  0.00    -0.481 OA
ATOM     31  H   UNL     1     -12.579   0.455  30.817  0.00  0.00    +0.295 HD
ENDBRANCH  18   2
ENDBRANCH  13  18
ENDBRANCH   8  13
BRANCH  14  16
ATOM     16  C   UNL     1     -15.404   6.743  33.340  0.00  0.00    +0.102 C 
BRANCH  16  17
ATOM     17  C   UNL     1     -14.303   7.791  33.589  0.00  0.00    -0.029 C 
ATOM     21  C   UNL     1     -13.380   7.363  34.743  0.00  0.00    +0.011 C 
ATOM     22  C   UNL     1     -14.909   9.169  33.902  0.00  0.00    +0.011 C 
ATOM     23  C   UNL     1     -13.462   7.905  32.304  0.00  0.00    +0.011 C 
ENDBRANCH  16  17
ENDBRANCH  14  16
TORSDOF 8
ENDMDL
MODEL 5
REMARK VINA RESULT:      -5.4     26.954     29.776
REMARK  Name = 51136651
REMARK  12 active torsions:
REMARK  status: ('A' for Active; 'I' for Inactive)
REMARK    1  A    between atoms: O_2  and  C_18
REMARK    2  A    between atoms: O_4  and  C_29
REMARK    3  A    between atoms: O_4  and  C_30
REMARK    4  A    between atoms: C_7  and  C_12
REMARK    5  A    between atoms: C_8  and  C_13
REMARK    6  A    between atoms: C_12  and  C_15
REMARK    7  A    between atoms: C_13  and  C_18
REMARK    8  A    between atoms: C_14  and  C_16
REMARK    9  A    between atoms: C_16  and  C_17
REMARK   10  A    between atoms: C_17  and  C_21
REMARK   11  A    between atoms: C_17  and  C_22
REMARK   12  A    between atoms: C_17  and  C_23
REMARK                            x       y       z     vdW  Elec       q    Type
REMARK                         _______ _______ _______ _____ _____    ______ ____
ROOT
ATOM      1  O   UNL     1      -1.523  -9.925  12.260  0.00  0.00    -0.276 OA
ATOM      5  N   UNL     1      -2.332 -11.387  13.874  0.00  0.00    -0.301 N 
ATOM      7  C   UNL     1      -4.103 -12.145  15.444  0.00  0.00    +0.016 C 
ATOM      8  C   UNL     1      -3.279 -11.538  16.608  0.00  0.00    +0.006 C 
ATOM      9  C   UNL     1      -3.166 -12.525  14.283  0.00  0.00    +0.112 C 
ATOM     10  C   UNL     1      -2.383 -10.384  16.125  0.00  0.00    +0.023 C 
ATOM     11  C   UNL     1      -1.516 -10.812  14.944  0.00  0.00    +0.108 C 
ATOM     14  C   UNL     1      -2.252 -10.866  12.583  0.00  0.00    +0.216 C 
ENDROOT
BRANCH   7  12
ATOM     12  C   UNL     1      -5.233 -11.239  14.942  0.00  0.00    +0.061 C 
BRANCH  12  15
ATOM      6  N   UNL     1      -6.787 -13.064  15.069  0.00  0.00    -0.287 NA
ATOM     15  C   UNL     1      -6.570 -11.819  15.335  0.00  0.00    +0.044 C 
ATOM     19  C   UNL     1      -7.566 -10.937  15.995  0.00  0.00    -0.001 A 
ATOM     20  C   UNL     1      -8.896 -11.376  15.993  0.00  0.00    -0.033 A 
ATOM     24  C   UNL     1      -8.062 -13.644  15.506  0.00  0.00    +0.146 C 
ATOM     25  C   UNL     1      -9.225 -12.677  15.323  0.00  0.00    +0.059 C 
ATOM     26  C   UNL     1      -7.223  -9.718  16.584  0.00  0.00    +0.013 A 
ATOM     27  C   UNL     1      -9.889 -10.573  16.562  0.00  0.00    +0.050 A 
ATOM     28  C   UNL     1      -8.219  -8.931  17.164  0.00  0.00    +0.046 A 
ATOM     29  C   UNL     1      -9.548  -9.354  17.151  0.00  0.00    +0.120 A 
BRANCH  29   4
ATOM      4  O   UNL     1     -10.515  -8.577  17.712  0.00  0.00    -0.495 OA
ATOM     30  C   UNL     1     -11.774  -9.198  17.975  0.00  0.00    +0.277 C 
ENDBRANCH  29   4
ENDBRANCH  12  15
ENDBRANCH   7  12
BRANCH   8  13
ATOM     13  C   UNL     1      -4.143 -11.092  17.787  0.00  0.00    +0.124 C 
BRANCH  13  18
ATOM      3  O   UNL     1      -3.339 -12.240  19.781  0.00  0.00    -0.251 OA
ATOM     18  C   UNL     1      -4.159 -12.121  18.884  0.00  0.00    +0.305 C 
BRANCH  18   2
ATOM      2  O   UNL     1      -5.242 -12.927  18.740  0.00  0.00    -0.481 OA
ATOM     31  H   UNL     1      -5.052 -13.696  18.161  0.00  0.00    +0.295 HD
ENDBRANCH  18   2
ENDBRANCH  13  18
ENDBRANCH   8  13
BRANCH  14  16
ATOM     16  C   UNL     1      -3.126 -11.513  11.538  0.00  0.00    +0.102 C 
BRANCH  16  17
ATOM     17  C   UNL     1      -4.114 -10.526  10.890  0.00  0.00    -0.029 C 
ATOM     21  C   UNL     1      -3.378  -9.504  10.006  0.00  0.00    +0.011 C 
ATOM     22  C   UNL     1      -4.936  -9.782  11.956  0.00  0.00    +0.011 C 
ATOM     23  C   UNL     1      -5.078 -11.337  10.004  0.00  0.00    +0.011 C 
ENDBRANCH  16  17
ENDBRANCH  14  16
TORSDOF 8
ENDMDL
MODEL 6
REMARK VINA RESULT:      -5.4     27.745     29.794
REMARK  Name = 51136651
REMARK  12 active torsions:
REMARK  status: ('A' for Active; 'I' for Inactive)
REMARK    1  A    between atoms: O_2  and  C_18
REMARK    2  A    between atoms: O_4  and  C_29
REMARK    3  A    between atoms: O_4  and  C_30
REMARK    4  A    between atoms: C_7  and  C_12
REMARK    5  A    between atoms: C_8  and  C_13
REMARK    6  A    between atoms: C_12  and  C_15
REMARK    7  A    between atoms: C_13  and  C_18
REMARK    8  A    between atoms: C_14  and  C_16
REMARK    9  A    between atoms: C_16  and  C_17
REMARK   10  A    between atoms: C_17  and  C_21
REMARK   11  A    between atoms: C_17  and  C_22
REMARK   12  A    between atoms: C_17  and  C_23
REMARK                            x       y       z     vdW  Elec       q    Type
REMARK                         _______ _______ _______ _____ _____    ______ ____
ROOT
ATOM      1  O   UNL     1      -2.310  -9.889  12.427  0.00  0.00    -0.276 OA
ATOM      5  N   UNL     1      -3.622 -11.178  13.845  0.00  0.00    -0.301 N 
ATOM      7  C   UNL     1      -5.297 -11.404  15.667  0.00  0.00    +0.016 C 
ATOM      8  C   UNL     1      -4.142 -11.769  16.634  0.00  0.00    +0.006 C 
ATOM      9  C   UNL     1      -4.909 -11.777  14.225  0.00  0.00    +0.112 C 
ATOM     10  C   UNL     1      -2.806 -11.164  16.171  0.00  0.00    +0.023 C 
ATOM     11  C   UNL     1      -2.504 -11.530  14.721  0.00  0.00    +0.108 C 
ATOM     14  C   UNL     1      -3.407 -10.359  12.738  0.00  0.00    +0.216 C 
ENDROOT
BRANCH   7  12
ATOM     12  C   UNL     1      -5.731  -9.935  15.740  0.00  0.00    +0.061 C 
BRANCH  12  15
ATOM      6  N   UNL     1      -7.642  -9.591  14.327  0.00  0.00    -0.287 NA
ATOM     15  C   UNL     1      -7.221  -9.829  15.526  0.00  0.00    +0.044 C 
ATOM     19  C   UNL     1      -8.125  -9.993  16.693  0.00  0.00    -0.001 A 
ATOM     20  C   UNL     1      -9.434  -9.514  16.549  0.00  0.00    -0.033 A 
ATOM     24  C   UNL     1      -9.092  -9.547  14.108  0.00  0.00    +0.146 C 
ATOM     25  C   UNL     1      -9.826  -8.865  15.255  0.00  0.00    +0.059 C 
ATOM     26  C   UNL     1      -7.712 -10.578  17.892  0.00  0.00    +0.013 A 
ATOM     27  C   UNL     1     -10.322  -9.602  17.625  0.00  0.00    +0.050 A 
ATOM     28  C   UNL     1      -8.611 -10.675  18.954  0.00  0.00    +0.046 A 
ATOM     29  C   UNL     1      -9.911 -10.186  18.824  0.00  0.00    +0.120 A 
BRANCH  29   4
ATOM      4  O   UNL     1     -10.781 -10.278  19.867  0.00  0.00    -0.495 OA
ATOM     30  C   UNL     1     -11.258 -11.581  20.201  0.00  0.00    +0.277 C 
ENDBRANCH  29   4
ENDBRANCH  12  15
ENDBRANCH   7  12
BRANCH   8  13
ATOM     13  C   UNL     1      -4.432 -11.390  18.086  0.00  0.00    +0.124 C 
BRANCH  13  18
ATOM      3  O   UNL     1      -3.284 -12.172  20.089  0.00  0.00    -0.251 OA
ATOM     18  C   UNL     1      -3.876 -12.405  19.046  0.00  0.00    +0.305 C 
BRANCH  18   2
ATOM      2  O   UNL     1      -4.128 -13.657  18.586  0.00  0.00    -0.481 OA
ATOM     31  H   UNL     1      -5.090 -13.846  18.547  0.00  0.00    +0.295 HD
ENDBRANCH  18   2
ENDBRANCH  13  18
ENDBRANCH   8  13
BRANCH  14  16
ATOM     16  C   UNL     1      -4.611 -10.041  11.889  0.00  0.00    +0.102 C 
BRANCH  16  17
ATOM     17  C   UNL     1      -4.454 -10.507  10.430  0.00  0.00    -0.029 C 
ATOM     21  C   UNL     1      -3.707 -11.850  10.353  0.00  0.00    +0.011 C 
ATOM     22  C   UNL     1      -3.707  -9.458   9.589  0.00  0.00    +0.011 C 
ATOM     23  C   UNL     1      -5.864 -10.695   9.840  0.00  0.00    +0.011 C 
ENDBRANCH  16  17
ENDBRANCH  14  16
TORSDOF 8
ENDMDL
MODEL 7
REMARK VINA RESULT:      -5.4      3.610      5.357
REMARK  Name = 51136651
REMARK  12 active torsions:
REMARK  status: ('A' for Active; 'I' for Inactive)
REMARK    1  A    between atoms: O_2  and  C_18
REMARK    2  A    between atoms: O_4  and  C_29
REMARK    3  A    between atoms: O_4  and  C_30
REMARK    4  A    between atoms: C_7  and  C_12
REMARK    5  A    between atoms: C_8  and  C_13
REMARK    6  A    between atoms: C_12  and  C_15
REMARK    7  A    between atoms: C_13  and  C_18
REMARK    8  A    between atoms: C_14  and  C_16
REMARK    9  A    between atoms: C_16  and  C_17
REMARK   10  A    between atoms: C_17  and  C_21
REMARK   11  A    between atoms: C_17  and  C_22
REMARK   12  A    between atoms: C_17  and  C_23
REMARK                            x       y       z     vdW  Elec       q    Type
REMARK                         _______ _______ _______ _____ _____    ______ ____
ROOT
ATOM      1  O   UNL     1      14.648   7.329  17.445  0.00  0.00    -0.276 OA
ATOM      5  N   UNL     1      15.413   7.266  19.637  0.00  0.00    -0.301 N 
ATOM      7  C   UNL     1      16.738   8.210  21.516  0.00  0.00    +0.016 C 
ATOM      8  C   UNL     1      17.809   7.120  21.260  0.00  0.00    +0.006 C 
ATOM      9  C   UNL     1      15.362   7.714  21.035  0.00  0.00    +0.112 C 
ATOM     10  C   UNL     1      17.793   6.645  19.797  0.00  0.00    +0.023 C 
ATOM     11  C   UNL     1      16.393   6.214  19.368  0.00  0.00    +0.108 C 
ATOM     14  C   UNL     1      14.602   7.741  18.606  0.00  0.00    +0.216 C 
ENDROOT
BRANCH   7  12
ATOM     12  C   UNL     1      17.065   9.568  20.884  0.00  0.00    +0.061 C 
BRANCH  12  15
ATOM      6  N   UNL     1      15.767  10.658  22.584  0.00  0.00    -0.287 NA
ATOM     15  C   UNL     1      16.053  10.597  21.325  0.00  0.00    +0.044 C 
ATOM     19  C   UNL     1      15.435  11.478  20.301  0.00  0.00    -0.001 A 
ATOM     20  C   UNL     1      14.251  12.133  20.665  0.00  0.00    -0.033 A 
ATOM     24  C   UNL     1      14.829  11.699  23.021  0.00  0.00    +0.146 C 
ATOM     25  C   UNL     1      13.686  11.895  22.034  0.00  0.00    +0.059 C 
ATOM     26  C   UNL     1      15.978  11.651  19.026  0.00  0.00    +0.013 A 
ATOM     27  C   UNL     1      13.598  12.944  19.733  0.00  0.00    +0.050 A 
ATOM     28  C   UNL     1      15.327  12.476  18.109  0.00  0.00    +0.046 A 
ATOM     29  C   UNL     1      14.139  13.118  18.458  0.00  0.00    +0.120 A 
BRANCH  29   4
ATOM      4  O   UNL     1      13.505  13.915  17.554  0.00  0.00    -0.495 OA
ATOM     30  C   UNL     1      12.826  15.062  18.066  0.00  0.00    +0.277 C 
ENDBRANCH  29   4
ENDBRANCH  12  15
ENDBRANCH   7  12
BRANCH   8  13
ATOM     13  C   UNL     1      19.216   7.552  21.671  0.00  0.00    +0.124 C 
BRANCH  13  18
ATOM      3  O   UNL     1      20.692   5.622  21.863  0.00  0.00    -0.251 OA
ATOM     18  C   UNL     1      19.952   6.447  22.377  0.00  0.00    +0.305 C 
BRANCH  18   2
ATOM      2  O   UNL     1      19.677   6.489  23.705  0.00  0.00    -0.481 OA
ATOM     31  H   UNL     1      18.734   6.295  23.891  0.00  0.00    +0.295 HD
ENDBRANCH  18   2
ENDBRANCH  13  18
ENDBRANCH   8  13
BRANCH  14  16
ATOM     16  C   UNL     1      13.620   8.827  18.965  0.00  0.00    +0.102 C 
BRANCH  16  17
ATOM     17  C   UNL     1      12.188   8.298  19.161  0.00  0.00    -0.029 C 
ATOM     21  C   UNL     1      11.443   9.100  20.243  0.00  0.00    +0.011 C 
ATOM     22  C   UNL     1      12.194   6.808  19.543  0.00  0.00    +0.011 C 
ATOM     23  C   UNL     1      11.438   8.460  17.826  0.00  0.00    +0.011 C 
ENDBRANCH  16  17
ENDBRANCH  14  16
TORSDOF 8
ENDMDL
MODEL 8
REMARK VINA RESULT:      -5.4      3.531      4.488
REMARK  Name = 51136651
REMARK  12 active torsions:
REMARK  status: ('A' for Active; 'I' for Inactive)
REMARK    1  A    between atoms: O_2  and  C_18
REMARK    2  A    between atoms: O_4  and  C_29
REMARK    3  A    between atoms: O_4  and  C_30
REMARK    4  A    between atoms: C_7  and  C_12
REMARK    5  A    between atoms: C_8  and  C_13
REMARK    6  A    between atoms: C_12  and  C_15
REMARK    7  A    between atoms: C_13  and  C_18
REMARK    8  A    between atoms: C_14  and  C_16
REMARK    9  A    between atoms: C_16  and  C_17
REMARK   10  A    between atoms: C_17  and  C_21
REMARK   11  A    between atoms: C_17  and  C_22
REMARK   12  A    between atoms: C_17  and  C_23
REMARK                            x       y       z     vdW  Elec       q    Type
REMARK                         _______ _______ _______ _____ _____    ______ ____
ROOT
ATOM      1  O   UNL     1      13.950   7.335  17.984  0.00  0.00    -0.276 OA
ATOM      5  N   UNL     1      15.102   7.329  20.001  0.00  0.00    -0.301 N 
ATOM      7  C   UNL     1      16.799   8.276  21.551  0.00  0.00    +0.016 C 
ATOM      8  C   UNL     1      17.745   7.111  21.168  0.00  0.00    +0.006 C 
ATOM      9  C   UNL     1      15.334   7.845  21.357  0.00  0.00    +0.112 C 
ATOM     10  C   UNL     1      17.435   6.568  19.762  0.00  0.00    +0.023 C 
ATOM     11  C   UNL     1      15.959   6.206  19.621  0.00  0.00    +0.108 C 
ATOM     14  C   UNL     1      14.141   7.804  19.109  0.00  0.00    +0.216 C 
ENDROOT
BRANCH   7  12
ATOM     12  C   UNL     1      17.075   9.579  20.791  0.00  0.00    +0.061 C 
BRANCH  12  15
ATOM      6  N   UNL     1      18.424  10.932  22.245  0.00  0.00    -0.287 NA
ATOM     15  C   UNL     1      17.243  10.717  21.768  0.00  0.00    +0.044 C 
ATOM     19  C   UNL     1      16.052  11.525  22.137  0.00  0.00    -0.001 A 
ATOM     20  C   UNL     1      16.149  12.296  23.303  0.00  0.00    -0.033 A 
ATOM     24  C   UNL     1      18.600  12.076  23.147  0.00  0.00    +0.146 C 
ATOM     25  C   UNL     1      17.420  12.245  24.097  0.00  0.00    +0.059 C 
ATOM     26  C   UNL     1      14.876  11.523  21.385  0.00  0.00    +0.013 A 
ATOM     27  C   UNL     1      15.049  13.046  23.727  0.00  0.00    +0.050 A 
ATOM     28  C   UNL     1      13.789  12.289  21.808  0.00  0.00    +0.046 A 
ATOM     29  C   UNL     1      13.872  13.046  22.977  0.00  0.00    +0.120 A 
BRANCH  29   4
ATOM      4  O   UNL     1      12.805  13.784  23.387  0.00  0.00    -0.495 OA
ATOM     30  C   UNL     1      11.565  13.096  23.551  0.00  0.00    +0.277 C 
ENDBRANCH  29   4
ENDBRANCH  12  15
ENDBRANCH   7  12
BRANCH   8  13
ATOM     13  C   UNL     1      19.225   7.473  21.291  0.00  0.00    +0.124 C 
BRANCH  13  18
ATOM      3  O   UNL     1      20.217   6.181  23.104  0.00  0.00    -0.251 OA
ATOM     18  C   UNL     1      19.744   7.225  22.680  0.00  0.00    +0.305 C 
BRANCH  18   2
ATOM      2  O   UNL     1      19.613   8.352  23.426  0.00  0.00    -0.481 OA
ATOM     31  H   UNL     1      19.224   8.165  24.307  0.00  0.00    +0.295 HD
ENDBRANCH  18   2
ENDBRANCH  13  18
ENDBRANCH   8  13
BRANCH  14  16
ATOM     16  C   UNL     1      13.301   8.965  19.576  0.00  0.00    +0.102 C 
BRANCH  16  17
ATOM     17  C   UNL     1      11.898   8.539  20.044  0.00  0.00    -0.029 C 
ATOM     21  C   UNL     1      11.365   9.484  21.134  0.00  0.00    +0.011 C 
ATOM     22  C   UNL     1      11.905   7.096  20.576  0.00  0.00    +0.011 C 
ATOM     23  C   UNL     1      10.954   8.610  18.829  0.00  0.00    +0.011 C 
ENDBRANCH  16  17
ENDBRANCH  14  16
TORSDOF 8
ENDMDL
MODEL 9
REMARK VINA RESULT:      -5.3     13.539     18.092
REMARK  Name = 51136651
REMARK  12 active torsions:
REMARK  status: ('A' for Active; 'I' for Inactive)
REMARK    1  A    between atoms: O_2  and  C_18
REMARK    2  A    between atoms: O_4  and  C_29
REMARK    3  A    between atoms: O_4  and  C_30
REMARK    4  A    between atoms: C_7  and  C_12
REMARK    5  A    between atoms: C_8  and  C_13
REMARK    6  A    between atoms: C_12  and  C_15
REMARK    7  A    between atoms: C_13  and  C_18
REMARK    8  A    between atoms: C_14  and  C_16
REMARK    9  A    between atoms: C_16  and  C_17
REMARK   10  A    between atoms: C_17  and  C_21
REMARK   11  A    between atoms: C_17  and  C_22
REMARK   12  A    between atoms: C_17  and  C_23
REMARK                            x       y       z     vdW  Elec       q    Type
REMARK                         _______ _______ _______ _____ _____    ______ ____
ROOT
ATOM      1  O   UNL     1      10.751  11.000   5.405  0.00  0.00    -0.276 OA
ATOM      5  N   UNL     1      11.242   8.869   6.189  0.00  0.00    -0.301 N 
ATOM      7  C   UNL     1      10.698   6.458   6.448  0.00  0.00    +0.016 C 
ATOM      8  C   UNL     1      10.279   6.748   7.912  0.00  0.00    +0.006 C 
ATOM      9  C   UNL     1      11.733   7.500   5.986  0.00  0.00    +0.112 C 
ATOM     10  C   UNL     1       9.820   8.205   8.090  0.00  0.00    +0.023 C 
ATOM     11  C   UNL     1      10.867   9.185   7.568  0.00  0.00    +0.108 C 
ATOM     14  C   UNL     1      11.144   9.849   5.201  0.00  0.00    +0.216 C 
ENDROOT
BRANCH   7  12
ATOM     12  C   UNL     1       9.525   6.399   5.463  0.00  0.00    +0.061 C 
BRANCH  12  15
ATOM      6  N   UNL     1      10.615   4.740   4.112  0.00  0.00    -0.287 NA
ATOM     15  C   UNL     1      10.001   5.877   4.129  0.00  0.00    +0.044 C 
ATOM     19  C   UNL     1       9.750   6.690   2.911  0.00  0.00    -0.001 A 
ATOM     20  C   UNL     1      10.521   6.387   1.781  0.00  0.00    -0.033 A 
ATOM     24  C   UNL     1      11.024   4.204   2.809  0.00  0.00    +0.146 C 
ATOM     25  C   UNL     1      11.541   5.291   1.876  0.00  0.00    +0.059 C 
ATOM     26  C   UNL     1       8.810   7.721   2.872  0.00  0.00    +0.013 A 
ATOM     27  C   UNL     1      10.362   7.142   0.616  0.00  0.00    +0.050 A 
ATOM     28  C   UNL     1       8.648   8.459   1.699  0.00  0.00    +0.046 A 
ATOM     29  C   UNL     1       9.423   8.174   0.575  0.00  0.00    +0.120 A 
BRANCH  29   4
ATOM      4  O   UNL     1       9.264   8.903  -0.564  0.00  0.00    -0.495 OA
ATOM     30  C   UNL     1       8.139   8.587  -1.384  0.00  0.00    +0.277 C 
ENDBRANCH  29   4
ENDBRANCH  12  15
ENDBRANCH   7  12
BRANCH   8  13
ATOM     13  C   UNL     1       9.217   5.781   8.434  0.00  0.00    +0.124 C 
BRANCH  13  18
ATOM      3  O   UNL     1       9.965   4.656  10.463  0.00  0.00    -0.251 OA
ATOM     18  C   UNL     1       9.827   4.674   9.250  0.00  0.00    +0.305 C 
BRANCH  18   2
ATOM      2  O   UNL     1      10.218   3.664   8.431  0.00  0.00    -0.481 OA
ATOM     31  H   UNL     1       9.741   2.830   8.624  0.00  0.00    +0.295 HD
ENDBRANCH  18   2
ENDBRANCH  13  18
ENDBRANCH   8  13
BRANCH  14  16
ATOM     16  C   UNL     1      11.546   9.443   3.806  0.00  0.00    +0.102 C 
BRANCH  16  17
ATOM     17  C   UNL     1      13.000   9.821   3.469  0.00  0.00    -0.029 C 
ATOM     21  C   UNL     1      13.745  10.330   4.715  0.00  0.00    +0.011 C 
ATOM     22  C   UNL     1      13.054  10.893   2.367  0.00  0.00    +0.011 C 
ATOM     23  C   UNL     1      13.710   8.554   2.957  0.00  0.00    +0.011 C 
ENDBRANCH  16  17
ENDBRANCH  14  16
TORSDOF 8
ENDMDL
MODEL 10
REMARK VINA RESULT:      -5.2     23.298     27.225
REMARK  Name = 51136651
REMARK  12 active torsions:
REMARK  status: ('A' for Active; 'I' for Inactive)
REMARK    1  A    between atoms: O_2  and  C_18
REMARK    2  A    between atoms: O_4  and  C_29
REMARK    3  A    between atoms: O_4  and  C_30
REMARK    4  A    between atoms: C_7  and  C_12
REMARK    5  A    between atoms: C_8  and  C_13
REMARK    6  A    between atoms: C_12  and  C_15
REMARK    7  A    between atoms: C_13  and  C_18
REMARK    8  A    between atoms: C_14  and  C_16
REMARK    9  A    between atoms: C_16  and  C_17
REMARK   10  A    between atoms: C_17  and  C_21
REMARK   11  A    between atoms: C_17  and  C_22
REMARK   12  A    between atoms: C_17  and  C_23
REMARK                            x       y       z     vdW  Elec       q    Type
REMARK                         _______ _______ _______ _____ _____    ______ ____
ROOT
ATOM      1  O   UNL     1       2.664 -13.955  35.974  0.00  0.00    -0.276 OA
ATOM      5  N   UNL     1       2.990 -11.658  35.881  0.00  0.00    -0.301 N 
ATOM      7  C   UNL     1       4.412  -9.669  35.432  0.00  0.00    +0.016 C 
ATOM      8  C   UNL     1       4.581  -9.490  36.962  0.00  0.00    +0.006 C 
ATOM      9  C   UNL     1       3.089 -10.397  35.134  0.00  0.00    +0.112 C 
ATOM     10  C   UNL     1       4.420 -10.826  37.709  0.00  0.00    +0.023 C 
ATOM     11  C   UNL     1       3.113 -11.518  37.332  0.00  0.00    +0.108 C 
ATOM     14  C   UNL     1       2.768 -12.915  35.320  0.00  0.00    +0.216 C 
ENDROOT
BRANCH   7  12
ATOM     12  C   UNL     1       5.582 -10.395  34.756  0.00  0.00    +0.061 C 
BRANCH  12  15
ATOM      6  N   UNL     1       6.096  -8.281  33.739  0.00  0.00    -0.287 NA
ATOM     15  C   UNL     1       6.105  -9.567  33.608  0.00  0.00    +0.044 C 
ATOM     19  C   UNL     1       6.595 -10.261  32.389  0.00  0.00    -0.001 A 
ATOM     20  C   UNL     1       6.702  -9.491  31.224  0.00  0.00    -0.033 A 
ATOM     24  C   UNL     1       6.660  -7.479  32.648  0.00  0.00    +0.146 C 
ATOM     25  C   UNL     1       6.309  -8.044  31.277  0.00  0.00    +0.059 C 
ATOM     26  C   UNL     1       6.924 -11.618  32.374  0.00  0.00    +0.013 A 
ATOM     27  C   UNL     1       7.118 -10.094  30.034  0.00  0.00    +0.050 A 
ATOM     28  C   UNL     1       7.353 -12.207  31.185  0.00  0.00    +0.046 A 
ATOM     29  C   UNL     1       7.447 -11.450  30.017  0.00  0.00    +0.120 A 
BRANCH  29   4
ATOM      4  O   UNL     1       7.860 -12.035  28.858  0.00  0.00    -0.495 OA
ATOM     30  C   UNL     1       7.490 -13.398  28.652  0.00  0.00    +0.277 C 
ENDBRANCH  29   4
ENDBRANCH  12  15
ENDBRANCH   7  12
BRANCH   8  13
ATOM     13  C   UNL     1       5.896  -8.813  37.346  0.00  0.00    +0.124 C 
BRANCH  13  18
ATOM      3  O   UNL     1       5.142  -6.648  38.174  0.00  0.00    -0.251 OA
ATOM     18  C   UNL     1       5.765  -7.315  37.362  0.00  0.00    +0.305 C 
BRANCH  18   2
ATOM      2  O   UNL     1       6.455  -6.784  36.320  0.00  0.00    -0.481 OA
ATOM     31  H   UNL     1       7.069  -6.076  36.610  0.00  0.00    +0.295 HD
ENDBRANCH  18   2
ENDBRANCH  13  18
ENDBRANCH   8  13
BRANCH  14  16
ATOM     16  C   UNL     1       2.656 -12.974  33.818  0.00  0.00    +0.102 C 
BRANCH  16  17
ATOM     17  C   UNL     1       3.610 -14.004  33.187  0.00  0.00    -0.029 C 
ATOM     21  C   UNL     1       4.929 -14.095  33.974  0.00  0.00    +0.011 C 
ATOM     22  C   UNL     1       3.913 -13.655  31.720  0.00  0.00    +0.011 C 
ATOM     23  C   UNL     1       2.916 -15.378  33.232  0.00  0.00    +0.011 C 
ENDBRANCH  16  17
ENDBRANCH  14  16
TORSDOF 8
ENDMDL
