REMARK  Name = 7674709
REMARK  4 active torsions:
REMARK  status: ('A' for Active; 'I' for Inactive)
REMARK    1  A    between atoms: O_7  and  C_31
REMARK    2  A    between atoms: O_7  and  C_32
REMARK    3  A    between atoms: C_19  and  C_22
REMARK    4  A    between atoms: C_20  and  C_23
REMARK                            x       y       z     vdW  Elec       q    Type
REMARK                         _______ _______ _______ _____ _____    ______ ____
ROOT
ATOM      5  O   UNL     1      -0.446  -1.847   1.312  0.00  0.00    -0.267 OA
ATOM      6  O   UNL     1       3.359   1.343   2.498  0.00  0.00    -0.269 OA
ATOM      8  N   UNL     1       4.139  -0.010   0.756  0.00  0.00    -0.296 N 
ATOM      9  N   UNL     1       1.558  -1.718   0.127  0.00  0.00    -0.311 N 
ATOM     10  C   UNL     1       3.801  -2.445   1.130  0.00  0.00    +0.027 C 
ATOM     11  C   UNL     1       3.717  -1.536  -1.157  0.00  0.00    +0.054 C 
ATOM     12  C   UNL     1       4.200  -2.717  -0.317  0.00  0.00    +0.018 C 
ATOM     13  C   UNL     1       4.451  -1.142   1.629  0.00  0.00    +0.113 C 
ATOM     14  C   UNL     1       2.270  -2.399   1.218  0.00  0.00    +0.130 C 
ATOM     15  C   UNL     1       4.404  -0.242  -0.673  0.00  0.00    +0.117 C 
ATOM     16  C   UNL     1       2.212  -1.376  -1.060  0.00  0.00    +0.027 A 
ATOM     17  C   UNL     1       1.518  -0.868  -2.091  0.00  0.00    +0.022 A 
ATOM     18  C   UNL     1       0.173  -1.527   0.296  0.00  0.00    +0.259 A 
ATOM     19  C   UNL     1       3.582   1.148   1.304  0.00  0.00    +0.253 C 
ATOM     20  C   UNL     1      -0.570  -0.912  -0.859  0.00  0.00    +0.047 A 
ATOM     21  C   UNL     1       0.106  -0.629  -1.983  0.00  0.00    +0.015 A 
ENDROOT
BRANCH  20  23
ATOM     23  C   UNL     1      -2.007  -0.606  -0.766  0.00  0.00    -0.012 A 
ATOM     25  C   UNL     1      -2.951  -1.557  -1.155  0.00  0.00    +0.012 A 
ATOM     26  C   UNL     1      -2.426   0.636  -0.288  0.00  0.00    +0.012 A 
ATOM     29  C   UNL     1      -4.312  -1.266  -1.066  0.00  0.00    +0.046 A 
ATOM     30  C   UNL     1      -3.788   0.927  -0.199  0.00  0.00    +0.046 A 
ATOM     31  C   UNL     1      -4.730  -0.025  -0.589  0.00  0.00    +0.130 A 
BRANCH  31   7
ATOM      7  O   UNL     1      -6.059   0.259  -0.503  0.00  0.00    -0.406 OA
BRANCH   7  32
ATOM      2  F   UNL     1      -5.922  -0.058   1.758  0.00  0.00    -0.133 F 
ATOM      3  F   UNL     1      -7.885   0.154   0.820  0.00  0.00    -0.133 F 
ATOM      4  F   UNL     1      -6.590   1.905   0.994  0.00  0.00    -0.133 F 
ATOM     32  C   UNL     1      -6.600   0.573   0.776  0.00  0.00    +0.575 C 
ENDBRANCH   7  32
ENDBRANCH  31   7
ENDBRANCH  20  23
BRANCH  19  22
ATOM      1  S   UNL     1       4.350   3.432   0.005  0.00  0.00    -0.092 S 
ATOM     22  C   UNL     1       3.199   2.228   0.389  0.00  0.00    +0.074 A 
ATOM     24  C   UNL     1       1.995   2.433  -0.240  0.00  0.00    +0.021 A 
ATOM     27  C   UNL     1       2.015   3.602  -1.055  0.00  0.00    +0.008 A 
ATOM     28  C   UNL     1       3.235   4.240  -1.014  0.00  0.00    +0.046 A 
ENDBRANCH  19  22
TORSDOF 4
