MODEL 1
REMARK VINA RESULT:      -6.4      0.000      0.000
REMARK  Name = 75536057
REMARK  7 active torsions:
REMARK  status: ('A' for Active; 'I' for Inactive)
REMARK    1  A    between atoms: O_1  and  C_8
REMARK    2  A    between atoms: O_2  and  C_10
REMARK    3  A    between atoms: O_4  and  C_21
REMARK    4  A    between atoms: O_4  and  C_24
REMARK    5  A    between atoms: N_5  and  C_7
REMARK    6  A    between atoms: C_6  and  C_11
REMARK    7  A    between atoms: C_14  and  C_17
REMARK                            x       y       z     vdW  Elec       q    Type
REMARK                         _______ _______ _______ _____ _____    ______ ____
ROOT
ATOM      6  C   UNL     1      -3.677 -12.867  12.384  0.00  0.00    +0.044 C 
ATOM      7  C   UNL     1      -3.136 -13.148  13.804  0.00  0.00    +0.112 C 
ATOM      8  C   UNL     1      -3.093 -14.674  13.873  0.00  0.00    +0.164 C 
ATOM      9  C   UNL     1      -3.354 -14.134  11.550  0.00  0.00    +0.044 C 
ATOM     10  C   UNL     1      -2.593 -15.069  12.489  0.00  0.00    +0.145 C 
ENDROOT
BRANCH   6  11
ATOM     11  C   UNL     1      -3.145 -11.579  11.793  0.00  0.00    -0.042 A 
ATOM     12  C   UNL     1      -1.933 -11.053  12.242  0.00  0.00    +0.004 A 
ATOM     13  C   UNL     1      -3.867 -10.916  10.800  0.00  0.00    +0.004 A 
ATOM     15  C   UNL     1      -1.444  -9.866  11.698  0.00  0.00    +0.000 A 
ATOM     16  C   UNL     1      -3.377  -9.728  10.256  0.00  0.00    +0.000 A 
ATOM     18  C   UNL     1      -2.166  -9.203  10.705  0.00  0.00    +0.000 A 
ENDBRANCH   6  11
BRANCH   7   5
ATOM      3  O   UNL     1      -2.394 -11.174  15.754  0.00  0.00    -0.270 OA
ATOM      5  N   UNL     1      -3.982 -12.587  14.826  0.00  0.00    -0.305 N 
ATOM     14  C   UNL     1      -3.534 -11.632  15.729  0.00  0.00    +0.244 C 
ATOM     25  H   UNL     1      -4.903 -12.998  14.939  0.00  0.00    +0.149 HD
BRANCH  14  17
ATOM     17  C   UNL     1      -4.523 -11.174  16.738  0.00  0.00    +0.040 A 
ATOM     19  C   UNL     1      -5.576 -10.343  16.355  0.00  0.00    +0.058 A 
ATOM     20  C   UNL     1      -4.399 -11.575  18.068  0.00  0.00    +0.013 A 
ATOM     21  C   UNL     1      -6.505  -9.913  17.302  0.00  0.00    +0.121 A 
ATOM     22  C   UNL     1      -5.328 -11.145  19.015  0.00  0.00    +0.004 A 
ATOM     23  C   UNL     1      -6.382 -10.314  18.632  0.00  0.00    +0.045 A 
BRANCH  21   4
ATOM      4  O   UNL     1      -7.532  -9.102  16.929  0.00  0.00    -0.495 OA
ATOM     24  C   UNL     1      -8.835  -9.450  17.393  0.00  0.00    +0.277 C 
ENDBRANCH  21   4
ENDBRANCH  14  17
ENDBRANCH   7   5
BRANCH   8   1
ATOM      1  O   UNL     1      -2.221 -15.141  14.884  0.00  0.00    -0.387 OA
ATOM     26  H   UNL     1      -2.335 -16.106  14.945  0.00  0.00    +0.210 HD
ENDBRANCH   8   1
BRANCH  10   2
ATOM      2  O   UNL     1      -1.198 -14.811  12.358  0.00  0.00    -0.389 OA
ATOM     27  H   UNL     1      -0.752 -15.669  12.250  0.00  0.00    +0.210 HD
ENDBRANCH  10   2
TORSDOF 6
ENDMDL
MODEL 2
REMARK VINA RESULT:      -6.1     23.597     27.068
REMARK  Name = 75536057
REMARK  7 active torsions:
REMARK  status: ('A' for Active; 'I' for Inactive)
REMARK    1  A    between atoms: O_1  and  C_8
REMARK    2  A    between atoms: O_2  and  C_10
REMARK    3  A    between atoms: O_4  and  C_21
REMARK    4  A    between atoms: O_4  and  C_24
REMARK    5  A    between atoms: N_5  and  C_7
REMARK    6  A    between atoms: C_6  and  C_11
REMARK    7  A    between atoms: C_14  and  C_17
REMARK                            x       y       z     vdW  Elec       q    Type
REMARK                         _______ _______ _______ _____ _____    ______ ____
ROOT
ATOM      6  C   UNL     1      10.157   6.338   5.126  0.00  0.00    +0.044 C 
ATOM      7  C   UNL     1      11.386   6.202   6.053  0.00  0.00    +0.112 C 
ATOM      8  C   UNL     1      10.768   6.040   7.441  0.00  0.00    +0.164 C 
ATOM      9  C   UNL     1       8.978   5.676   5.885  0.00  0.00    +0.044 C 
ATOM     10  C   UNL     1       9.572   5.131   7.184  0.00  0.00    +0.145 C 
ENDROOT
BRANCH   6  11
ATOM     11  C   UNL     1      10.397   5.781   3.739  0.00  0.00    -0.042 A 
ATOM     12  C   UNL     1      10.098   6.551   2.615  0.00  0.00    +0.004 A 
ATOM     13  C   UNL     1      10.918   4.496   3.584  0.00  0.00    +0.004 A 
ATOM     15  C   UNL     1      10.319   6.038   1.338  0.00  0.00    +0.000 A 
ATOM     16  C   UNL     1      11.139   3.982   2.306  0.00  0.00    +0.000 A 
ATOM     18  C   UNL     1      10.839   4.752   1.183  0.00  0.00    +0.000 A 
ENDBRANCH   6  11
BRANCH   7   5
ATOM      3  O   UNL     1      14.067   6.403   7.064  0.00  0.00    -0.270 OA
ATOM      5  N   UNL     1      12.249   7.353   5.979  0.00  0.00    -0.305 N 
ATOM     14  C   UNL     1      13.537   7.357   6.499  0.00  0.00    +0.244 C 
ATOM     25  H   UNL     1      11.842   8.213   5.627  0.00  0.00    +0.149 HD
BRANCH  14  17
ATOM     17  C   UNL     1      14.289   8.630   6.366  0.00  0.00    +0.040 A 
ATOM     19  C   UNL     1      15.640   8.611   6.019  0.00  0.00    +0.058 A 
ATOM     20  C   UNL     1      13.645   9.848   6.587  0.00  0.00    +0.013 A 
ATOM     21  C   UNL     1      16.347   9.806   5.894  0.00  0.00    +0.121 A 
ATOM     22  C   UNL     1      14.351  11.044   6.462  0.00  0.00    +0.004 A 
ATOM     23  C   UNL     1      15.702  11.023   6.114  0.00  0.00    +0.045 A 
BRANCH  21   4
ATOM      4  O   UNL     1      17.665   9.787   5.555  0.00  0.00    -0.495 OA
ATOM     24  C   UNL     1      18.490   8.828   6.214  0.00  0.00    +0.277 C 
ENDBRANCH  21   4
ENDBRANCH  14  17
ENDBRANCH   7   5
BRANCH   8   1
ATOM      1  O   UNL     1      11.666   5.453   8.363  0.00  0.00    -0.387 OA
ATOM     26  H   UNL     1      11.385   5.721   9.255  0.00  0.00    +0.210 HD
ENDBRANCH   8   1
BRANCH  10   2
ATOM      2  O   UNL     1       9.990   3.787   6.967  0.00  0.00    -0.389 OA
ATOM     27  H   UNL     1      10.242   3.708   6.030  0.00  0.00    +0.210 HD
ENDBRANCH  10   2
TORSDOF 6
ENDMDL
MODEL 3
REMARK VINA RESULT:      -6.0     21.359     24.534
REMARK  Name = 75536057
REMARK  7 active torsions:
REMARK  status: ('A' for Active; 'I' for Inactive)
REMARK    1  A    between atoms: O_1  and  C_8
REMARK    2  A    between atoms: O_2  and  C_10
REMARK    3  A    between atoms: O_4  and  C_21
REMARK    4  A    between atoms: O_4  and  C_24
REMARK    5  A    between atoms: N_5  and  C_7
REMARK    6  A    between atoms: C_6  and  C_11
REMARK    7  A    between atoms: C_14  and  C_17
REMARK                            x       y       z     vdW  Elec       q    Type
REMARK                         _______ _______ _______ _____ _____    ______ ____
ROOT
ATOM      6  C   UNL     1     -14.579   3.267  30.594  0.00  0.00    +0.044 C 
ATOM      7  C   UNL     1     -15.308   2.250  29.687  0.00  0.00    +0.112 C 
ATOM      8  C   UNL     1     -14.361   1.049  29.668  0.00  0.00    +0.164 C 
ATOM      9  C   UNL     1     -13.623   2.433  31.485  0.00  0.00    +0.044 C 
ATOM     10  C   UNL     1     -13.872   0.972  31.109  0.00  0.00    +0.145 C 
ENDROOT
BRANCH   6  11
ATOM     11  C   UNL     1     -15.530   4.159  31.365  0.00  0.00    -0.042 A 
ATOM     12  C   UNL     1     -15.870   5.416  30.863  0.00  0.00    +0.004 A 
ATOM     13  C   UNL     1     -16.066   3.724  32.577  0.00  0.00    +0.004 A 
ATOM     15  C   UNL     1     -16.745   6.236  31.573  0.00  0.00    +0.000 A 
ATOM     16  C   UNL     1     -16.942   4.546  33.287  0.00  0.00    +0.000 A 
ATOM     18  C   UNL     1     -17.281   5.802  32.786  0.00  0.00    +0.000 A 
ENDBRANCH   6  11
BRANCH   7   5
ATOM      3  O   UNL     1     -17.327   1.393  27.833  0.00  0.00    -0.270 OA
ATOM      5  N   UNL     1     -15.539   2.773  28.365  0.00  0.00    -0.305 N 
ATOM     14  C   UNL     1     -16.545   2.294  27.536  0.00  0.00    +0.244 C 
ATOM     25  H   UNL     1     -14.863   3.440  28.008  0.00  0.00    +0.149 HD
BRANCH  14  17
ATOM     17  C   UNL     1     -16.637   2.921  26.193  0.00  0.00    +0.040 A 
ATOM     19  C   UNL     1     -16.714   2.120  25.053  0.00  0.00    +0.058 A 
ATOM     20  C   UNL     1     -16.645   4.310  26.071  0.00  0.00    +0.013 A 
ATOM     21  C   UNL     1     -16.800   2.709  23.792  0.00  0.00    +0.121 A 
ATOM     22  C   UNL     1     -16.731   4.899  24.809  0.00  0.00    +0.004 A 
ATOM     23  C   UNL     1     -16.809   4.098  23.669  0.00  0.00    +0.045 A 
BRANCH  21   4
ATOM      4  O   UNL     1     -16.875   1.928  22.679  0.00  0.00    -0.495 OA
ATOM     24  C   UNL     1     -18.178   1.647  22.171  0.00  0.00    +0.277 C 
ENDBRANCH  21   4
ENDBRANCH  14  17
ENDBRANCH   7   5
BRANCH   8   1
ATOM      1  O   UNL     1     -15.016  -0.144  29.286  0.00  0.00    -0.387 OA
ATOM     26  H   UNL     1     -14.361  -0.706  28.836  0.00  0.00    +0.210 HD
ENDBRANCH   8   1
BRANCH  10   2
ATOM      2  O   UNL     1     -14.883   0.446  31.964  0.00  0.00    -0.389 OA
ATOM     27  H   UNL     1     -15.302   1.199  32.415  0.00  0.00    +0.210 HD
ENDBRANCH  10   2
TORSDOF 6
ENDMDL
MODEL 4
REMARK VINA RESULT:      -6.0     23.575     26.607
REMARK  Name = 75536057
REMARK  7 active torsions:
REMARK  status: ('A' for Active; 'I' for Inactive)
REMARK    1  A    between atoms: O_1  and  C_8
REMARK    2  A    between atoms: O_2  and  C_10
REMARK    3  A    between atoms: O_4  and  C_21
REMARK    4  A    between atoms: O_4  and  C_24
REMARK    5  A    between atoms: N_5  and  C_7
REMARK    6  A    between atoms: C_6  and  C_11
REMARK    7  A    between atoms: C_14  and  C_17
REMARK                            x       y       z     vdW  Elec       q    Type
REMARK                         _______ _______ _______ _____ _____    ______ ____
ROOT
ATOM      6  C   UNL     1      11.680   6.289   6.708  0.00  0.00    +0.044 C 
ATOM      7  C   UNL     1      10.651   6.262   5.554  0.00  0.00    +0.112 C 
ATOM      8  C   UNL     1       9.453   5.533   6.164  0.00  0.00    +0.164 C 
ATOM      9  C   UNL     1      10.857   6.141   8.013  0.00  0.00    +0.044 C 
ATOM     10  C   UNL     1       9.392   6.094   7.580  0.00  0.00    +0.145 C 
ENDROOT
BRANCH   6  11
ATOM     11  C   UNL     1      12.577   7.509   6.671  0.00  0.00    -0.042 A 
ATOM     12  C   UNL     1      12.054   8.769   6.966  0.00  0.00    +0.004 A 
ATOM     13  C   UNL     1      13.925   7.374   6.339  0.00  0.00    +0.004 A 
ATOM     15  C   UNL     1      12.880   9.891   6.931  0.00  0.00    +0.000 A 
ATOM     16  C   UNL     1      14.751   8.498   6.304  0.00  0.00    +0.000 A 
ATOM     18  C   UNL     1      14.228   9.756   6.600  0.00  0.00    +0.000 A 
ENDBRANCH   6  11
BRANCH   7   5
ATOM      3  O   UNL     1       9.749   6.581   2.847  0.00  0.00    -0.270 OA
ATOM      5  N   UNL     1      11.160   5.580   4.392  0.00  0.00    -0.305 N 
ATOM     14  C   UNL     1      10.659   5.800   3.116  0.00  0.00    +0.244 C 
ATOM     25  H   UNL     1      11.835   4.839   4.550  0.00  0.00    +0.149 HD
BRANCH  14  17
ATOM     17  C   UNL     1      11.274   4.999   2.027  0.00  0.00    +0.040 A 
ATOM     19  C   UNL     1      12.537   4.435   2.204  0.00  0.00    +0.058 A 
ATOM     20  C   UNL     1      10.588   4.810   0.827  0.00  0.00    +0.013 A 
ATOM     21  C   UNL     1      13.115   3.683   1.182  0.00  0.00    +0.121 A 
ATOM     22  C   UNL     1      11.165   4.057  -0.195  0.00  0.00    +0.004 A 
ATOM     23  C   UNL     1      12.429   3.493  -0.017  0.00  0.00    +0.045 A 
BRANCH  21   4
ATOM      4  O   UNL     1      14.348   3.132   1.354  0.00  0.00    -0.495 OA
ATOM     24  C   UNL     1      15.450   3.808   0.752  0.00  0.00    +0.277 C 
ENDBRANCH  21   4
ENDBRANCH  14  17
ENDBRANCH   7   5
BRANCH   8   1
ATOM      1  O   UNL     1       8.254   5.791   5.460  0.00  0.00    -0.387 OA
ATOM     26  H   UNL     1       7.609   6.138   6.100  0.00  0.00    +0.210 HD
ENDBRANCH   8   1
BRANCH  10   2
ATOM      2  O   UNL     1       8.873   7.420   7.582  0.00  0.00    -0.389 OA
ATOM     27  H   UNL     1       7.954   7.373   7.898  0.00  0.00    +0.210 HD
ENDBRANCH  10   2
TORSDOF 6
ENDMDL
MODEL 5
REMARK VINA RESULT:      -6.0      1.737      2.500
REMARK  Name = 75536057
REMARK  7 active torsions:
REMARK  status: ('A' for Active; 'I' for Inactive)
REMARK    1  A    between atoms: O_1  and  C_8
REMARK    2  A    between atoms: O_2  and  C_10
REMARK    3  A    between atoms: O_4  and  C_21
REMARK    4  A    between atoms: O_4  and  C_24
REMARK    5  A    between atoms: N_5  and  C_7
REMARK    6  A    between atoms: C_6  and  C_11
REMARK    7  A    between atoms: C_14  and  C_17
REMARK                            x       y       z     vdW  Elec       q    Type
REMARK                         _______ _______ _______ _____ _____    ______ ____
ROOT
ATOM      6  C   UNL     1      -4.359 -11.833  12.367  0.00  0.00    +0.044 C 
ATOM      7  C   UNL     1      -3.803 -11.570  13.785  0.00  0.00    +0.112 C 
ATOM      8  C   UNL     1      -3.068 -12.866  14.124  0.00  0.00    +0.164 C 
ATOM      9  C   UNL     1      -3.461 -12.940  11.759  0.00  0.00    +0.044 C 
ATOM     10  C   UNL     1      -2.391 -13.235  12.810  0.00  0.00    +0.145 C 
ENDROOT
BRANCH   6  11
ATOM     11  C   UNL     1      -4.455 -10.576  11.528  0.00  0.00    -0.042 A 
ATOM     12  C   UNL     1      -5.524  -9.697  11.707  0.00  0.00    +0.004 A 
ATOM     13  C   UNL     1      -3.476 -10.298  10.574  0.00  0.00    +0.004 A 
ATOM     15  C   UNL     1      -5.613  -8.541  10.933  0.00  0.00    +0.000 A 
ATOM     16  C   UNL     1      -3.565  -9.140   9.800  0.00  0.00    +0.000 A 
ATOM     18  C   UNL     1      -4.634  -8.262   9.979  0.00  0.00    +0.000 A 
ENDBRANCH   6  11
BRANCH   7   5
ATOM      3  O   UNL     1      -3.503 -10.286  16.337  0.00  0.00    -0.270 OA
ATOM      5  N   UNL     1      -4.850 -11.281  14.732  0.00  0.00    -0.305 N 
ATOM     14  C   UNL     1      -4.608 -10.654  15.947  0.00  0.00    +0.244 C 
ATOM     25  H   UNL     1      -5.771 -11.656  14.529  0.00  0.00    +0.149 HD
BRANCH  14  17
ATOM     17  C   UNL     1      -5.791 -10.452  16.822  0.00  0.00    +0.040 A 
ATOM     19  C   UNL     1      -5.918 -11.184  18.003  0.00  0.00    +0.058 A 
ATOM     20  C   UNL     1      -6.775  -9.531  16.464  0.00  0.00    +0.013 A 
ATOM     21  C   UNL     1      -7.028 -10.995  18.826  0.00  0.00    +0.121 A 
ATOM     22  C   UNL     1      -7.886  -9.342  17.286  0.00  0.00    +0.004 A 
ATOM     23  C   UNL     1      -8.012 -10.074  18.468  0.00  0.00    +0.045 A 
BRANCH  21   4
ATOM      4  O   UNL     1      -7.152 -11.708  19.978  0.00  0.00    -0.495 OA
ATOM     24  C   UNL     1      -8.077 -12.794  19.973  0.00  0.00    +0.277 C 
ENDBRANCH  21   4
ENDBRANCH  14  17
ENDBRANCH   7   5
BRANCH   8   1
ATOM      1  O   UNL     1      -2.117 -12.689  15.157  0.00  0.00    -0.387 OA
ATOM     26  H   UNL     1      -1.234 -12.795  14.761  0.00  0.00    +0.210 HD
ENDBRANCH   8   1
BRANCH  10   2
ATOM      2  O   UNL     1      -1.266 -12.397  12.563  0.00  0.00    -0.389 OA
ATOM     27  H   UNL     1      -1.467 -11.865  11.773  0.00  0.00    +0.210 HD
ENDBRANCH  10   2
TORSDOF 6
ENDMDL
MODEL 6
REMARK VINA RESULT:      -6.0     21.934     25.043
REMARK  Name = 75536057
REMARK  7 active torsions:
REMARK  status: ('A' for Active; 'I' for Inactive)
REMARK    1  A    between atoms: O_1  and  C_8
REMARK    2  A    between atoms: O_2  and  C_10
REMARK    3  A    between atoms: O_4  and  C_21
REMARK    4  A    between atoms: O_4  and  C_24
REMARK    5  A    between atoms: N_5  and  C_7
REMARK    6  A    between atoms: C_6  and  C_11
REMARK    7  A    between atoms: C_14  and  C_17
REMARK                            x       y       z     vdW  Elec       q    Type
REMARK                         _______ _______ _______ _____ _____    ______ ____
ROOT
ATOM      6  C   UNL     1     -15.341   4.100  31.136  0.00  0.00    +0.044 C 
ATOM      7  C   UNL     1     -15.147   2.750  30.409  0.00  0.00    +0.112 C 
ATOM      8  C   UNL     1     -13.641   2.506  30.510  0.00  0.00    +0.164 C 
ATOM      9  C   UNL     1     -14.126   4.248  32.088  0.00  0.00    +0.044 C 
ATOM     10  C   UNL     1     -13.310   2.965  31.925  0.00  0.00    +0.145 C 
ENDROOT
BRANCH   6  11
ATOM     11  C   UNL     1     -16.687   4.214  31.821  0.00  0.00    -0.042 A 
ATOM     12  C   UNL     1     -16.764   4.206  33.214  0.00  0.00    +0.004 A 
ATOM     13  C   UNL     1     -17.850   4.325  31.059  0.00  0.00    +0.004 A 
ATOM     15  C   UNL     1     -18.004   4.310  33.844  0.00  0.00    +0.000 A 
ATOM     16  C   UNL     1     -19.090   4.429  31.690  0.00  0.00    +0.000 A 
ATOM     18  C   UNL     1     -19.167   4.421  33.082  0.00  0.00    +0.000 A 
ENDBRANCH   6  11
BRANCH   7   5
ATOM      3  O   UNL     1     -16.126   0.557  28.835  0.00  0.00    -0.270 OA
ATOM      5  N   UNL     1     -15.592   2.805  29.040  0.00  0.00    -0.305 N 
ATOM     14  C   UNL     1     -16.052   1.686  28.357  0.00  0.00    +0.244 C 
ATOM     25  H   UNL     1     -15.455   3.680  28.545  0.00  0.00    +0.149 HD
BRANCH  14  17
ATOM     17  C   UNL     1     -16.449   1.904  26.943  0.00  0.00    +0.040 A 
ATOM     19  C   UNL     1     -16.145   3.110  26.310  0.00  0.00    +0.058 A 
ATOM     20  C   UNL     1     -17.127   0.904  26.246  0.00  0.00    +0.013 A 
ATOM     21  C   UNL     1     -16.518   3.315  24.982  0.00  0.00    +0.121 A 
ATOM     22  C   UNL     1     -17.500   1.109  24.919  0.00  0.00    +0.004 A 
ATOM     23  C   UNL     1     -17.195   2.314  24.286  0.00  0.00    +0.045 A 
BRANCH  21   4
ATOM      4  O   UNL     1     -16.220   4.490  24.364  0.00  0.00    -0.495 OA
ATOM     24  C   UNL     1     -14.920   4.612  23.792  0.00  0.00    +0.277 C 
ENDBRANCH  21   4
ENDBRANCH  14  17
ENDBRANCH   7   5
BRANCH   8   1
ATOM      1  O   UNL     1     -13.305   1.145  30.323  0.00  0.00    -0.387 OA
ATOM     26  H   UNL     1     -13.896   0.618  30.888  0.00  0.00    +0.210 HD
ENDBRANCH   8   1
BRANCH  10   2
ATOM      2  O   UNL     1     -13.757   2.015  32.887  0.00  0.00    -0.389 OA
ATOM     27  H   UNL     1     -14.585   1.628  32.552  0.00  0.00    +0.210 HD
ENDBRANCH  10   2
TORSDOF 6
ENDMDL
MODEL 7
REMARK VINA RESULT:      -5.9      2.316      6.807
REMARK  Name = 75536057
REMARK  7 active torsions:
REMARK  status: ('A' for Active; 'I' for Inactive)
REMARK    1  A    between atoms: O_1  and  C_8
REMARK    2  A    between atoms: O_2  and  C_10
REMARK    3  A    between atoms: O_4  and  C_21
REMARK    4  A    between atoms: O_4  and  C_24
REMARK    5  A    between atoms: N_5  and  C_7
REMARK    6  A    between atoms: C_6  and  C_11
REMARK    7  A    between atoms: C_14  and  C_17
REMARK                            x       y       z     vdW  Elec       q    Type
REMARK                         _______ _______ _______ _____ _____    ______ ____
ROOT
ATOM      6  C   UNL     1      -5.917 -10.093  16.910  0.00  0.00    +0.044 C 
ATOM      7  C   UNL     1      -5.329 -11.188  15.991  0.00  0.00    +0.112 C 
ATOM      8  C   UNL     1      -4.382 -11.955  16.914  0.00  0.00    +0.164 C 
ATOM      9  C   UNL     1      -5.765 -10.628  18.357  0.00  0.00    +0.044 C 
ATOM     10  C   UNL     1      -5.156 -12.023  18.224  0.00  0.00    +0.145 C 
ENDROOT
BRANCH   6  11
ATOM     11  C   UNL     1      -7.332  -9.704  16.534  0.00  0.00    -0.042 A 
ATOM     12  C   UNL     1      -7.819  -9.989  15.258  0.00  0.00    +0.004 A 
ATOM     13  C   UNL     1      -8.148  -9.058  17.463  0.00  0.00    +0.004 A 
ATOM     15  C   UNL     1      -9.120  -9.630  14.912  0.00  0.00    +0.000 A 
ATOM     16  C   UNL     1      -9.451  -8.699  17.116  0.00  0.00    +0.000 A 
ATOM     18  C   UNL     1      -9.937  -8.985  15.841  0.00  0.00    +0.000 A 
ENDBRANCH   6  11
BRANCH   7   5
ATOM      3  O   UNL     1      -4.894 -12.455  13.451  0.00  0.00    -0.270 OA
ATOM      5  N   UNL     1      -4.639 -10.628  14.857  0.00  0.00    -0.305 N 
ATOM     14  C   UNL     1      -4.477 -11.319  13.663  0.00  0.00    +0.244 C 
ATOM     25  H   UNL     1      -4.170  -9.739  14.995  0.00  0.00    +0.149 HD
BRANCH  14  17
ATOM     17  C   UNL     1      -3.719 -10.614  12.599  0.00  0.00    +0.040 A 
ATOM     19  C   UNL     1      -4.400  -9.992  11.552  0.00  0.00    +0.058 A 
ATOM     20  C   UNL     1      -2.325 -10.572  12.646  0.00  0.00    +0.013 A 
ATOM     21  C   UNL     1      -3.688  -9.329  10.553  0.00  0.00    +0.121 A 
ATOM     22  C   UNL     1      -1.614  -9.908  11.647  0.00  0.00    +0.004 A 
ATOM     23  C   UNL     1      -2.295  -9.286  10.600  0.00  0.00    +0.045 A 
BRANCH  21   4
ATOM      4  O   UNL     1      -4.352  -8.722   9.532  0.00  0.00    -0.495 OA
ATOM     24  C   UNL     1      -4.804  -9.555   8.466  0.00  0.00    +0.277 C 
ENDBRANCH  21   4
ENDBRANCH  14  17
ENDBRANCH   7   5
BRANCH   8   1
ATOM      1  O   UNL     1      -4.088 -13.249  16.425  0.00  0.00    -0.387 OA
ATOM     26  H   UNL     1      -4.764 -13.470  15.761  0.00  0.00    +0.210 HD
ENDBRANCH   8   1
BRANCH  10   2
ATOM      2  O   UNL     1      -6.211 -12.976  18.144  0.00  0.00    -0.389 OA
ATOM     27  H   UNL     1      -6.510 -13.003  17.218  0.00  0.00    +0.210 HD
ENDBRANCH  10   2
TORSDOF 6
ENDMDL
MODEL 8
REMARK VINA RESULT:      -5.8      1.171      1.577
REMARK  Name = 75536057
REMARK  7 active torsions:
REMARK  status: ('A' for Active; 'I' for Inactive)
REMARK    1  A    between atoms: O_1  and  C_8
REMARK    2  A    between atoms: O_2  and  C_10
REMARK    3  A    between atoms: O_4  and  C_21
REMARK    4  A    between atoms: O_4  and  C_24
REMARK    5  A    between atoms: N_5  and  C_7
REMARK    6  A    between atoms: C_6  and  C_11
REMARK    7  A    between atoms: C_14  and  C_17
REMARK                            x       y       z     vdW  Elec       q    Type
REMARK                         _______ _______ _______ _____ _____    ______ ____
ROOT
ATOM      6  C   UNL     1      -4.691 -12.265  12.523  0.00  0.00    +0.044 C 
ATOM      7  C   UNL     1      -3.872 -12.282  13.835  0.00  0.00    +0.112 C 
ATOM      8  C   UNL     1      -3.426 -13.740  13.955  0.00  0.00    +0.164 C 
ATOM      9  C   UNL     1      -4.192 -13.477  11.696  0.00  0.00    +0.044 C 
ATOM     10  C   UNL     1      -3.073 -14.113  12.521  0.00  0.00    +0.145 C 
ENDROOT
BRANCH   6  11
ATOM     11  C   UNL     1      -4.613 -10.939  11.796  0.00  0.00    -0.042 A 
ATOM     12  C   UNL     1      -5.654 -10.017  11.911  0.00  0.00    +0.004 A 
ATOM     13  C   UNL     1      -3.500 -10.638  11.010  0.00  0.00    +0.004 A 
ATOM     15  C   UNL     1      -5.582  -8.797  11.241  0.00  0.00    +0.000 A 
ATOM     16  C   UNL     1      -3.429  -9.417  10.339  0.00  0.00    +0.000 A 
ATOM     18  C   UNL     1      -4.469  -8.496  10.455  0.00  0.00    +0.000 A 
ENDBRANCH   6  11
BRANCH   7   5
ATOM      3  O   UNL     1      -2.887 -11.133  16.275  0.00  0.00    -0.270 OA
ATOM      5  N   UNL     1      -4.658 -11.865  14.968  0.00  0.00    -0.305 N 
ATOM     14  C   UNL     1      -4.090 -11.317  16.111  0.00  0.00    +0.244 C 
ATOM     25  H   UNL     1      -5.647 -12.088  14.950  0.00  0.00    +0.149 HD
BRANCH  14  17
ATOM     17  C   UNL     1      -5.034 -10.962  17.201  0.00  0.00    +0.040 A 
ATOM     19  C   UNL     1      -6.195 -10.245  16.913  0.00  0.00    +0.058 A 
ATOM     20  C   UNL     1      -4.760 -11.347  18.514  0.00  0.00    +0.013 A 
ATOM     21  C   UNL     1      -7.082  -9.912  17.936  0.00  0.00    +0.121 A 
ATOM     22  C   UNL     1      -5.647 -11.014  19.537  0.00  0.00    +0.004 A 
ATOM     23  C   UNL     1      -6.809 -10.297  19.248  0.00  0.00    +0.045 A 
BRANCH  21   4
ATOM      4  O   UNL     1      -8.215  -9.212  17.655  0.00  0.00    -0.495 OA
ATOM     24  C   UNL     1      -8.632  -9.172  16.292  0.00  0.00    +0.277 C 
ENDBRANCH  21   4
ENDBRANCH  14  17
ENDBRANCH   7   5
BRANCH   8   1
ATOM      1  O   UNL     1      -2.311 -13.890  14.812  0.00  0.00    -0.387 OA
ATOM     26  H   UNL     1      -2.209 -13.058  15.306  0.00  0.00    +0.210 HD
ENDBRANCH   8   1
BRANCH  10   2
ATOM      2  O   UNL     1      -1.832 -13.530  12.133  0.00  0.00    -0.389 OA
ATOM     27  H   UNL     1      -1.454 -14.089  11.431  0.00  0.00    +0.210 HD
ENDBRANCH  10   2
TORSDOF 6
ENDMDL
MODEL 9
REMARK VINA RESULT:      -5.8     20.161     22.910
REMARK  Name = 75536057
REMARK  7 active torsions:
REMARK  status: ('A' for Active; 'I' for Inactive)
REMARK    1  A    between atoms: O_1  and  C_8
REMARK    2  A    between atoms: O_2  and  C_10
REMARK    3  A    between atoms: O_4  and  C_21
REMARK    4  A    between atoms: O_4  and  C_24
REMARK    5  A    between atoms: N_5  and  C_7
REMARK    6  A    between atoms: C_6  and  C_11
REMARK    7  A    between atoms: C_14  and  C_17
REMARK                            x       y       z     vdW  Elec       q    Type
REMARK                         _______ _______ _______ _____ _____    ______ ____
ROOT
ATOM      6  C   UNL     1       9.958  -6.868  33.620  0.00  0.00    +0.044 C 
ATOM      7  C   UNL     1       8.556  -6.915  32.970  0.00  0.00    +0.112 C 
ATOM      8  C   UNL     1       7.668  -6.204  33.991  0.00  0.00    +0.164 C 
ATOM      9  C   UNL     1       9.925  -5.679  34.614  0.00  0.00    +0.044 C 
ATOM     10  C   UNL     1       8.541  -5.048  34.464  0.00  0.00    +0.145 C 
ENDROOT
BRANCH   6  11
ATOM     11  C   UNL     1      11.079  -6.800  32.604  0.00  0.00    -0.042 A 
ATOM     12  C   UNL     1      11.433  -7.939  31.878  0.00  0.00    +0.004 A 
ATOM     13  C   UNL     1      11.758  -5.600  32.393  0.00  0.00    +0.004 A 
ATOM     15  C   UNL     1      12.465  -7.876  30.943  0.00  0.00    +0.000 A 
ATOM     16  C   UNL     1      12.791  -5.538  31.457  0.00  0.00    +0.000 A 
ATOM     18  C   UNL     1      13.145  -6.676  30.732  0.00  0.00    +0.000 A 
ENDBRANCH   6  11
BRANCH   7   5
ATOM      3  O   UNL     1       6.660  -7.770  30.990  0.00  0.00    -0.270 OA
ATOM      5  N   UNL     1       8.119  -8.265  32.724  0.00  0.00    -0.305 N 
ATOM     14  C   UNL     1       7.193  -8.584  31.740  0.00  0.00    +0.244 C 
ATOM     25  H   UNL     1       8.431  -8.977  33.377  0.00  0.00    +0.149 HD
BRANCH  14  17
ATOM     17  C   UNL     1       6.827 -10.019  31.630  0.00  0.00    +0.040 A 
ATOM     19  C   UNL     1       6.512 -10.748  32.777  0.00  0.00    +0.058 A 
ATOM     20  C   UNL     1       6.798 -10.639  30.381  0.00  0.00    +0.013 A 
ATOM     21  C   UNL     1       6.168 -12.096  32.675  0.00  0.00    +0.121 A 
ATOM     22  C   UNL     1       6.454 -11.986  30.279  0.00  0.00    +0.004 A 
ATOM     23  C   UNL     1       6.138 -12.715  31.426  0.00  0.00    +0.045 A 
BRANCH  21   4
ATOM      4  O   UNL     1       5.861 -12.807  33.794  0.00  0.00    -0.495 OA
ATOM     24  C   UNL     1       5.408 -12.070  34.928  0.00  0.00    +0.277 C 
ENDBRANCH  21   4
ENDBRANCH  14  17
ENDBRANCH   7   5
BRANCH   8   1
ATOM      1  O   UNL     1       6.464  -5.733  33.418  0.00  0.00    -0.387 OA
ATOM     26  H   UNL     1       6.693  -5.008  32.811  0.00  0.00    +0.210 HD
ENDBRANCH   8   1
BRANCH  10   2
ATOM      2  O   UNL     1       8.611  -4.024  33.477  0.00  0.00    -0.389 OA
ATOM     27  H   UNL     1       8.393  -4.430  32.620  0.00  0.00    +0.210 HD
ENDBRANCH  10   2
TORSDOF 6
ENDMDL
MODEL 10
REMARK VINA RESULT:      -5.8     24.197     27.614
REMARK  Name = 75536057
REMARK  7 active torsions:
REMARK  status: ('A' for Active; 'I' for Inactive)
REMARK    1  A    between atoms: O_1  and  C_8
REMARK    2  A    between atoms: O_2  and  C_10
REMARK    3  A    between atoms: O_4  and  C_21
REMARK    4  A    between atoms: O_4  and  C_24
REMARK    5  A    between atoms: N_5  and  C_7
REMARK    6  A    between atoms: C_6  and  C_11
REMARK    7  A    between atoms: C_14  and  C_17
REMARK                            x       y       z     vdW  Elec       q    Type
REMARK                         _______ _______ _______ _____ _____    ______ ____
ROOT
ATOM      6  C   UNL     1     -15.228   3.311  32.783  0.00  0.00    +0.044 C 
ATOM      7  C   UNL     1     -14.179   4.017  31.893  0.00  0.00    +0.112 C 
ATOM      8  C   UNL     1     -13.176   2.907  31.578  0.00  0.00    +0.164 C 
ATOM      9  C   UNL     1     -15.120   1.801  32.448  0.00  0.00    +0.044 C 
ATOM     10  C   UNL     1     -14.066   1.692  31.346  0.00  0.00    +0.145 C 
ENDROOT
BRANCH   6  11
ATOM     11  C   UNL     1     -16.619   3.887  32.625  0.00  0.00    -0.042 A 
ATOM     12  C   UNL     1     -17.206   3.960  31.361  0.00  0.00    +0.004 A 
ATOM     13  C   UNL     1     -17.315   4.347  33.744  0.00  0.00    +0.004 A 
ATOM     15  C   UNL     1     -18.487   4.491  31.217  0.00  0.00    +0.000 A 
ATOM     16  C   UNL     1     -18.596   4.879  33.598  0.00  0.00    +0.000 A 
ATOM     18  C   UNL     1     -19.182   4.951  32.335  0.00  0.00    +0.000 A 
ENDBRANCH   6  11
BRANCH   7   5
ATOM      3  O   UNL     1     -14.975   6.773  31.754  0.00  0.00    -0.270 OA
ATOM      5  N   UNL     1     -13.557   5.127  32.568  0.00  0.00    -0.305 N 
ATOM     14  C   UNL     1     -14.015   6.432  32.440  0.00  0.00    +0.244 C 
ATOM     25  H   UNL     1     -12.691   4.940  33.063  0.00  0.00    +0.149 HD
BRANCH  14  17
ATOM     17  C   UNL     1     -13.248   7.467  33.180  0.00  0.00    +0.040 A 
ATOM     19  C   UNL     1     -12.348   8.288  32.501  0.00  0.00    +0.058 A 
ATOM     20  C   UNL     1     -13.427   7.618  34.556  0.00  0.00    +0.013 A 
ATOM     21  C   UNL     1     -11.628   9.260  33.195  0.00  0.00    +0.121 A 
ATOM     22  C   UNL     1     -12.707   8.589  35.250  0.00  0.00    +0.004 A 
ATOM     23  C   UNL     1     -11.808   9.411  34.570  0.00  0.00    +0.045 A 
BRANCH  21   4
ATOM      4  O   UNL     1     -10.751  10.061  32.532  0.00  0.00    -0.495 OA
ATOM     24  C   UNL     1      -9.482  10.281  33.144  0.00  0.00    +0.277 C 
ENDBRANCH  21   4
ENDBRANCH  14  17
ENDBRANCH   7   5
BRANCH   8   1
ATOM      1  O   UNL     1     -12.398   3.197  30.432  0.00  0.00    -0.387 OA
ATOM     26  H   UNL     1     -11.874   2.403  30.227  0.00  0.00    +0.210 HD
ENDBRANCH   8   1
BRANCH  10   2
ATOM      2  O   UNL     1     -14.718   1.772  30.082  0.00  0.00    -0.389 OA
ATOM     27  H   UNL     1     -14.532   2.652  29.712  0.00  0.00    +0.210 HD
ENDBRANCH  10   2
TORSDOF 6
ENDMDL
