REMARK  Name = 7685394
REMARK  5 active torsions:
REMARK  status: ('A' for Active; 'I' for Inactive)
REMARK    1  A    between atoms: S_1  and  N_7
REMARK    2  A    between atoms: S_1  and  C_22
REMARK    3  A    between atoms: N_9  and  C_30
REMARK    4  A    between atoms: C_17  and  C_21
REMARK    5  A    between atoms: C_31  and  C_32
REMARK                            x       y       z     vdW  Elec       q    Type
REMARK                         _______ _______ _______ _____ _____    ______ ____
ROOT
ATOM      5  O   UNL     1       3.841   2.702  -1.745  0.00  0.00    -0.268 OA
ATOM      7  N   UNL     1       2.320  -0.979   1.187  0.00  0.00    -0.175 NA
ATOM      8  N   UNL     1       2.347   1.873  -0.143  0.00  0.00    -0.311 N 
ATOM     10  C   UNL     1       3.148   1.148   2.183  0.00  0.00    +0.025 C 
ATOM     11  C   UNL     1       0.778   0.934   1.582  0.00  0.00    +0.053 C 
ATOM     12  C   UNL     1       1.738   1.508   2.621  0.00  0.00    +0.017 C 
ATOM     13  C   UNL     1       3.325  -0.376   2.106  0.00  0.00    +0.114 C 
ATOM     14  C   UNL     1       0.922  -0.600   1.544  0.00  0.00    +0.119 C 
ATOM     15  C   UNL     1       3.433   1.834   0.847  0.00  0.00    +0.130 C 
ATOM     16  C   UNL     1       1.019   1.538   0.193  0.00  0.00    +0.034 A 
ATOM     17  C   UNL     1       0.022   1.738  -0.711  0.00  0.00    +0.002 A 
ATOM     18  C   UNL     1       2.702   2.380  -1.406  0.00  0.00    +0.252 A 
ATOM     19  C   UNL     1       0.355   2.253  -2.027  0.00  0.00    +0.015 A 
ATOM     20  C   UNL     1       1.605   2.549  -2.383  0.00  0.00    +0.071 A 
ENDROOT
BRANCH  17  21
ATOM     21  C   UNL     1      -1.343   1.429  -0.383  0.00  0.00    -0.016 A 
ATOM     23  C   UNL     1      -1.842   0.152  -0.626  0.00  0.00    +0.010 A 
ATOM     24  C   UNL     1      -2.157   2.409   0.178  0.00  0.00    +0.010 A 
ATOM     27  C   UNL     1      -3.166  -0.147  -0.306  0.00  0.00    +0.024 A 
ATOM     28  C   UNL     1      -3.481   2.110   0.498  0.00  0.00    +0.024 A 
ATOM     30  C   UNL     1      -3.986   0.832   0.256  0.00  0.00    +0.033 A 
BRANCH  30   9
ATOM      6  O   UNL     1      -5.540  -1.728  -0.050  0.00  0.00    -0.276 OA
ATOM      9  N   UNL     1      -5.310   0.532   0.578  0.00  0.00    -0.286 N 
ATOM     31  C   UNL     1      -5.987  -0.683   0.412  0.00  0.00    +0.214 C 
ATOM     32  C   UNL     1      -7.415  -0.598   0.887  0.00  0.00    +0.109 C 
ATOM     33  H   UNL     1      -5.842   1.299   0.984  0.00  0.00    +0.155 HD
ENDBRANCH  30   9
ENDBRANCH  17  21
BRANCH   7   1
ATOM      1  S   UNL     1       2.565  -2.627   0.799  0.00  0.00    +0.067 S 
ATOM      3  O   UNL     1       2.041  -3.449   1.869  0.00  0.00    -0.152 OA
ATOM      4  O   UNL     1       3.920  -2.802   0.320  0.00  0.00    -0.152 OA
BRANCH   1  22
ATOM      2  S   UNL     1       1.992  -1.961  -1.990  0.00  0.00    -0.077 S 
ATOM     22  C   UNL     1       1.477  -2.784  -0.583  0.00  0.00    +0.143 A 
ATOM     25  C   UNL     1       0.285  -3.439  -0.765  0.00  0.00    +0.036 A 
ATOM     26  C   UNL     1      -0.219  -3.265  -2.086  0.00  0.00    +0.010 A 
ATOM     29  C   UNL     1       0.611  -2.482  -2.858  0.00  0.00    +0.047 A 
ENDBRANCH   1  22
ENDBRANCH   7   1
TORSDOF 4
