MODEL 1
REMARK VINA RESULT:      -7.3      0.000      0.000
REMARK  Name = 51137355
REMARK  6 active torsions:
REMARK  status: ('A' for Active; 'I' for Inactive)
REMARK    1  A    between atoms: S_1  and  C_19
REMARK    2  A    between atoms: S_1  and  C_23
REMARK    3  A    between atoms: N_5  and  C_13
REMARK    4  A    between atoms: C_9  and  C_14
REMARK    5  A    between atoms: C_13  and  C_15
REMARK    6  A    between atoms: C_18  and  C_22
REMARK                            x       y       z     vdW  Elec       q    Type
REMARK                         _______ _______ _______ _____ _____    ______ ____
ROOT
ATOM      5  N   UNL     1      15.265   7.294  20.486  0.00  0.00    -0.297 NA
ATOM      9  C   UNL     1      13.165   7.198  21.524  0.00  0.00    +0.092 C 
ATOM     10  C   UNL     1      14.518   7.921  21.578  0.00  0.00    +0.097 C 
ATOM     11  C   UNL     1      13.045   6.705  20.072  0.00  0.00    +0.029 C 
ATOM     12  C   UNL     1      14.310   7.196  19.382  0.00  0.00    +0.085 C 
ENDROOT
BRANCH   9  14
ATOM      2  O   UNL     1      12.290   9.371  22.234  0.00  0.00    -0.420 OA
ATOM      6  N   UNL     1      10.766   7.732  22.230  0.00  0.00    -0.112 NA
ATOM      7  N   UNL     1      10.144   8.893  22.647  0.00  0.00    -0.107 NA
ATOM     14  C   UNL     1      12.018   8.058  22.000  0.00  0.00    +0.222 A 
ATOM     18  C   UNL     1      11.070   9.823  22.633  0.00  0.00    +0.250 A 
BRANCH  18  22
ATOM      8  N   UNL     1      10.698  12.919  24.659  0.00  0.00    -0.263 NA
ATOM     22  C   UNL     1      10.995  11.215  22.970  0.00  0.00    +0.057 A 
ATOM     24  C   UNL     1      11.134  12.197  21.994  0.00  0.00    +0.016 A 
ATOM     25  C   UNL     1      10.780  11.625  24.276  0.00  0.00    +0.124 A 
ATOM     26  C   UNL     1      11.055  13.539  22.350  0.00  0.00    +0.020 A 
ATOM     27  C   UNL     1      10.838  13.844  23.684  0.00  0.00    +0.111 A 
ENDBRANCH  18  22
ENDBRANCH   9  14
BRANCH   5  13
ATOM     13  C   UNL     1      16.456   8.049  20.124  0.00  0.00    +0.119 C 
BRANCH  13  15
ATOM     15  C   UNL     1      17.717   7.348  20.555  0.00  0.00    -0.033 A 
ATOM     16  C   UNL     1      18.463   7.850  21.622  0.00  0.00    +0.007 A 
ATOM     17  C   UNL     1      18.139   6.199  19.888  0.00  0.00    +0.007 A 
ATOM     19  C   UNL     1      20.054   6.052  21.355  0.00  0.00    +0.088 A 
ATOM     20  C   UNL     1      19.631   7.201  22.022  0.00  0.00    +0.027 A 
ATOM     21  C   UNL     1      19.308   5.551  20.288  0.00  0.00    +0.027 A 
BRANCH  19   1
ATOM      1  S   UNL     1      21.514   5.238  21.859  0.00  0.00    -0.006 S 
ATOM      3  O   UNL     1      22.660   5.923  21.275  0.00  0.00    -0.170 OA
ATOM      4  O   UNL     1      21.445   5.044  23.300  0.00  0.00    -0.170 OA
ATOM     23  C   UNL     1      21.418   3.639  21.086  0.00  0.00    +0.200 C 
ENDBRANCH  19   1
ENDBRANCH  13  15
ENDBRANCH   5  13
TORSDOF 5
ENDMDL
MODEL 2
REMARK VINA RESULT:      -7.3      4.125     10.763
REMARK  Name = 51137355
REMARK  6 active torsions:
REMARK  status: ('A' for Active; 'I' for Inactive)
REMARK    1  A    between atoms: S_1  and  C_19
REMARK    2  A    between atoms: S_1  and  C_23
REMARK    3  A    between atoms: N_5  and  C_13
REMARK    4  A    between atoms: C_9  and  C_14
REMARK    5  A    between atoms: C_13  and  C_15
REMARK    6  A    between atoms: C_18  and  C_22
REMARK                            x       y       z     vdW  Elec       q    Type
REMARK                         _______ _______ _______ _____ _____    ______ ____
ROOT
ATOM      5  N   UNL     1      18.009   8.249  21.730  0.00  0.00    -0.297 NA
ATOM      9  C   UNL     1      19.585   6.569  22.172  0.00  0.00    +0.092 C 
ATOM     10  C   UNL     1      18.549   7.024  21.135  0.00  0.00    +0.097 C 
ATOM     11  C   UNL     1      19.981   7.856  22.917  0.00  0.00    +0.029 C 
ATOM     12  C   UNL     1      19.176   8.962  22.249  0.00  0.00    +0.085 C 
ENDROOT
BRANCH   9  14
ATOM      2  O   UNL     1      21.199   4.730  22.245  0.00  0.00    -0.420 OA
ATOM      6  N   UNL     1      21.384   6.034  20.436  0.00  0.00    -0.112 NA
ATOM      7  N   UNL     1      22.346   5.045  20.351  0.00  0.00    -0.107 NA
ATOM     14  C   UNL     1      20.738   5.811  21.558  0.00  0.00    +0.222 A 
ATOM     18  C   UNL     1      22.201   4.308  21.427  0.00  0.00    +0.250 A 
BRANCH  18  22
ATOM      8  N   UNL     1      23.631   1.719  23.681  0.00  0.00    -0.263 NA
ATOM     22  C   UNL     1      22.923   3.148  21.864  0.00  0.00    +0.057 A 
ATOM     24  C   UNL     1      23.602   2.342  20.956  0.00  0.00    +0.016 A 
ATOM     25  C   UNL     1      22.969   2.797  23.204  0.00  0.00    +0.124 A 
ATOM     26  C   UNL     1      24.295   1.225  21.410  0.00  0.00    +0.020 A 
ATOM     27  C   UNL     1      24.278   0.960  22.769  0.00  0.00    +0.111 A 
ENDBRANCH  18  22
ENDBRANCH   9  14
BRANCH   5  13
ATOM     13  C   UNL     1      17.253   9.043  20.774  0.00  0.00    +0.119 C 
BRANCH  13  15
ATOM     15  C   UNL     1      15.791   8.680  20.774  0.00  0.00    -0.033 A 
ATOM     16  C   UNL     1      15.053   8.759  19.593  0.00  0.00    +0.007 A 
ATOM     17  C   UNL     1      15.176   8.264  21.954  0.00  0.00    +0.007 A 
ATOM     19  C   UNL     1      13.084   8.007  20.774  0.00  0.00    +0.088 A 
ATOM     20  C   UNL     1      13.700   8.422  19.593  0.00  0.00    +0.027 A 
ATOM     21  C   UNL     1      13.823   7.929  21.954  0.00  0.00    +0.027 A 
BRANCH  19   1
ATOM      1  S   UNL     1      11.391   7.583  20.772  0.00  0.00    -0.006 S 
ATOM      3  O   UNL     1      10.721   8.323  19.711  0.00  0.00    -0.170 OA
ATOM      4  O   UNL     1      11.293   6.131  20.812  0.00  0.00    -0.170 OA
ATOM     23  C   UNL     1      10.774   8.216  22.315  0.00  0.00    +0.200 C 
ENDBRANCH  19   1
ENDBRANCH  13  15
ENDBRANCH   5  13
TORSDOF 5
ENDMDL
MODEL 3
REMARK VINA RESULT:      -7.0      4.335      8.811
REMARK  Name = 51137355
REMARK  6 active torsions:
REMARK  status: ('A' for Active; 'I' for Inactive)
REMARK    1  A    between atoms: S_1  and  C_19
REMARK    2  A    between atoms: S_1  and  C_23
REMARK    3  A    between atoms: N_5  and  C_13
REMARK    4  A    between atoms: C_9  and  C_14
REMARK    5  A    between atoms: C_13  and  C_15
REMARK    6  A    between atoms: C_18  and  C_22
REMARK                            x       y       z     vdW  Elec       q    Type
REMARK                         _______ _______ _______ _____ _____    ______ ____
ROOT
ATOM      5  N   UNL     1      12.634   7.943  20.657  0.00  0.00    -0.297 NA
ATOM      9  C   UNL     1      14.561   6.618  20.822  0.00  0.00    +0.092 C 
ATOM     10  C   UNL     1      13.491   7.091  19.829  0.00  0.00    +0.097 C 
ATOM     11  C   UNL     1      14.586   7.701  21.915  0.00  0.00    +0.029 C 
ATOM     12  C   UNL     1      13.558   8.733  21.470  0.00  0.00    +0.085 C 
ENDROOT
BRANCH   9  14
ATOM      2  O   UNL     1      17.003   6.491  20.943  0.00  0.00    -0.420 OA
ATOM      6  N   UNL     1      16.163   5.986  18.932  0.00  0.00    -0.112 NA
ATOM      7  N   UNL     1      17.539   5.876  18.860  0.00  0.00    -0.107 NA
ATOM     14  C   UNL     1      15.895   6.348  20.166  0.00  0.00    +0.222 A 
ATOM     18  C   UNL     1      17.987   6.179  20.056  0.00  0.00    +0.250 A 
BRANCH  18  22
ATOM      8  N   UNL     1      21.479   5.160  20.825  0.00  0.00    -0.263 NA
ATOM     22  C   UNL     1      19.328   6.231  20.561  0.00  0.00    +0.057 A 
ATOM     24  C   UNL     1      19.790   7.345  21.255  0.00  0.00    +0.016 A 
ATOM     25  C   UNL     1      20.205   5.175  20.375  0.00  0.00    +0.124 A 
ATOM     26  C   UNL     1      21.095   7.367  21.733  0.00  0.00    +0.020 A 
ATOM     27  C   UNL     1      21.892   6.260  21.494  0.00  0.00    +0.111 A 
ENDBRANCH  18  22
ENDBRANCH   9  14
BRANCH   5  13
ATOM     13  C   UNL     1      11.745   8.776  19.860  0.00  0.00    +0.119 C 
BRANCH  13  15
ATOM     15  C   UNL     1      12.433   9.316  18.633  0.00  0.00    -0.033 A 
ATOM     16  C   UNL     1      12.268   8.676  17.404  0.00  0.00    +0.007 A 
ATOM     17  C   UNL     1      13.233  10.453  18.726  0.00  0.00    +0.007 A 
ATOM     19  C   UNL     1      13.706  10.314  16.361  0.00  0.00    +0.088 A 
ATOM     20  C   UNL     1      12.904   9.176  16.268  0.00  0.00    +0.027 A 
ATOM     21  C   UNL     1      13.870  10.952  17.590  0.00  0.00    +0.027 A 
BRANCH  19   1
ATOM      1  S   UNL     1      14.498  10.940  14.937  0.00  0.00    -0.006 S 
ATOM      3  O   UNL     1      15.312   9.885  14.348  0.00  0.00    -0.170 OA
ATOM      4  O   UNL     1      13.496  11.617  14.127  0.00  0.00    -0.170 OA
ATOM     23  C   UNL     1      15.620  12.171  15.561  0.00  0.00    +0.200 C 
ENDBRANCH  19   1
ENDBRANCH  13  15
ENDBRANCH   5  13
TORSDOF 5
ENDMDL
MODEL 4
REMARK VINA RESULT:      -6.7     27.382     29.765
REMARK  Name = 51137355
REMARK  6 active torsions:
REMARK  status: ('A' for Active; 'I' for Inactive)
REMARK    1  A    between atoms: S_1  and  C_19
REMARK    2  A    between atoms: S_1  and  C_23
REMARK    3  A    between atoms: N_5  and  C_13
REMARK    4  A    between atoms: C_9  and  C_14
REMARK    5  A    between atoms: C_13  and  C_15
REMARK    6  A    between atoms: C_18  and  C_22
REMARK                            x       y       z     vdW  Elec       q    Type
REMARK                         _______ _______ _______ _____ _____    ______ ____
ROOT
ATOM      5  N   UNL     1      -5.275  -9.494   9.036  0.00  0.00    -0.297 NA
ATOM      9  C   UNL     1      -7.518  -9.019   8.547  0.00  0.00    +0.092 C 
ATOM     10  C   UNL     1      -6.312  -8.507   9.346  0.00  0.00    +0.097 C 
ATOM     11  C   UNL     1      -6.906  -9.845   7.403  0.00  0.00    +0.029 C 
ATOM     12  C   UNL     1      -5.400  -9.734   7.598  0.00  0.00    +0.085 C 
ENDROOT
BRANCH   9  14
ATOM      2  O   UNL     1      -9.107  -7.235   9.084  0.00  0.00    -0.420 OA
ATOM      6  N   UNL     1      -8.718  -7.482   6.894  0.00  0.00    -0.112 NA
ATOM      7  N   UNL     1      -9.625  -6.451   7.053  0.00  0.00    -0.107 NA
ATOM     14  C   UNL     1      -8.444  -7.910   8.105  0.00  0.00    +0.222 A 
ATOM     18  C   UNL     1      -9.822  -6.342   8.347  0.00  0.00    +0.250 A 
BRANCH  18  22
ATOM      8  N   UNL     1     -12.457  -5.131  10.673  0.00  0.00    -0.263 NA
ATOM     22  C   UNL     1     -10.660  -5.444   9.087  0.00  0.00    +0.057 A 
ATOM     24  C   UNL     1     -10.520  -4.066   8.962  0.00  0.00    +0.016 A 
ATOM     25  C   UNL     1     -11.635  -5.922   9.948  0.00  0.00    +0.124 A 
ATOM     26  C   UNL     1     -11.348  -3.220   9.692  0.00  0.00    +0.020 A 
ATOM     27  C   UNL     1     -12.292  -3.797  10.526  0.00  0.00    +0.111 A 
ENDBRANCH  18  22
ENDBRANCH   9  14
BRANCH   5  13
ATOM     13  C   UNL     1      -3.944  -9.035   9.408  0.00  0.00    +0.119 C 
BRANCH  13  15
ATOM     15  C   UNL     1      -3.499  -9.616  10.724  0.00  0.00    -0.033 A 
ATOM     16  C   UNL     1      -2.138  -9.729  11.010  0.00  0.00    +0.007 A 
ATOM     17  C   UNL     1      -4.445 -10.040  11.655  0.00  0.00    +0.007 A 
ATOM     19  C   UNL     1      -2.672 -10.692  13.161  0.00  0.00    +0.088 A 
ATOM     20  C   UNL     1      -1.725 -10.266  12.230  0.00  0.00    +0.027 A 
ATOM     21  C   UNL     1      -4.032 -10.578  12.874  0.00  0.00    +0.027 A 
BRANCH  19   1
ATOM      1  S   UNL     1      -2.154 -11.361  14.688  0.00  0.00    -0.006 S 
ATOM      3  O   UNL     1      -3.319 -11.539  15.544  0.00  0.00    -0.170 OA
ATOM      4  O   UNL     1      -1.282 -12.493  14.409  0.00  0.00    -0.170 OA
ATOM     23  C   UNL     1      -1.164 -10.077  15.421  0.00  0.00    +0.200 C 
ENDBRANCH  19   1
ENDBRANCH  13  15
ENDBRANCH   5  13
TORSDOF 5
ENDMDL
MODEL 5
REMARK VINA RESULT:      -6.6      3.756      9.084
REMARK  Name = 51137355
REMARK  6 active torsions:
REMARK  status: ('A' for Active; 'I' for Inactive)
REMARK    1  A    between atoms: S_1  and  C_19
REMARK    2  A    between atoms: S_1  and  C_23
REMARK    3  A    between atoms: N_5  and  C_13
REMARK    4  A    between atoms: C_9  and  C_14
REMARK    5  A    between atoms: C_13  and  C_15
REMARK    6  A    between atoms: C_18  and  C_22
REMARK                            x       y       z     vdW  Elec       q    Type
REMARK                         _______ _______ _______ _____ _____    ______ ____
ROOT
ATOM      5  N   UNL     1      13.446   8.788  19.506  0.00  0.00    -0.297 NA
ATOM      9  C   UNL     1      14.789   6.882  19.266  0.00  0.00    +0.092 C 
ATOM     10  C   UNL     1      14.678   8.353  18.844  0.00  0.00    +0.097 C 
ATOM     11  C   UNL     1      14.001   6.793  20.584  0.00  0.00    +0.029 C 
ATOM     12  C   UNL     1      13.515   8.211  20.848  0.00  0.00    +0.085 C 
ENDROOT
BRANCH   9  14
ATOM      2  O   UNL     1      16.975   6.887  20.368  0.00  0.00    -0.420 OA
ATOM      6  N   UNL     1      16.865   5.561  18.569  0.00  0.00    -0.112 NA
ATOM      7  N   UNL     1      18.142   5.470  19.089  0.00  0.00    -0.107 NA
ATOM     14  C   UNL     1      16.219   6.399  19.347  0.00  0.00    +0.222 A 
ATOM     18  C   UNL     1      18.161   6.259  20.138  0.00  0.00    +0.250 A 
BRANCH  18  22
ATOM      8  N   UNL     1      21.402   6.013  21.942  0.00  0.00    -0.263 NA
ATOM     22  C   UNL     1      19.219   6.557  21.059  0.00  0.00    +0.057 A 
ATOM     24  C   UNL     1      19.120   7.627  21.943  0.00  0.00    +0.016 A 
ATOM     25  C   UNL     1      20.370   5.787  21.099  0.00  0.00    +0.124 A 
ATOM     26  C   UNL     1      20.161   7.890  22.825  0.00  0.00    +0.020 A 
ATOM     27  C   UNL     1      21.270   7.061  22.786  0.00  0.00    +0.111 A 
ENDBRANCH  18  22
ENDBRANCH   9  14
BRANCH   5  13
ATOM     13  C   UNL     1      13.313  10.238  19.531  0.00  0.00    +0.119 C 
BRANCH  13  15
ATOM     15  C   UNL     1      12.755  10.727  20.843  0.00  0.00    -0.033 A 
ATOM     16  C   UNL     1      11.472  10.349  21.238  0.00  0.00    +0.007 A 
ATOM     17  C   UNL     1      13.522  11.556  21.660  0.00  0.00    +0.007 A 
ATOM     19  C   UNL     1      11.722  11.632  23.270  0.00  0.00    +0.088 A 
ATOM     20  C   UNL     1      10.956  10.802  22.452  0.00  0.00    +0.027 A 
ATOM     21  C   UNL     1      13.005  12.009  22.874  0.00  0.00    +0.027 A 
BRANCH  19   1
ATOM      1  S   UNL     1      11.076  12.194  24.791  0.00  0.00    -0.006 S 
ATOM      3  O   UNL     1       9.948  13.078  24.526  0.00  0.00    -0.170 OA
ATOM      4  O   UNL     1      10.900  11.039  25.659  0.00  0.00    -0.170 OA
ATOM     23  C   UNL     1      12.372  13.201  25.477  0.00  0.00    +0.200 C 
ENDBRANCH  19   1
ENDBRANCH  13  15
ENDBRANCH   5  13
TORSDOF 5
ENDMDL
MODEL 6
REMARK VINA RESULT:      -6.5      4.228      5.384
REMARK  Name = 51137355
REMARK  6 active torsions:
REMARK  status: ('A' for Active; 'I' for Inactive)
REMARK    1  A    between atoms: S_1  and  C_19
REMARK    2  A    between atoms: S_1  and  C_23
REMARK    3  A    between atoms: N_5  and  C_13
REMARK    4  A    between atoms: C_9  and  C_14
REMARK    5  A    between atoms: C_13  and  C_15
REMARK    6  A    between atoms: C_18  and  C_22
REMARK                            x       y       z     vdW  Elec       q    Type
REMARK                         _______ _______ _______ _____ _____    ______ ____
ROOT
ATOM      5  N   UNL     1      19.027   6.611  21.426  0.00  0.00    -0.297 NA
ATOM      9  C   UNL     1      16.839   7.144  20.775  0.00  0.00    +0.092 C 
ATOM     10  C   UNL     1      18.056   7.703  21.524  0.00  0.00    +0.097 C 
ATOM     11  C   UNL     1      17.422   6.095  19.812  0.00  0.00    +0.029 C 
ATOM     12  C   UNL     1      18.926   6.138  20.046  0.00  0.00    +0.085 C 
ENDROOT
BRANCH   9  14
ATOM      2  O   UNL     1      15.038   7.807  19.255  0.00  0.00    -0.420 OA
ATOM      6  N   UNL     1      16.076   9.526  20.243  0.00  0.00    -0.112 NA
ATOM      7  N   UNL     1      15.091  10.038  19.419  0.00  0.00    -0.107 NA
ATOM     14  C   UNL     1      16.009   8.220  20.115  0.00  0.00    +0.222 A 
ATOM     18  C   UNL     1      14.511   8.999  18.864  0.00  0.00    +0.250 A 
BRANCH  18  22
ATOM      8  N   UNL     1      11.249   8.062  17.347  0.00  0.00    -0.263 NA
ATOM     22  C   UNL     1      13.429   8.931  17.925  0.00  0.00    +0.057 A 
ATOM     24  C   UNL     1      13.479   9.625  16.721  0.00  0.00    +0.016 A 
ATOM     25  C   UNL     1      12.301   8.170  18.188  0.00  0.00    +0.124 A 
ATOM     26  C   UNL     1      12.416   9.539  15.830  0.00  0.00    +0.020 A 
ATOM     27  C   UNL     1      11.334   8.750  16.187  0.00  0.00    +0.111 A 
ENDBRANCH  18  22
ENDBRANCH   9  14
BRANCH   5  13
ATOM     13  C   UNL     1      20.376   7.037  21.769  0.00  0.00    +0.119 C 
BRANCH  13  15
ATOM     15  C   UNL     1      21.393   5.964  21.481  0.00  0.00    -0.033 A 
ATOM     16  C   UNL     1      21.307   4.731  22.130  0.00  0.00    +0.007 A 
ATOM     17  C   UNL     1      22.420   6.202  20.569  0.00  0.00    +0.007 A 
ATOM     19  C   UNL     1      23.276   3.975  20.951  0.00  0.00    +0.088 A 
ATOM     20  C   UNL     1      22.248   3.737  21.863  0.00  0.00    +0.027 A 
ATOM     21  C   UNL     1      23.361   5.208  20.304  0.00  0.00    +0.027 A 
BRANCH  19   1
ATOM      1  S   UNL     1      24.451   2.728  20.616  0.00  0.00    -0.006 S 
ATOM      3  O   UNL     1      23.878   1.435  20.965  0.00  0.00    -0.170 OA
ATOM      4  O   UNL     1      24.969   2.950  19.273  0.00  0.00    -0.170 OA
ATOM     23  C   UNL     1      25.768   3.040  21.769  0.00  0.00    +0.200 C 
ENDBRANCH  19   1
ENDBRANCH  13  15
ENDBRANCH   5  13
TORSDOF 5
ENDMDL
MODEL 7
REMARK VINA RESULT:      -6.5     27.665     29.616
REMARK  Name = 51137355
REMARK  6 active torsions:
REMARK  status: ('A' for Active; 'I' for Inactive)
REMARK    1  A    between atoms: S_1  and  C_19
REMARK    2  A    between atoms: S_1  and  C_23
REMARK    3  A    between atoms: N_5  and  C_13
REMARK    4  A    between atoms: C_9  and  C_14
REMARK    5  A    between atoms: C_13  and  C_15
REMARK    6  A    between atoms: C_18  and  C_22
REMARK                            x       y       z     vdW  Elec       q    Type
REMARK                         _______ _______ _______ _____ _____    ______ ____
ROOT
ATOM      5  N   UNL     1      -2.649 -10.481  11.010  0.00  0.00    -0.297 NA
ATOM      9  C   UNL     1      -2.270 -11.506  13.084  0.00  0.00    +0.092 C 
ATOM     10  C   UNL     1      -1.969 -10.232  12.283  0.00  0.00    +0.097 C 
ATOM     11  C   UNL     1      -3.566 -12.058  12.466  0.00  0.00    +0.029 C 
ATOM     12  C   UNL     1      -3.940 -11.061  11.378  0.00  0.00    +0.085 C 
ENDROOT
BRANCH   9  14
ATOM      2  O   UNL     1      -3.564 -11.270  15.149  0.00  0.00    -0.420 OA
ATOM      6  N   UNL     1      -1.355 -11.044  15.427  0.00  0.00    -0.112 NA
ATOM      7  N   UNL     1      -1.959 -10.888  16.660  0.00  0.00    -0.107 NA
ATOM     14  C   UNL     1      -2.331 -11.264  14.575  0.00  0.00    +0.222 A 
ATOM     18  C   UNL     1      -3.248 -11.028  16.451  0.00  0.00    +0.250 A 
BRANCH  18  22
ATOM      8  N   UNL     1      -6.587 -10.191  17.854  0.00  0.00    -0.263 NA
ATOM     22  C   UNL     1      -4.351 -10.967  17.365  0.00  0.00    +0.057 A 
ATOM     24  C   UNL     1      -4.285 -11.586  18.609  0.00  0.00    +0.016 A 
ATOM     25  C   UNL     1      -5.513 -10.288  17.039  0.00  0.00    +0.124 A 
ATOM     26  C   UNL     1      -5.370 -11.508  19.475  0.00  0.00    +0.020 A 
ATOM     27  C   UNL     1      -6.487 -10.805  19.054  0.00  0.00    +0.111 A 
ENDBRANCH  18  22
ENDBRANCH   9  14
BRANCH   5  13
ATOM     13  C   UNL     1      -2.790  -9.272  10.212  0.00  0.00    +0.119 C 
BRANCH  13  15
ATOM     15  C   UNL     1      -4.162  -9.164   9.597  0.00  0.00    -0.033 A 
ATOM     16  C   UNL     1      -5.133  -8.363  10.198  0.00  0.00    +0.007 A 
ATOM     17  C   UNL     1      -4.459  -9.863   8.429  0.00  0.00    +0.007 A 
ATOM     19  C   UNL     1      -6.701  -8.963   8.460  0.00  0.00    +0.088 A 
ATOM     20  C   UNL     1      -6.402  -8.262   9.628  0.00  0.00    +0.027 A 
ATOM     21  C   UNL     1      -5.729  -9.763   7.860  0.00  0.00    +0.027 A 
BRANCH  19   1
ATOM      1  S   UNL     1      -8.289  -8.833   7.746  0.00  0.00    -0.006 S 
ATOM      3  O   UNL     1      -8.715 -10.153   7.302  0.00  0.00    -0.170 OA
ATOM      4  O   UNL     1      -9.130  -8.072   8.659  0.00  0.00    -0.170 OA
ATOM     23  C   UNL     1      -8.038  -7.850   6.286  0.00  0.00    +0.200 C 
ENDBRANCH  19   1
ENDBRANCH  13  15
ENDBRANCH   5  13
TORSDOF 5
ENDMDL
MODEL 8
REMARK VINA RESULT:      -6.5     27.873     29.927
REMARK  Name = 51137355
REMARK  6 active torsions:
REMARK  status: ('A' for Active; 'I' for Inactive)
REMARK    1  A    between atoms: S_1  and  C_19
REMARK    2  A    between atoms: S_1  and  C_23
REMARK    3  A    between atoms: N_5  and  C_13
REMARK    4  A    between atoms: C_9  and  C_14
REMARK    5  A    between atoms: C_13  and  C_15
REMARK    6  A    between atoms: C_18  and  C_22
REMARK                            x       y       z     vdW  Elec       q    Type
REMARK                         _______ _______ _______ _____ _____    ______ ____
ROOT
ATOM      5  N   UNL     1      -3.089 -11.371  15.159  0.00  0.00    -0.297 NA
ATOM      9  C   UNL     1      -3.301 -11.417  12.824  0.00  0.00    +0.092 C 
ATOM     10  C   UNL     1      -3.844 -10.726  14.082  0.00  0.00    +0.097 C 
ATOM     11  C   UNL     1      -1.898 -11.907  13.224  0.00  0.00    +0.029 C 
ATOM     12  C   UNL     1      -1.715 -11.447  14.663  0.00  0.00    +0.085 C 
ENDROOT
BRANCH   9  14
ATOM      2  O   UNL     1      -4.506 -10.493  10.904  0.00  0.00    -0.420 OA
ATOM      6  N   UNL     1      -2.398  -9.766  11.092  0.00  0.00    -0.112 NA
ATOM      7  N   UNL     1      -2.957  -9.172   9.977  0.00  0.00    -0.107 NA
ATOM     14  C   UNL     1      -3.339 -10.530  11.602  0.00  0.00    +0.222 A 
ATOM     18  C   UNL     1      -4.188  -9.624   9.906  0.00  0.00    +0.250 A 
BRANCH  18  22
ATOM      8  N   UNL     1      -7.286  -8.202   8.423  0.00  0.00    -0.263 NA
ATOM     22  C   UNL     1      -5.227  -9.349   8.957  0.00  0.00    +0.057 A 
ATOM     24  C   UNL     1      -5.212  -9.927   7.691  0.00  0.00    +0.016 A 
ATOM     25  C   UNL     1      -6.277  -8.502   9.270  0.00  0.00    +0.124 A 
ATOM     26  C   UNL     1      -6.234  -9.643   6.792  0.00  0.00    +0.020 A 
ATOM     27  C   UNL     1      -7.238  -8.782   7.203  0.00  0.00    +0.111 A 
ENDBRANCH  18  22
ENDBRANCH   9  14
BRANCH   5  13
ATOM     13  C   UNL     1      -3.187 -10.644  16.416  0.00  0.00    +0.119 C 
BRANCH  13  15
ATOM     15  C   UNL     1      -4.470 -10.953  17.144  0.00  0.00    -0.033 A 
ATOM     16  C   UNL     1      -4.555 -12.084  17.956  0.00  0.00    +0.007 A 
ATOM     17  C   UNL     1      -5.570 -10.108  17.006  0.00  0.00    +0.007 A 
ATOM     19  C   UNL     1      -6.844 -11.525  18.491  0.00  0.00    +0.088 A 
ATOM     20  C   UNL     1      -5.742 -12.369  18.630  0.00  0.00    +0.027 A 
ATOM     21  C   UNL     1      -6.757 -10.394  17.679  0.00  0.00    +0.027 A 
BRANCH  19   1
ATOM      1  S   UNL     1      -8.328 -11.881  19.338  0.00  0.00    -0.006 S 
ATOM      3  O   UNL     1      -8.183 -13.156  20.028  0.00  0.00    -0.170 OA
ATOM      4  O   UNL     1      -8.712 -10.694  20.089  0.00  0.00    -0.170 OA
ATOM     23  C   UNL     1      -9.527 -12.124  18.047  0.00  0.00    +0.200 C 
ENDBRANCH  19   1
ENDBRANCH  13  15
ENDBRANCH   5  13
TORSDOF 5
ENDMDL
MODEL 9
REMARK VINA RESULT:      -6.3     28.572     30.677
REMARK  Name = 51137355
REMARK  6 active torsions:
REMARK  status: ('A' for Active; 'I' for Inactive)
REMARK    1  A    between atoms: S_1  and  C_19
REMARK    2  A    between atoms: S_1  and  C_23
REMARK    3  A    between atoms: N_5  and  C_13
REMARK    4  A    between atoms: C_9  and  C_14
REMARK    5  A    between atoms: C_13  and  C_15
REMARK    6  A    between atoms: C_18  and  C_22
REMARK                            x       y       z     vdW  Elec       q    Type
REMARK                         _______ _______ _______ _____ _____    ______ ____
ROOT
ATOM      5  N   UNL     1      -7.846  -9.040   8.051  0.00  0.00    -0.297 NA
ATOM      9  C   UNL     1      -9.559  -7.696   8.921  0.00  0.00    +0.092 C 
ATOM     10  C   UNL     1      -8.032  -7.833   8.861  0.00  0.00    +0.097 C 
ATOM     11  C   UNL     1     -10.067  -8.429   7.668  0.00  0.00    +0.029 C 
ATOM     12  C   UNL     1      -8.810  -8.913   6.958  0.00  0.00    +0.085 C 
ENDROOT
BRANCH   9  14
ATOM      2  O   UNL     1     -11.115  -6.030   9.815  0.00  0.00    -0.420 OA
ATOM      6  N   UNL     1      -9.507  -5.171   8.517  0.00  0.00    -0.112 NA
ATOM      7  N   UNL     1     -10.308  -4.131   8.950  0.00  0.00    -0.107 NA
ATOM     14  C   UNL     1     -10.016  -6.261   9.046  0.00  0.00    +0.222 A 
ATOM     18  C   UNL     1     -11.233  -4.679   9.705  0.00  0.00    +0.250 A 
BRANCH  18  22
ATOM      8  N   UNL     1     -13.265  -3.343  12.516  0.00  0.00    -0.263 NA
ATOM     22  C   UNL     1     -12.326  -4.083  10.416  0.00  0.00    +0.057 A 
ATOM     24  C   UNL     1     -13.477  -3.675   9.749  0.00  0.00    +0.016 A 
ATOM     25  C   UNL     1     -12.271  -3.897  11.788  0.00  0.00    +0.124 A 
ATOM     26  C   UNL     1     -14.521  -3.101  10.465  0.00  0.00    +0.020 A 
ATOM     27  C   UNL     1     -14.367  -2.959  11.835  0.00  0.00    +0.111 A 
ENDBRANCH  18  22
ENDBRANCH   9  14
BRANCH   5  13
ATOM     13  C   UNL     1      -6.479  -9.181   7.573  0.00  0.00    +0.119 C 
BRANCH  13  15
ATOM     15  C   UNL     1      -5.549  -9.645   8.663  0.00  0.00    -0.033 A 
ATOM     16  C   UNL     1      -4.398  -8.912   8.954  0.00  0.00    +0.007 A 
ATOM     17  C   UNL     1      -5.837 -10.805   9.379  0.00  0.00    +0.007 A 
ATOM     19  C   UNL     1      -3.824 -10.502  10.681  0.00  0.00    +0.088 A 
ATOM     20  C   UNL     1      -3.536  -9.341   9.964  0.00  0.00    +0.027 A 
ATOM     21  C   UNL     1      -4.975 -11.234  10.388  0.00  0.00    +0.027 A 
BRANCH  19   1
ATOM      1  S   UNL     1      -2.747 -11.036  11.947  0.00  0.00    -0.006 S 
ATOM      3  O   UNL     1      -2.641 -12.488  11.894  0.00  0.00    -0.170 OA
ATOM      4  O   UNL     1      -1.542 -10.221  11.883  0.00  0.00    -0.170 OA
ATOM     23  C   UNL     1      -3.601 -10.633  13.454  0.00  0.00    +0.200 C 
ENDBRANCH  19   1
ENDBRANCH  13  15
ENDBRANCH   5  13
TORSDOF 5
ENDMDL
MODEL 10
REMARK VINA RESULT:      -6.2     28.161     30.831
REMARK  Name = 51137355
REMARK  6 active torsions:
REMARK  status: ('A' for Active; 'I' for Inactive)
REMARK    1  A    between atoms: S_1  and  C_19
REMARK    2  A    between atoms: S_1  and  C_23
REMARK    3  A    between atoms: N_5  and  C_13
REMARK    4  A    between atoms: C_9  and  C_14
REMARK    5  A    between atoms: C_13  and  C_15
REMARK    6  A    between atoms: C_18  and  C_22
REMARK                            x       y       z     vdW  Elec       q    Type
REMARK                         _______ _______ _______ _____ _____    ______ ____
ROOT
ATOM      5  N   UNL     1      -4.202 -10.525   9.394  0.00  0.00    -0.297 NA
ATOM      9  C   UNL     1      -3.005 -11.188  11.297  0.00  0.00    +0.092 C 
ATOM     10  C   UNL     1      -3.392  -9.954  10.472  0.00  0.00    +0.097 C 
ATOM     11  C   UNL     1      -4.106 -12.219  10.997  0.00  0.00    +0.029 C 
ATOM     12  C   UNL     1      -5.063 -11.509  10.050  0.00  0.00    +0.085 C 
ENDROOT
BRANCH   9  14
ATOM      2  O   UNL     1      -3.913 -10.919  13.555  0.00  0.00    -0.420 OA
ATOM      6  N   UNL     1      -1.707 -10.569  13.411  0.00  0.00    -0.112 NA
ATOM      7  N   UNL     1      -2.085 -10.385  14.728  0.00  0.00    -0.107 NA
ATOM     14  C   UNL     1      -2.807 -10.879  12.763  0.00  0.00    +0.222 A 
ATOM     18  C   UNL     1      -3.379 -10.600  14.765  0.00  0.00    +0.250 A 
BRANCH  18  22
ATOM      8  N   UNL     1      -4.814 -11.128  18.154  0.00  0.00    -0.263 NA
ATOM     22  C   UNL     1      -4.299 -10.550  15.864  0.00  0.00    +0.057 A 
ATOM     24  C   UNL     1      -5.529  -9.911  15.741  0.00  0.00    +0.016 A 
ATOM     25  C   UNL     1      -3.993 -11.138  17.081  0.00  0.00    +0.124 A 
ATOM     26  C   UNL     1      -6.401  -9.880  16.824  0.00  0.00    +0.020 A 
ATOM     27  C   UNL     1      -6.000 -10.498  17.997  0.00  0.00    +0.111 A 
ENDBRANCH  18  22
ENDBRANCH   9  14
BRANCH   5  13
ATOM     13  C   UNL     1      -4.963  -9.512   8.677  0.00  0.00    +0.119 C 
BRANCH  13  15
ATOM     15  C   UNL     1      -5.441 -10.013   7.339  0.00  0.00    -0.033 A 
ATOM     16  C   UNL     1      -4.750 -11.039   6.692  0.00  0.00    +0.007 A 
ATOM     17  C   UNL     1      -6.572  -9.452   6.748  0.00  0.00    +0.007 A 
ATOM     19  C   UNL     1      -6.324 -10.942   4.861  0.00  0.00    +0.088 A 
ATOM     20  C   UNL     1      -5.193 -11.503   5.453  0.00  0.00    +0.027 A 
ATOM     21  C   UNL     1      -7.013  -9.916   5.509  0.00  0.00    +0.027 A 
BRANCH  19   1
ATOM      1  S   UNL     1      -6.879 -11.526   3.312  0.00  0.00    -0.006 S 
ATOM      3  O   UNL     1      -7.560 -10.443   2.616  0.00  0.00    -0.170 OA
ATOM      4  O   UNL     1      -5.769 -12.213   2.668  0.00  0.00    -0.170 OA
ATOM     23  C   UNL     1      -8.114 -12.740   3.715  0.00  0.00    +0.200 C 
ENDBRANCH  19   1
ENDBRANCH  13  15
ENDBRANCH   5  13
TORSDOF 5
ENDMDL
