REMARK  Name = 11913373
REMARK  8 active torsions:
REMARK  status: ('A' for Active; 'I' for Inactive)
REMARK    1  A    between atoms: S_1  and  C_20
REMARK    2  A    between atoms: S_1  and  C_25
REMARK    3  A    between atoms: O_6  and  C_28
REMARK    4  A    between atoms: N_8  and  C_14
REMARK    5  A    between atoms: N_9  and  C_15
REMARK    6  A    between atoms: C_18  and  C_20
REMARK    7  A    between atoms: C_21  and  C_24
REMARK    8  A    between atoms: C_25  and  C_28
REMARK                            x       y       z     vdW  Elec       q    Type
REMARK                         _______ _______ _______ _____ _____    ______ ____
ROOT
ATOM      3  O   UNL     1      -0.485   2.303   1.257  0.00  0.00    -0.370 OA
ATOM      4  O   UNL     1      -2.014   3.026  -1.366  0.00  0.00    -0.370 OA
ATOM     12  C   UNL     1      -2.061   1.896  -0.479  0.00  0.00    +0.171 C 
ATOM     13  C   UNL     1      -0.644   1.634  -0.006  0.00  0.00    +0.171 C 
ATOM     14  C   UNL     1      -2.810   2.250   0.785  0.00  0.00    +0.130 C 
ATOM     15  C   UNL     1       0.223   2.288  -1.057  0.00  0.00    +0.130 C 
ATOM     16  C   UNL     1      -1.732   2.907   1.629  0.00  0.00    +0.185 C 
ATOM     17  C   UNL     1      -0.648   3.432  -1.543  0.00  0.00    +0.185 C 
ENDROOT
BRANCH  15   9
ATOM      9  N   UNL     1       0.477   1.359  -2.136  0.00  0.00    -0.306 N 
ATOM     10  N   UNL     1       2.280   0.411  -1.022  0.00  0.00    -0.214 NA
ATOM     11  N   UNL     1       1.605  -0.370  -3.199  0.00  0.00    -0.223 NA
ATOM     19  C   UNL     1       1.498   0.426  -2.118  0.00  0.00    +0.216 A 
ATOM     21  C   UNL     1       3.265  -0.511  -1.038  0.00  0.00    +0.076 A 
ATOM     22  C   UNL     1       2.611  -1.268  -3.148  0.00  0.00    +0.116 A 
ATOM     23  C   UNL     1       3.481  -1.385  -2.084  0.00  0.00    +0.048 A 
ATOM     33  H   UNL     1      -0.147   1.340  -2.935  0.00  0.00    +0.149 HD
BRANCH  21  24
ATOM      2  F   UNL     1       3.820  -1.042   3.727  0.00  0.00    -0.205 F 
ATOM     24  C   UNL     1       4.105  -0.531   0.136  0.00  0.00    +0.003 A 
ATOM     26  C   UNL     1       3.546  -0.782   1.389  0.00  0.00    +0.048 A 
ATOM     27  C   UNL     1       5.475  -0.299   0.018  0.00  0.00    +0.010 A 
ATOM     29  C   UNL     1       4.357  -0.801   2.523  0.00  0.00    +0.124 A 
ATOM     30  C   UNL     1       6.286  -0.318   1.152  0.00  0.00    +0.003 A 
ATOM     31  C   UNL     1       5.727  -0.569   2.405  0.00  0.00    +0.038 A 
ENDBRANCH  21  24
ENDBRANCH  15   9
BRANCH  14   8
ATOM      5  O   UNL     1      -5.464   1.129   0.502  0.00  0.00    -0.275 OA
ATOM      8  N   UNL     1      -3.333   1.070   1.430  0.00  0.00    -0.307 N 
ATOM     18  C   UNL     1      -4.625   0.605   1.234  0.00  0.00    +0.223 C 
ATOM     32  H   UNL     1      -2.699   0.531   2.012  0.00  0.00    +0.149 HD
BRANCH  18  20
ATOM     20  C   UNL     1      -4.935  -0.636   2.036  0.00  0.00    +0.165 C 
BRANCH  20   1
ATOM      1  S   UNL     1      -5.344  -1.983   0.900  0.00  0.00    -0.140 S 
BRANCH   1  25
ATOM     25  C   UNL     1      -3.664  -2.457   0.428  0.00  0.00    +0.189 C 
BRANCH  25  28
ATOM      7  O   UNL     1      -4.643  -3.781  -1.332  0.00  0.00    -0.250 OA
ATOM     28  C   UNL     1      -3.722  -3.598  -0.546  0.00  0.00    +0.315 C 
BRANCH  28   6
ATOM      6  O   UNL     1      -2.632  -4.404  -0.475  0.00  0.00    -0.480 OA
ATOM     34  H   UNL     1      -2.679  -5.140  -1.121  0.00  0.00    +0.295 HD
ENDBRANCH  28   6
ENDBRANCH  25  28
ENDBRANCH   1  25
ENDBRANCH  20   1
ENDBRANCH  18  20
ENDBRANCH  14   8
TORSDOF 8
