MODEL 1
REMARK VINA RESULT:      -7.6      0.000      0.000
REMARK  Name = 45361050
REMARK  8 active torsions:
REMARK  status: ('A' for Active; 'I' for Inactive)
REMARK    1  A    between atoms: N_3  and  C_16
REMARK    2  A    between atoms: N_4  and  C_18
REMARK    3  A    between atoms: N_6  and  C_24
REMARK    4  A    between atoms: N_8  and  C_29
REMARK    5  A    between atoms: C_13  and  C_17
REMARK    6  A    between atoms: C_16  and  C_19
REMARK    7  A    between atoms: C_17  and  C_20
REMARK    8  A    between atoms: C_20  and  C_21
REMARK                            x       y       z     vdW  Elec       q    Type
REMARK                         _______ _______ _______ _____ _____    ______ ____
ROOT
ATOM      1  O   UNL     1      -6.512  -9.430  16.560  0.00  0.00    -0.274 OA
ATOM      3  N   UNL     1      -7.000 -11.877  17.594  0.00  0.00    -0.283 NA
ATOM      4  N   UNL     1      -9.990  -9.858  18.209  0.00  0.00    -0.296 NA
ATOM      5  N   UNL     1      -8.637  -9.118  15.770  0.00  0.00    -0.312 N 
ATOM      9  C   UNL     1      -9.274 -11.138  18.013  0.00  0.00    +0.084 C 
ATOM     10  C   UNL     1      -8.140 -11.198  16.948  0.00  0.00    +0.161 C 
ATOM     11  C   UNL     1      -8.556 -11.652  19.276  0.00  0.00    +0.036 C 
ATOM     12  C   UNL     1      -7.533 -12.624  18.728  0.00  0.00    +0.087 C 
ATOM     13  C   UNL     1     -10.757  -9.393  17.021  0.00  0.00    +0.074 C 
ATOM     14  C   UNL     1      -7.666  -9.842  16.433  0.00  0.00    +0.232 C 
ATOM     15  C   UNL     1     -10.021  -9.539  15.675  0.00  0.00    +0.123 C 
ATOM     18  C   UNL     1     -10.867  -9.923  19.390  0.00  0.00    +0.105 C 
ATOM     35  H   UNL     1      -8.380  -8.216  15.382  0.00  0.00    +0.149 HD
ENDROOT
BRANCH   3  16
ATOM     16  C   UNL     1      -6.244 -12.727  16.684  0.00  0.00    +0.159 C 
BRANCH  16  19
ATOM      6  N   UNL     1      -4.792 -11.718  14.895  0.00  0.00    -0.330 N 
ATOM      7  N   UNL     1      -3.956 -11.725  16.954  0.00  0.00    -0.231 NA
ATOM     19  C   UNL     1      -4.984 -12.056  16.206  0.00  0.00    +0.125 A 
ATOM     22  C   UNL     1      -3.558 -11.130  14.791  0.00  0.00    +0.069 A 
ATOM     23  C   UNL     1      -3.056 -11.146  16.090  0.00  0.00    +0.089 A 
ATOM     24  C   UNL     1      -5.722 -11.940  13.810  0.00  0.00    +0.150 C 
ATOM     25  C   UNL     1      -2.859 -10.600  13.705  0.00  0.00    +0.028 A 
ATOM     26  C   UNL     1      -1.782 -10.606  16.338  0.00  0.00    +0.030 A 
ATOM     27  C   UNL     1      -1.594 -10.068  13.971  0.00  0.00    +0.002 A 
ATOM     28  C   UNL     1      -1.062 -10.070  15.263  0.00  0.00    +0.002 A 
ENDBRANCH  16  19
ENDBRANCH   3  16
BRANCH  13  17
ATOM     17  C   UNL     1     -11.150  -7.909  17.178  0.00  0.00    +0.029 C 
BRANCH  17  20
ATOM     20  C   UNL     1     -12.181  -7.485  16.146  0.00  0.00    +0.098 C 
BRANCH  20  21
ATOM      2  O   UNL     1     -10.606  -5.873  15.288  0.00  0.00    -0.275 OA
ATOM      8  N   UNL     1     -12.547  -6.360  14.059  0.00  0.00    -0.285 N 
ATOM     21  C   UNL     1     -11.667  -6.468  15.134  0.00  0.00    +0.217 C 
ATOM     36  H   UNL     1     -13.383  -6.938  14.079  0.00  0.00    +0.155 HD
BRANCH   8  29
ATOM     29  C   UNL     1     -12.421  -5.526  12.922  0.00  0.00    +0.033 A 
ATOM     30  C   UNL     1     -12.450  -4.140  13.069  0.00  0.00    +0.023 A 
ATOM     31  C   UNL     1     -12.269  -6.092  11.656  0.00  0.00    +0.023 A 
ATOM     32  C   UNL     1     -12.327  -3.318  11.949  0.00  0.00    +0.002 A 
ATOM     33  C   UNL     1     -12.145  -5.270  10.536  0.00  0.00    +0.002 A 
ATOM     34  C   UNL     1     -12.174  -3.883  10.683  0.00  0.00    +0.000 A 
ENDBRANCH   8  29
ENDBRANCH  20  21
ENDBRANCH  17  20
ENDBRANCH  13  17
TORSDOF 6
ENDMDL
MODEL 2
REMARK VINA RESULT:      -7.6      2.682      5.115
REMARK  Name = 45361050
REMARK  8 active torsions:
REMARK  status: ('A' for Active; 'I' for Inactive)
REMARK    1  A    between atoms: N_3  and  C_16
REMARK    2  A    between atoms: N_4  and  C_18
REMARK    3  A    between atoms: N_6  and  C_24
REMARK    4  A    between atoms: N_8  and  C_29
REMARK    5  A    between atoms: C_13  and  C_17
REMARK    6  A    between atoms: C_16  and  C_19
REMARK    7  A    between atoms: C_17  and  C_20
REMARK    8  A    between atoms: C_20  and  C_21
REMARK                            x       y       z     vdW  Elec       q    Type
REMARK                         _______ _______ _______ _____ _____    ______ ____
ROOT
ATOM      1  O   UNL     1      -2.143 -11.054  16.352  0.00  0.00    -0.274 OA
ATOM      3  N   UNL     1      -2.530 -13.053  14.578  0.00  0.00    -0.283 NA
ATOM      4  N   UNL     1      -5.737 -12.493  16.250  0.00  0.00    -0.296 NA
ATOM      5  N   UNL     1      -4.181 -10.075  16.002  0.00  0.00    -0.312 N 
ATOM      9  C   UNL     1      -4.893 -12.946  15.122  0.00  0.00    +0.084 C 
ATOM     10  C   UNL     1      -3.643 -12.099  14.744  0.00  0.00    +0.161 C 
ATOM     11  C   UNL     1      -4.284 -14.347  15.320  0.00  0.00    +0.036 C 
ATOM     12  C   UNL     1      -3.123 -14.366  14.348  0.00  0.00    +0.087 C 
ATOM     13  C   UNL     1      -6.399 -11.177  16.035  0.00  0.00    +0.074 C 
ATOM     14  C   UNL     1      -3.233 -11.056  15.780  0.00  0.00    +0.232 C 
ATOM     15  C   UNL     1      -5.502 -10.094  15.405  0.00  0.00    +0.123 C 
ATOM     18  C   UNL     1      -6.736 -13.516  16.602  0.00  0.00    +0.105 C 
ATOM     35  H   UNL     1      -3.962  -9.337  16.662  0.00  0.00    +0.149 HD
ENDROOT
BRANCH   3  16
ATOM     16  C   UNL     1      -1.602 -12.679  13.520  0.00  0.00    +0.159 C 
BRANCH  16  19
ATOM      6  N   UNL     1      -2.211 -10.700  12.091  0.00  0.00    -0.330 N 
ATOM      7  N   UNL     1      -3.070 -12.656  11.481  0.00  0.00    -0.231 NA
ATOM     19  C   UNL     1      -2.307 -12.038  12.354  0.00  0.00    +0.125 A 
ATOM     22  C   UNL     1      -2.961 -10.437  10.974  0.00  0.00    +0.069 A 
ATOM     23  C   UNL     1      -3.488 -11.674  10.612  0.00  0.00    +0.089 A 
ATOM     24  C   UNL     1      -1.453  -9.732  12.853  0.00  0.00    +0.150 C 
ATOM     25  C   UNL     1      -3.217  -9.260  10.271  0.00  0.00    +0.028 A 
ATOM     26  C   UNL     1      -4.321 -11.760   9.484  0.00  0.00    +0.030 A 
ATOM     27  C   UNL     1      -4.048  -9.364   9.151  0.00  0.00    +0.002 A 
ATOM     28  C   UNL     1      -4.592 -10.591   8.763  0.00  0.00    +0.002 A 
ENDBRANCH  16  19
ENDBRANCH   3  16
BRANCH  13  17
ATOM     17  C   UNL     1      -6.936 -10.618  17.369  0.00  0.00    +0.029 C 
BRANCH  17  20
ATOM     20  C   UNL     1      -7.443  -9.193  17.222  0.00  0.00    +0.098 C 
BRANCH  20  21
ATOM      2  O   UNL     1      -9.749  -9.865  17.434  0.00  0.00    -0.275 OA
ATOM      8  N   UNL     1      -9.202  -8.012  16.099  0.00  0.00    -0.285 N 
ATOM     21  C   UNL     1      -8.937  -9.089  16.941  0.00  0.00    +0.217 C 
ATOM     36  H   UNL     1      -8.410  -7.456  15.786  0.00  0.00    +0.155 HD
BRANCH   8  29
ATOM     29  C   UNL     1     -10.462  -7.589  15.611  0.00  0.00    +0.033 A 
ATOM     30  C   UNL     1     -11.108  -6.503  16.200  0.00  0.00    +0.023 A 
ATOM     31  C   UNL     1     -11.056  -8.258  14.541  0.00  0.00    +0.023 A 
ATOM     32  C   UNL     1     -12.349  -6.085  15.720  0.00  0.00    +0.002 A 
ATOM     33  C   UNL     1     -12.297  -7.841  14.060  0.00  0.00    +0.002 A 
ATOM     34  C   UNL     1     -12.943  -6.754  14.650  0.00  0.00    +0.000 A 
ENDBRANCH   8  29
ENDBRANCH  20  21
ENDBRANCH  17  20
ENDBRANCH  13  17
TORSDOF 6
ENDMDL
MODEL 3
REMARK VINA RESULT:      -7.3      3.848      6.591
REMARK  Name = 45361050
REMARK  8 active torsions:
REMARK  status: ('A' for Active; 'I' for Inactive)
REMARK    1  A    between atoms: N_3  and  C_16
REMARK    2  A    between atoms: N_4  and  C_18
REMARK    3  A    between atoms: N_6  and  C_24
REMARK    4  A    between atoms: N_8  and  C_29
REMARK    5  A    between atoms: C_13  and  C_17
REMARK    6  A    between atoms: C_16  and  C_19
REMARK    7  A    between atoms: C_17  and  C_20
REMARK    8  A    between atoms: C_20  and  C_21
REMARK                            x       y       z     vdW  Elec       q    Type
REMARK                         _______ _______ _______ _____ _____    ______ ____
ROOT
ATOM      1  O   UNL     1      -6.274 -10.133  12.798  0.00  0.00    -0.274 OA
ATOM      3  N   UNL     1      -3.790 -11.139  12.468  0.00  0.00    -0.283 NA
ATOM      4  N   UNL     1      -5.240 -10.797   9.125  0.00  0.00    -0.296 NA
ATOM      5  N   UNL     1      -6.190  -8.778  10.956  0.00  0.00    -0.312 N 
ATOM      9  C   UNL     1      -4.109 -10.880  10.076  0.00  0.00    +0.084 C 
ATOM     10  C   UNL     1      -4.245 -10.169  11.454  0.00  0.00    +0.161 C 
ATOM     11  C   UNL     1      -3.746 -12.318  10.491  0.00  0.00    +0.036 C 
ATOM     12  C   UNL     1      -2.969 -12.128  11.777  0.00  0.00    +0.087 C 
ATOM     13  C   UNL     1      -5.547  -9.419   8.652  0.00  0.00    +0.074 C 
ATOM     14  C   UNL     1      -5.659  -9.722  11.814  0.00  0.00    +0.232 C 
ATOM     15  C   UNL     1      -5.524  -8.335   9.747  0.00  0.00    +0.123 C 
ATOM     18  C   UNL     1      -5.029 -11.695   7.979  0.00  0.00    +0.105 C 
ATOM     35  H   UNL     1      -7.119  -8.421  11.153  0.00  0.00    +0.149 HD
ENDROOT
BRANCH   3  16
ATOM     16  C   UNL     1      -3.082 -10.522  13.582  0.00  0.00    +0.159 C 
BRANCH  16  19
ATOM      6  N   UNL     1      -2.925 -10.949  16.056  0.00  0.00    -0.330 N 
ATOM      7  N   UNL     1      -4.917 -11.270  15.126  0.00  0.00    -0.231 NA
ATOM     19  C   UNL     1      -3.670 -10.919  14.910  0.00  0.00    +0.125 A 
ATOM     22  C   UNL     1      -3.746 -11.346  17.079  0.00  0.00    +0.069 A 
ATOM     23  C   UNL     1      -4.985 -11.540  16.473  0.00  0.00    +0.089 A 
ATOM     24  C   UNL     1      -1.522 -10.621  16.171  0.00  0.00    +0.150 C 
ATOM     25  C   UNL     1      -3.520 -11.544  18.441  0.00  0.00    +0.028 A 
ATOM     26  C   UNL     1      -6.073 -11.959  17.258  0.00  0.00    +0.030 A 
ATOM     27  C   UNL     1      -4.614 -11.961  19.207  0.00  0.00    +0.002 A 
ATOM     28  C   UNL     1      -5.869 -12.165  18.628  0.00  0.00    +0.002 A 
ENDBRANCH  16  19
ENDBRANCH   3  16
BRANCH  13  17
ATOM     17  C   UNL     1      -6.937  -9.375   7.983  0.00  0.00    +0.029 C 
BRANCH  17  20
ATOM     20  C   UNL     1      -7.361  -7.952   7.655  0.00  0.00    +0.098 C 
BRANCH  20  21
ATOM      2  O   UNL     1      -8.951  -8.035   9.467  0.00  0.00    -0.275 OA
ATOM      8  N   UNL     1      -9.089  -6.306   7.884  0.00  0.00    -0.285 N 
ATOM     21  C   UNL     1      -8.562  -7.461   8.454  0.00  0.00    +0.217 C 
ATOM     36  H   UNL     1      -8.637  -5.949   7.045  0.00  0.00    +0.155 HD
BRANCH   8  29
ATOM     29  C   UNL     1     -10.201  -5.552   8.332  0.00  0.00    +0.033 A 
ATOM     30  C   UNL     1     -11.488  -6.076   8.220  0.00  0.00    +0.023 A 
ATOM     31  C   UNL     1     -10.008  -4.286   8.886  0.00  0.00    +0.023 A 
ATOM     32  C   UNL     1     -12.584  -5.334   8.661  0.00  0.00    +0.002 A 
ATOM     33  C   UNL     1     -11.103  -3.544   9.327  0.00  0.00    +0.002 A 
ATOM     34  C   UNL     1     -12.391  -4.069   9.215  0.00  0.00    +0.000 A 
ENDBRANCH   8  29
ENDBRANCH  20  21
ENDBRANCH  17  20
ENDBRANCH  13  17
TORSDOF 6
ENDMDL
MODEL 4
REMARK VINA RESULT:      -7.2      4.160      9.827
REMARK  Name = 45361050
REMARK  8 active torsions:
REMARK  status: ('A' for Active; 'I' for Inactive)
REMARK    1  A    between atoms: N_3  and  C_16
REMARK    2  A    between atoms: N_4  and  C_18
REMARK    3  A    between atoms: N_6  and  C_24
REMARK    4  A    between atoms: N_8  and  C_29
REMARK    5  A    between atoms: C_13  and  C_17
REMARK    6  A    between atoms: C_16  and  C_19
REMARK    7  A    between atoms: C_17  and  C_20
REMARK    8  A    between atoms: C_20  and  C_21
REMARK                            x       y       z     vdW  Elec       q    Type
REMARK                         _______ _______ _______ _____ _____    ______ ____
ROOT
ATOM      1  O   UNL     1      -6.320 -10.696  12.122  0.00  0.00    -0.274 OA
ATOM      3  N   UNL     1      -5.421  -9.915   9.698  0.00  0.00    -0.283 NA
ATOM      4  N   UNL     1      -2.468 -10.481  11.784  0.00  0.00    -0.296 NA
ATOM      5  N   UNL     1      -4.659 -12.231  12.468  0.00  0.00    -0.312 N 
ATOM      9  C   UNL     1      -3.175 -10.388  10.488  0.00  0.00    +0.084 C 
ATOM     10  C   UNL     1      -4.626 -10.945  10.392  0.00  0.00    +0.161 C 
ATOM     11  C   UNL     1      -3.351  -8.946   9.975  0.00  0.00    +0.036 C 
ATOM     12  C   UNL     1      -4.482  -9.064   8.975  0.00  0.00    +0.087 C 
ATOM     13  C   UNL     1      -2.217 -11.873  12.250  0.00  0.00    +0.074 C 
ATOM     14  C   UNL     1      -5.291 -11.248  11.732  0.00  0.00    +0.232 C 
ATOM     15  C   UNL     1      -3.404 -12.841  12.074  0.00  0.00    +0.123 C 
ATOM     18  C   UNL     1      -1.209  -9.720  11.751  0.00  0.00    +0.105 C 
ATOM     35  H   UNL     1      -5.064 -12.497  13.359  0.00  0.00    +0.149 HD
ENDROOT
BRANCH   3  16
ATOM     16  C   UNL     1      -6.445 -10.468   8.822  0.00  0.00    +0.159 C 
BRANCH  16  19
ATOM      6  N   UNL     1      -7.894  -9.259   7.160  0.00  0.00    -0.330 N 
ATOM      7  N   UNL     1      -8.091  -8.626   9.281  0.00  0.00    -0.231 NA
ATOM     19  C   UNL     1      -7.481  -9.441   8.450  0.00  0.00    +0.125 A 
ATOM     22  C   UNL     1      -8.834  -8.261   7.157  0.00  0.00    +0.069 A 
ATOM     23  C   UNL     1      -8.939  -7.882   8.493  0.00  0.00    +0.089 A 
ATOM     24  C   UNL     1      -7.427  -9.988   6.002  0.00  0.00    +0.150 C 
ATOM     25  C   UNL     1      -9.579  -7.675   6.134  0.00  0.00    +0.028 A 
ATOM     26  C   UNL     1      -9.836  -6.859   8.846  0.00  0.00    +0.030 A 
ATOM     27  C   UNL     1     -10.466  -6.658   6.503  0.00  0.00    +0.002 A 
ATOM     28  C   UNL     1     -10.593  -6.255   7.835  0.00  0.00    +0.002 A 
ENDBRANCH  16  19
ENDBRANCH   3  16
BRANCH  13  17
ATOM     17  C   UNL     1      -1.829 -11.881  13.744  0.00  0.00    +0.029 C 
BRANCH  17  20
ATOM     20  C   UNL     1      -2.561 -10.800  14.523  0.00  0.00    +0.098 C 
BRANCH  20  21
ATOM      2  O   UNL     1      -3.924 -12.520  15.522  0.00  0.00    -0.275 OA
ATOM      8  N   UNL     1      -4.133 -10.302  16.264  0.00  0.00    -0.285 N 
ATOM     21  C   UNL     1      -3.621 -11.332  15.480  0.00  0.00    +0.217 C 
ATOM     36  H   UNL     1      -3.761  -9.368  16.111  0.00  0.00    +0.155 HD
BRANCH   8  29
ATOM     29  C   UNL     1      -5.129 -10.394  17.266  0.00  0.00    +0.033 A 
ATOM     30  C   UNL     1      -4.831 -10.987  18.492  0.00  0.00    +0.023 A 
ATOM     31  C   UNL     1      -6.408  -9.891  17.026  0.00  0.00    +0.023 A 
ATOM     32  C   UNL     1      -5.812 -11.078  19.480  0.00  0.00    +0.002 A 
ATOM     33  C   UNL     1      -7.389  -9.982  18.013  0.00  0.00    +0.002 A 
ATOM     34  C   UNL     1      -7.091 -10.576  19.240  0.00  0.00    +0.000 A 
ENDBRANCH   8  29
ENDBRANCH  20  21
ENDBRANCH  17  20
ENDBRANCH  13  17
TORSDOF 6
ENDMDL
MODEL 5
REMARK VINA RESULT:      -7.1      2.555      8.020
REMARK  Name = 45361050
REMARK  8 active torsions:
REMARK  status: ('A' for Active; 'I' for Inactive)
REMARK    1  A    between atoms: N_3  and  C_16
REMARK    2  A    between atoms: N_4  and  C_18
REMARK    3  A    between atoms: N_6  and  C_24
REMARK    4  A    between atoms: N_8  and  C_29
REMARK    5  A    between atoms: C_13  and  C_17
REMARK    6  A    between atoms: C_16  and  C_19
REMARK    7  A    between atoms: C_17  and  C_20
REMARK    8  A    between atoms: C_20  and  C_21
REMARK                            x       y       z     vdW  Elec       q    Type
REMARK                         _______ _______ _______ _____ _____    ______ ____
ROOT
ATOM      1  O   UNL     1      -7.269  -9.556  15.376  0.00  0.00    -0.274 OA
ATOM      3  N   UNL     1      -8.021 -11.102  17.458  0.00  0.00    -0.283 NA
ATOM      4  N   UNL     1      -5.093 -12.706  15.956  0.00  0.00    -0.296 NA
ATOM      5  N   UNL     1      -5.024  -9.831  15.720  0.00  0.00    -0.312 N 
ATOM      9  C   UNL     1      -6.016 -12.418  17.077  0.00  0.00    +0.084 C 
ATOM     10  C   UNL     1      -6.569 -10.970  17.229  0.00  0.00    +0.161 C 
ATOM     11  C   UNL     1      -7.310 -13.254  17.051  0.00  0.00    +0.036 C 
ATOM     12  C   UNL     1      -8.258 -12.463  17.927  0.00  0.00    +0.087 C 
ATOM     13  C   UNL     1      -3.803 -11.965  16.016  0.00  0.00    +0.074 C 
ATOM     14  C   UNL     1      -6.352 -10.066  16.019  0.00  0.00    +0.232 C 
ATOM     15  C   UNL     1      -3.924 -10.479  16.406  0.00  0.00    +0.123 C 
ATOM     18  C   UNL     1      -4.847 -14.152  15.839  0.00  0.00    +0.105 C 
ATOM     35  H   UNL     1      -4.810  -9.218  14.940  0.00  0.00    +0.149 HD
ENDROOT
BRANCH   3  16
ATOM     16  C   UNL     1      -8.553 -10.105  18.376  0.00  0.00    +0.159 C 
BRANCH  16  19
ATOM      6  N   UNL     1     -10.900  -9.566  17.648  0.00  0.00    -0.330 N 
ATOM      7  N   UNL     1      -9.342  -8.064  17.143  0.00  0.00    -0.231 NA
ATOM     19  C   UNL     1      -9.578  -9.223  17.715  0.00  0.00    +0.125 A 
ATOM     22  C   UNL     1     -11.561  -8.561  16.991  0.00  0.00    +0.069 A 
ATOM     23  C   UNL     1     -10.567  -7.635  16.685  0.00  0.00    +0.089 A 
ATOM     24  C   UNL     1     -11.497 -10.772  18.177  0.00  0.00    +0.150 C 
ATOM     25  C   UNL     1     -12.902  -8.387  16.647  0.00  0.00    +0.028 A 
ATOM     26  C   UNL     1     -10.914  -6.460  15.996  0.00  0.00    +0.030 A 
ATOM     27  C   UNL     1     -13.229  -7.212  15.962  0.00  0.00    +0.002 A 
ATOM     28  C   UNL     1     -12.254  -6.265  15.641  0.00  0.00    +0.002 A 
ENDBRANCH  16  19
ENDBRANCH   3  16
BRANCH  13  17
ATOM     17  C   UNL     1      -3.080 -12.031  14.654  0.00  0.00    +0.029 C 
BRANCH  17  20
ATOM     20  C   UNL     1      -2.287 -10.764  14.374  0.00  0.00    +0.098 C 
BRANCH  20  21
ATOM      2  O   UNL     1      -1.302  -9.922  12.340  0.00  0.00    -0.275 OA
ATOM      8  N   UNL     1      -3.582 -10.485  12.374  0.00  0.00    -0.285 N 
ATOM     21  C   UNL     1      -2.308 -10.328  12.914  0.00  0.00    +0.217 C 
ATOM     36  H   UNL     1      -4.308 -10.849  12.987  0.00  0.00    +0.155 HD
BRANCH   8  29
ATOM     29  C   UNL     1      -4.002 -10.192  11.055  0.00  0.00    +0.033 A 
ATOM     30  C   UNL     1      -4.045 -11.204  10.097  0.00  0.00    +0.023 A 
ATOM     31  C   UNL     1      -4.373  -8.891  10.714  0.00  0.00    +0.023 A 
ATOM     32  C   UNL     1      -4.458 -10.916   8.796  0.00  0.00    +0.002 A 
ATOM     33  C   UNL     1      -4.788  -8.603   9.413  0.00  0.00    +0.002 A 
ATOM     34  C   UNL     1      -4.830  -9.616   8.455  0.00  0.00    +0.000 A 
ENDBRANCH   8  29
ENDBRANCH  20  21
ENDBRANCH  17  20
ENDBRANCH  13  17
TORSDOF 6
ENDMDL
MODEL 6
REMARK VINA RESULT:      -7.1      5.519     10.834
REMARK  Name = 45361050
REMARK  8 active torsions:
REMARK  status: ('A' for Active; 'I' for Inactive)
REMARK    1  A    between atoms: N_3  and  C_16
REMARK    2  A    between atoms: N_4  and  C_18
REMARK    3  A    between atoms: N_6  and  C_24
REMARK    4  A    between atoms: N_8  and  C_29
REMARK    5  A    between atoms: C_13  and  C_17
REMARK    6  A    between atoms: C_16  and  C_19
REMARK    7  A    between atoms: C_17  and  C_20
REMARK    8  A    between atoms: C_20  and  C_21
REMARK                            x       y       z     vdW  Elec       q    Type
REMARK                         _______ _______ _______ _____ _____    ______ ____
ROOT
ATOM      1  O   UNL     1      -5.535  -9.559   7.398  0.00  0.00    -0.274 OA
ATOM      3  N   UNL     1      -7.615  -8.350   8.624  0.00  0.00    -0.283 NA
ATOM      4  N   UNL     1      -5.861 -10.285  11.188  0.00  0.00    -0.296 NA
ATOM      5  N   UNL     1      -4.084  -9.286   9.146  0.00  0.00    -0.312 N 
ATOM      9  C   UNL     1      -6.732  -9.181  10.727  0.00  0.00    +0.084 C 
ATOM     10  C   UNL     1      -6.365  -8.452   9.400  0.00  0.00    +0.161 C 
ATOM     11  C   UNL     1      -8.191  -9.601  10.469  0.00  0.00    +0.036 C 
ATOM     12  C   UNL     1      -8.718  -8.507   9.566  0.00  0.00    +0.087 C 
ATOM     13  C   UNL     1      -4.469  -9.874  11.521  0.00  0.00    +0.074 C 
ATOM     14  C   UNL     1      -5.320  -9.160   8.542  0.00  0.00    +0.232 C 
ATOM     15  C   UNL     1      -3.823  -8.899  10.518  0.00  0.00    +0.123 C 
ATOM     18  C   UNL     1      -6.470 -10.993  12.326  0.00  0.00    +0.105 C 
ATOM     35  H   UNL     1      -3.337  -9.726   8.620  0.00  0.00    +0.149 HD
ENDROOT
BRANCH   3  16
ATOM     16  C   UNL     1      -7.720  -7.116   7.857  0.00  0.00    +0.159 C 
BRANCH  16  19
ATOM      6  N   UNL     1      -9.599  -7.005   6.189  0.00  0.00    -0.330 N 
ATOM      7  N   UNL     1      -7.695  -7.895   5.468  0.00  0.00    -0.231 NA
ATOM     19  C   UNL     1      -8.313  -7.352   6.493  0.00  0.00    +0.125 A 
ATOM     22  C   UNL     1      -9.828  -7.347   4.881  0.00  0.00    +0.069 A 
ATOM     23  C   UNL     1      -8.624  -7.901   4.453  0.00  0.00    +0.089 A 
ATOM     24  C   UNL     1     -10.552  -6.386   7.084  0.00  0.00    +0.150 C 
ATOM     25  C   UNL     1     -10.949  -7.222   4.060  0.00  0.00    +0.028 A 
ATOM     26  C   UNL     1      -8.516  -8.364   3.131  0.00  0.00    +0.030 A 
ATOM     27  C   UNL     1     -10.823  -7.689   2.748  0.00  0.00    +0.002 A 
ATOM     28  C   UNL     1      -9.628  -8.250   2.289  0.00  0.00    +0.002 A 
ENDBRANCH  16  19
ENDBRANCH   3  16
BRANCH  13  17
ATOM     17  C   UNL     1      -3.552 -11.111  11.624  0.00  0.00    +0.029 C 
BRANCH  17  20
ATOM     20  C   UNL     1      -2.246 -10.788  12.332  0.00  0.00    +0.098 C 
BRANCH  20  21
ATOM      2  O   UNL     1      -1.511  -9.979  14.482  0.00  0.00    -0.275 OA
ATOM      8  N   UNL     1      -3.649 -10.926  14.271  0.00  0.00    -0.285 N 
ATOM     21  C   UNL     1      -2.398 -10.513  13.823  0.00  0.00    +0.217 C 
ATOM     36  H   UNL     1      -4.278 -11.342  13.588  0.00  0.00    +0.155 HD
BRANCH   8  29
ATOM     29  C   UNL     1      -4.166 -10.841  15.586  0.00  0.00    +0.033 A 
ATOM     30  C   UNL     1      -3.509 -11.483  16.636  0.00  0.00    +0.023 A 
ATOM     31  C   UNL     1      -5.332 -10.116  15.832  0.00  0.00    +0.023 A 
ATOM     32  C   UNL     1      -4.018 -11.400  17.932  0.00  0.00    +0.002 A 
ATOM     33  C   UNL     1      -5.841 -10.032  17.129  0.00  0.00    +0.002 A 
ATOM     34  C   UNL     1      -5.183 -10.674  18.178  0.00  0.00    +0.000 A 
ENDBRANCH   8  29
ENDBRANCH  20  21
ENDBRANCH  17  20
ENDBRANCH  13  17
TORSDOF 6
ENDMDL
MODEL 7
REMARK VINA RESULT:      -7.0      3.327      8.394
REMARK  Name = 45361050
REMARK  8 active torsions:
REMARK  status: ('A' for Active; 'I' for Inactive)
REMARK    1  A    between atoms: N_3  and  C_16
REMARK    2  A    between atoms: N_4  and  C_18
REMARK    3  A    between atoms: N_6  and  C_24
REMARK    4  A    between atoms: N_8  and  C_29
REMARK    5  A    between atoms: C_13  and  C_17
REMARK    6  A    between atoms: C_16  and  C_19
REMARK    7  A    between atoms: C_17  and  C_20
REMARK    8  A    between atoms: C_20  and  C_21
REMARK                            x       y       z     vdW  Elec       q    Type
REMARK                         _______ _______ _______ _____ _____    ______ ____
ROOT
ATOM      1  O   UNL     1      -6.400  -8.804  12.540  0.00  0.00    -0.274 OA
ATOM      3  N   UNL     1      -4.828 -10.132  10.792  0.00  0.00    -0.283 NA
ATOM      4  N   UNL     1      -3.295 -10.520  14.093  0.00  0.00    -0.296 NA
ATOM      5  N   UNL     1      -6.172 -10.338  14.223  0.00  0.00    -0.312 N 
ATOM      9  C   UNL     1      -3.558 -10.938  12.697  0.00  0.00    +0.084 C 
ATOM     10  C   UNL     1      -4.992 -10.745  12.124  0.00  0.00    +0.161 C 
ATOM     11  C   UNL     1      -2.694 -10.206  11.653  0.00  0.00    +0.036 C 
ATOM     12  C   UNL     1      -3.460 -10.403  10.362  0.00  0.00    +0.087 C 
ATOM     13  C   UNL     1      -4.063 -11.280  15.118  0.00  0.00    +0.074 C 
ATOM     14  C   UNL     1      -5.906  -9.852  12.957  0.00  0.00    +0.232 C 
ATOM     15  C   UNL     1      -5.544 -11.524  14.770  0.00  0.00    +0.123 C 
ATOM     18  C   UNL     1      -1.855 -10.571  14.393  0.00  0.00    +0.105 C 
ATOM     35  H   UNL     1      -6.792  -9.803  14.821  0.00  0.00    +0.149 HD
ENDROOT
BRANCH   3  16
ATOM     16  C   UNL     1      -5.809 -10.592   9.819  0.00  0.00    +0.159 C 
BRANCH  16  19
ATOM      6  N   UNL     1      -8.102  -9.559   9.776  0.00  0.00    -0.330 N 
ATOM      7  N   UNL     1      -6.486  -8.411   8.771  0.00  0.00    -0.231 NA
ATOM     19  C   UNL     1      -6.778  -9.504   9.441  0.00  0.00    +0.125 A 
ATOM     22  C   UNL     1      -8.705  -8.428   9.290  0.00  0.00    +0.069 A 
ATOM     23  C   UNL     1      -7.675  -7.727   8.668  0.00  0.00    +0.089 A 
ATOM     24  C   UNL     1      -8.754 -10.620  10.511  0.00  0.00    +0.150 C 
ATOM     25  C   UNL     1     -10.022  -7.970   9.342  0.00  0.00    +0.028 A 
ATOM     26  C   UNL     1      -7.959  -6.495   8.054  0.00  0.00    +0.030 A 
ATOM     27  C   UNL     1     -10.286  -6.742   8.726  0.00  0.00    +0.002 A 
ATOM     28  C   UNL     1      -9.274  -6.016   8.092  0.00  0.00    +0.002 A 
ENDBRANCH  16  19
ENDBRANCH   3  16
BRANCH  13  17
ATOM     17  C   UNL     1      -4.019 -10.549  16.476  0.00  0.00    +0.029 C 
BRANCH  17  20
ATOM     20  C   UNL     1      -4.184 -11.511  17.641  0.00  0.00    +0.098 C 
BRANCH  20  21
ATOM      2  O   UNL     1      -6.039 -12.894  18.321  0.00  0.00    -0.275 OA
ATOM      8  N   UNL     1      -6.364 -10.588  18.024  0.00  0.00    -0.285 N 
ATOM     21  C   UNL     1      -5.634 -11.773  18.031  0.00  0.00    +0.217 C 
ATOM     36  H   UNL     1      -5.871  -9.735  17.770  0.00  0.00    +0.155 HD
BRANCH   8  29
ATOM     29  C   UNL     1      -7.736 -10.418  18.328  0.00  0.00    +0.033 A 
ATOM     30  C   UNL     1      -8.538  -9.624  17.509  0.00  0.00    +0.023 A 
ATOM     31  C   UNL     1      -8.285 -11.044  19.447  0.00  0.00    +0.023 A 
ATOM     32  C   UNL     1      -9.890  -9.455  17.809  0.00  0.00    +0.002 A 
ATOM     33  C   UNL     1      -9.637 -10.877  19.747  0.00  0.00    +0.002 A 
ATOM     34  C   UNL     1     -10.439 -10.082  18.927  0.00  0.00    +0.000 A 
ENDBRANCH   8  29
ENDBRANCH  20  21
ENDBRANCH  17  20
ENDBRANCH  13  17
TORSDOF 6
ENDMDL
MODEL 8
REMARK VINA RESULT:      -7.0      2.802      4.873
REMARK  Name = 45361050
REMARK  8 active torsions:
REMARK  status: ('A' for Active; 'I' for Inactive)
REMARK    1  A    between atoms: N_3  and  C_16
REMARK    2  A    between atoms: N_4  and  C_18
REMARK    3  A    between atoms: N_6  and  C_24
REMARK    4  A    between atoms: N_8  and  C_29
REMARK    5  A    between atoms: C_13  and  C_17
REMARK    6  A    between atoms: C_16  and  C_19
REMARK    7  A    between atoms: C_17  and  C_20
REMARK    8  A    between atoms: C_20  and  C_21
REMARK                            x       y       z     vdW  Elec       q    Type
REMARK                         _______ _______ _______ _____ _____    ______ ____
ROOT
ATOM      1  O   UNL     1      -7.321 -11.244  15.098  0.00  0.00    -0.274 OA
ATOM      3  N   UNL     1      -4.693 -11.449  15.685  0.00  0.00    -0.283 NA
ATOM      4  N   UNL     1      -6.504 -11.701  18.856  0.00  0.00    -0.296 NA
ATOM      5  N   UNL     1      -7.994 -12.796  16.640  0.00  0.00    -0.312 N 
ATOM      9  C   UNL     1      -5.343 -11.945  17.971  0.00  0.00    +0.084 C 
ATOM     10  C   UNL     1      -5.610 -12.292  16.477  0.00  0.00    +0.161 C 
ATOM     11  C   UNL     1      -4.382 -10.747  17.856  0.00  0.00    +0.036 C 
ATOM     12  C   UNL     1      -3.619 -11.029  16.579  0.00  0.00    +0.087 C 
ATOM     13  C   UNL     1      -7.395 -12.880  19.042  0.00  0.00    +0.074 C 
ATOM     14  C   UNL     1      -7.036 -12.034  15.999  0.00  0.00    +0.232 C 
ATOM     15  C   UNL     1      -7.700 -13.673  17.757  0.00  0.00    +0.123 C 
ATOM     18  C   UNL     1      -6.067 -11.180  20.162  0.00  0.00    +0.105 C 
ATOM     35  H   UNL     1      -8.961 -12.690  16.353  0.00  0.00    +0.149 HD
ENDROOT
BRANCH   3  16
ATOM     16  C   UNL     1      -4.185 -12.111  14.492  0.00  0.00    +0.159 C 
BRANCH  16  19
ATOM      6  N   UNL     1      -3.215 -11.021  12.444  0.00  0.00    -0.330 N 
ATOM      7  N   UNL     1      -5.348 -10.575  12.880  0.00  0.00    -0.231 NA
ATOM     19  C   UNL     1      -4.279 -11.228  13.276  0.00  0.00    +0.125 A 
ATOM     22  C   UNL     1      -3.624 -10.177  11.443  0.00  0.00    +0.069 A 
ATOM     23  C   UNL     1      -4.959  -9.913  11.738  0.00  0.00    +0.089 A 
ATOM     24  C   UNL     1      -1.893 -11.588  12.589  0.00  0.00    +0.150 C 
ATOM     25  C   UNL     1      -2.962  -9.640  10.339  0.00  0.00    +0.028 A 
ATOM     26  C   UNL     1      -5.692  -9.064  10.891  0.00  0.00    +0.030 A 
ATOM     27  C   UNL     1      -3.707  -8.797   9.508  0.00  0.00    +0.002 A 
ATOM     28  C   UNL     1      -5.048  -8.512   9.777  0.00  0.00    +0.002 A 
ENDBRANCH  16  19
ENDBRANCH   3  16
BRANCH  13  17
ATOM     17  C   UNL     1      -8.744 -12.445  19.652  0.00  0.00    +0.029 C 
BRANCH  17  20
ATOM     20  C   UNL     1      -8.965 -10.947  19.525  0.00  0.00    +0.098 C 
BRANCH  20  21
ATOM      2  O   UNL     1     -10.371 -11.377  17.613  0.00  0.00    -0.275 OA
ATOM      8  N   UNL     1     -10.089  -9.171  18.368  0.00  0.00    -0.285 N 
ATOM     21  C   UNL     1      -9.887 -10.549  18.378  0.00  0.00    +0.217 C 
ATOM     36  H   UNL     1      -9.620  -8.624  19.087  0.00  0.00    +0.155 HD
BRANCH   8  29
ATOM     29  C   UNL     1     -10.878  -8.422  17.464  0.00  0.00    +0.033 A 
ATOM     30  C   UNL     1     -12.204  -8.785  17.230  0.00  0.00    +0.023 A 
ATOM     31  C   UNL     1     -10.330  -7.320  16.807  0.00  0.00    +0.023 A 
ATOM     32  C   UNL     1     -12.982  -8.047  16.338  0.00  0.00    +0.002 A 
ATOM     33  C   UNL     1     -11.108  -6.581  15.915  0.00  0.00    +0.002 A 
ATOM     34  C   UNL     1     -12.434  -6.945  15.681  0.00  0.00    +0.000 A 
ENDBRANCH   8  29
ENDBRANCH  20  21
ENDBRANCH  17  20
ENDBRANCH  13  17
TORSDOF 6
ENDMDL
MODEL 9
REMARK VINA RESULT:      -6.9      3.932      8.052
REMARK  Name = 45361050
REMARK  8 active torsions:
REMARK  status: ('A' for Active; 'I' for Inactive)
REMARK    1  A    between atoms: N_3  and  C_16
REMARK    2  A    between atoms: N_4  and  C_18
REMARK    3  A    between atoms: N_6  and  C_24
REMARK    4  A    between atoms: N_8  and  C_29
REMARK    5  A    between atoms: C_13  and  C_17
REMARK    6  A    between atoms: C_16  and  C_19
REMARK    7  A    between atoms: C_17  and  C_20
REMARK    8  A    between atoms: C_20  and  C_21
REMARK                            x       y       z     vdW  Elec       q    Type
REMARK                         _______ _______ _______ _____ _____    ______ ____
ROOT
ATOM      1  O   UNL     1      -6.592  -9.880  12.925  0.00  0.00    -0.274 OA
ATOM      3  N   UNL     1      -4.586 -10.934  11.455  0.00  0.00    -0.283 NA
ATOM      4  N   UNL     1      -3.351 -10.672  14.891  0.00  0.00    -0.296 NA
ATOM      5  N   UNL     1      -6.190 -11.172  14.770  0.00  0.00    -0.312 N 
ATOM      9  C   UNL     1      -3.366 -11.253  13.530  0.00  0.00    +0.084 C 
ATOM     10  C   UNL     1      -4.740 -11.457  12.826  0.00  0.00    +0.161 C 
ATOM     11  C   UNL     1      -2.592 -10.424  12.487  0.00  0.00    +0.036 C 
ATOM     12  C   UNL     1      -3.156 -10.904  11.167  0.00  0.00    +0.087 C 
ATOM     13  C   UNL     1      -4.024 -11.506  15.924  0.00  0.00    +0.074 C 
ATOM     14  C   UNL     1      -5.916 -10.743  13.486  0.00  0.00    +0.232 C 
ATOM     15  C   UNL     1      -5.365 -12.125  15.486  0.00  0.00    +0.123 C 
ATOM     18  C   UNL     1      -1.976 -10.352  15.309  0.00  0.00    +0.105 C 
ATOM     35  H   UNL     1      -6.975 -10.754  15.258  0.00  0.00    +0.149 HD
ENDROOT
BRANCH   3  16
ATOM     16  C   UNL     1      -5.330 -11.694  10.460  0.00  0.00    +0.159 C 
BRANCH  16  19
ATOM      6  N   UNL     1      -5.556 -10.957   8.065  0.00  0.00    -0.330 N 
ATOM      7  N   UNL     1      -6.741  -9.819   9.561  0.00  0.00    -0.231 NA
ATOM     19  C   UNL     1      -5.892 -10.806   9.382  0.00  0.00    +0.125 A 
ATOM     22  C   UNL     1      -6.232 -10.004   7.348  0.00  0.00    +0.069 A 
ATOM     23  C   UNL     1      -6.965  -9.307   8.304  0.00  0.00    +0.089 A 
ATOM     24  C   UNL     1      -4.649 -11.945   7.523  0.00  0.00    +0.150 C 
ATOM     25  C   UNL     1      -6.264  -9.703   5.986  0.00  0.00    +0.028 A 
ATOM     26  C   UNL     1      -7.784  -8.241   7.894  0.00  0.00    +0.030 A 
ATOM     27  C   UNL     1      -7.085  -8.639   5.597  0.00  0.00    +0.002 A 
ATOM     28  C   UNL     1      -7.832  -7.919   6.533  0.00  0.00    +0.002 A 
ENDBRANCH  16  19
ENDBRANCH   3  16
BRANCH  13  17
ATOM     17  C   UNL     1      -4.289 -10.676  17.198  0.00  0.00    +0.029 C 
BRANCH  17  20
ATOM     20  C   UNL     1      -4.909 -11.518  18.302  0.00  0.00    +0.098 C 
BRANCH  20  21
ATOM      2  O   UNL     1      -6.053 -10.297  20.038  0.00  0.00    -0.275 OA
ATOM      8  N   UNL     1      -7.256 -11.044  18.165  0.00  0.00    -0.285 N 
ATOM     21  C   UNL     1      -6.126 -10.880  18.961  0.00  0.00    +0.217 C 
ATOM     36  H   UNL     1      -7.142 -11.546  17.287  0.00  0.00    +0.155 HD
BRANCH   8  29
ATOM     29  C   UNL     1      -8.572 -10.595  18.431  0.00  0.00    +0.033 A 
ATOM     30  C   UNL     1      -9.148  -9.613  17.626  0.00  0.00    +0.023 A 
ATOM     31  C   UNL     1      -9.291 -11.134  19.498  0.00  0.00    +0.023 A 
ATOM     32  C   UNL     1     -10.444  -9.169  17.887  0.00  0.00    +0.002 A 
ATOM     33  C   UNL     1     -10.587 -10.691  19.759  0.00  0.00    +0.002 A 
ATOM     34  C   UNL     1     -11.163  -9.708  18.954  0.00  0.00    +0.000 A 
ENDBRANCH   8  29
ENDBRANCH  20  21
ENDBRANCH  17  20
ENDBRANCH  13  17
TORSDOF 6
ENDMDL
MODEL 10
REMARK VINA RESULT:      -6.9      3.835      7.985
REMARK  Name = 45361050
REMARK  8 active torsions:
REMARK  status: ('A' for Active; 'I' for Inactive)
REMARK    1  A    between atoms: N_3  and  C_16
REMARK    2  A    between atoms: N_4  and  C_18
REMARK    3  A    between atoms: N_6  and  C_24
REMARK    4  A    between atoms: N_8  and  C_29
REMARK    5  A    between atoms: C_13  and  C_17
REMARK    6  A    between atoms: C_16  and  C_19
REMARK    7  A    between atoms: C_17  and  C_20
REMARK    8  A    between atoms: C_20  and  C_21
REMARK                            x       y       z     vdW  Elec       q    Type
REMARK                         _______ _______ _______ _____ _____    ______ ____
ROOT
ATOM      1  O   UNL     1      -5.712  -9.805  15.384  0.00  0.00    -0.274 OA
ATOM      3  N   UNL     1      -6.160 -11.773  17.178  0.00  0.00    -0.283 NA
ATOM      4  N   UNL     1      -3.856 -13.130  14.679  0.00  0.00    -0.296 NA
ATOM      5  N   UNL     1      -3.496 -10.296  15.093  0.00  0.00    -0.312 N 
ATOM      9  C   UNL     1      -4.464 -13.074  16.027  0.00  0.00    +0.084 C 
ATOM     10  C   UNL     1      -4.791 -11.678  16.635  0.00  0.00    +0.161 C 
ATOM     11  C   UNL     1      -5.821 -13.795  16.130  0.00  0.00    +0.036 C 
ATOM     12  C   UNL     1      -6.448 -13.190  17.369  0.00  0.00    +0.087 C 
ATOM     13  C   UNL     1      -2.505 -12.509  14.587  0.00  0.00    +0.074 C 
ATOM     14  C   UNL     1      -4.743 -10.516  15.648  0.00  0.00    +0.232 C 
ATOM     15  C   UNL     1      -2.357 -11.163  15.322  0.00  0.00    +0.123 C 
ATOM     18  C   UNL     1      -3.817 -14.513  14.178  0.00  0.00    +0.105 C 
ATOM     35  H   UNL     1      -3.390  -9.523  14.446  0.00  0.00    +0.149 HD
ENDROOT
BRANCH   3  16
ATOM     16  C   UNL     1      -6.350 -11.005  18.401  0.00  0.00    +0.159 C 
BRANCH  16  19
ATOM      6  N   UNL     1      -8.654 -10.023  18.163  0.00  0.00    -0.330 N 
ATOM      7  N   UNL     1      -8.413 -11.608  19.702  0.00  0.00    -0.231 NA
ATOM     19  C   UNL     1      -7.804 -10.901  18.778  0.00  0.00    +0.125 A 
ATOM     22  C   UNL     1      -9.894 -10.174  18.729  0.00  0.00    +0.069 A 
ATOM     23  C   UNL     1      -9.718 -11.170  19.687  0.00  0.00    +0.089 A 
ATOM     24  C   UNL     1      -8.310  -9.099  17.105  0.00  0.00    +0.150 C 
ATOM     25  C   UNL     1     -11.116  -9.546  18.491  0.00  0.00    +0.028 A 
ATOM     26  C   UNL     1     -10.817 -11.574  20.464  0.00  0.00    +0.030 A 
ATOM     27  C   UNL     1     -12.199  -9.961  19.274  0.00  0.00    +0.002 A 
ATOM     28  C   UNL     1     -12.054 -10.956  20.244  0.00  0.00    +0.002 A 
ENDBRANCH  16  19
ENDBRANCH   3  16
BRANCH  13  17
ATOM     17  C   UNL     1      -2.117 -12.277  13.111  0.00  0.00    +0.029 C 
BRANCH  17  20
ATOM     20  C   UNL     1      -1.442 -10.931  12.909  0.00  0.00    +0.098 C 
BRANCH  20  21
ATOM      2  O   UNL     1      -1.326  -9.353  11.089  0.00  0.00    -0.275 OA
ATOM      8  N   UNL     1      -3.376 -10.378  11.603  0.00  0.00    -0.285 N 
ATOM     21  C   UNL     1      -2.018 -10.112  11.761  0.00  0.00    +0.217 C 
ATOM     36  H   UNL     1      -3.799 -11.049  12.241  0.00  0.00    +0.155 HD
BRANCH   8  29
ATOM     29  C   UNL     1      -4.260  -9.818  10.650  0.00  0.00    +0.033 A 
ATOM     30  C   UNL     1      -5.297  -8.985  11.067  0.00  0.00    +0.023 A 
ATOM     31  C   UNL     1      -4.093 -10.100   9.294  0.00  0.00    +0.023 A 
ATOM     32  C   UNL     1      -6.169  -8.433  10.128  0.00  0.00    +0.002 A 
ATOM     33  C   UNL     1      -4.964  -9.548   8.355  0.00  0.00    +0.002 A 
ATOM     34  C   UNL     1      -6.002  -8.715   8.772  0.00  0.00    +0.000 A 
ENDBRANCH   8  29
ENDBRANCH  20  21
ENDBRANCH  17  20
ENDBRANCH  13  17
TORSDOF 6
ENDMDL
