REMARK  Name = 28959937
REMARK  8 active torsions:
REMARK  status: ('A' for Active; 'I' for Inactive)
REMARK    1  A    between atoms: O_3  and  C_21
REMARK    2  A    between atoms: N_6  and  C_14
REMARK    3  A    between atoms: N_7  and  C_23
REMARK    4  A    between atoms: C_8  and  C_12
REMARK    5  A    between atoms: C_9  and  C_15
REMARK    6  A    between atoms: C_12  and  C_14
REMARK    7  A    between atoms: C_15  and  C_21
REMARK    8  A    between atoms: C_20  and  C_22
REMARK                            x       y       z     vdW  Elec       q    Type
REMARK                         _______ _______ _______ _____ _____    ______ ____
ROOT
ATOM      2  O   UNL     1      -4.104   2.307  -2.202  0.00  0.00    -0.270 OA
ATOM      5  N   UNL     1      -4.049   0.847  -0.374  0.00  0.00    -0.297 N 
ATOM      8  C   UNL     1      -2.876  -0.901   0.946  0.00  0.00    +0.011 C 
ATOM      9  C   UNL     1      -3.833  -1.953   0.329  0.00  0.00    +0.006 C 
ATOM     10  C   UNL     1      -3.555   0.481   0.961  0.00  0.00    +0.112 C 
ATOM     11  C   UNL     1      -4.359  -1.503  -1.044  0.00  0.00    +0.023 C 
ATOM     13  C   UNL     1      -4.979  -0.110  -0.969  0.00  0.00    +0.108 C 
ATOM     20  C   UNL     1      -3.697   1.999  -1.083  0.00  0.00    +0.247 C 
ENDROOT
BRANCH  20  22
ATOM     22  C   UNL     1      -2.761   2.937  -0.454  0.00  0.00    +0.037 A 
ATOM     24  C   UNL     1      -1.388   2.793  -0.654  0.00  0.00    +0.013 A 
ATOM     25  C   UNL     1      -3.244   3.974   0.344  0.00  0.00    +0.013 A 
ATOM     28  C   UNL     1      -0.498   3.686  -0.057  0.00  0.00    +0.001 A 
ATOM     29  C   UNL     1      -2.355   4.867   0.941  0.00  0.00    +0.001 A 
ATOM     33  C   UNL     1      -0.982   4.723   0.740  0.00  0.00    +0.000 A 
ENDBRANCH  20  22
BRANCH   8  12
ATOM     12  C   UNL     1      -1.512  -0.817   0.250  0.00  0.00    +0.020 C 
BRANCH  12  14
ATOM     14  C   UNL     1      -0.446  -0.297   1.204  0.00  0.00    +0.085 C 
BRANCH  14   6
ATOM      6  N   UNL     1       0.840  -0.209   0.513  0.00  0.00    -0.299 NA
ATOM      7  N   UNL     1       3.677  -0.407   0.249  0.00  0.00    -0.327 N 
ATOM     16  C   UNL     1       1.492  -1.523   0.470  0.00  0.00    +0.103 C 
ATOM     17  C   UNL     1       1.716   0.763   1.178  0.00  0.00    +0.103 C 
ATOM     18  C   UNL     1       2.814  -1.457  -0.300  0.00  0.00    +0.120 C 
ATOM     19  C   UNL     1       3.044   0.906   0.431  0.00  0.00    +0.120 C 
BRANCH   7  23
ATOM      1  F   UNL     1       9.121  -0.556  -0.703  0.00  0.00    -0.205 F 
ATOM     23  C   UNL     1       5.055  -0.445   0.008  0.00  0.00    +0.030 A 
ATOM     26  C   UNL     1       5.542  -1.015  -1.168  0.00  0.00    +0.026 A 
ATOM     27  C   UNL     1       5.941   0.089   0.944  0.00  0.00    +0.026 A 
ATOM     30  C   UNL     1       6.915  -1.053  -1.408  0.00  0.00    +0.040 A 
ATOM     31  C   UNL     1       7.315   0.051   0.704  0.00  0.00    +0.040 A 
ATOM     32  C   UNL     1       7.802  -0.520  -0.472  0.00  0.00    +0.124 A 
ENDBRANCH   7  23
ENDBRANCH  14   6
ENDBRANCH  12  14
ENDBRANCH   8  12
BRANCH   9  15
ATOM     15  C   UNL     1      -3.214  -3.348   0.238  0.00  0.00    +0.124 C 
BRANCH  15  21
ATOM      4  O   UNL     1      -5.478  -4.250   0.174  0.00  0.00    -0.251 OA
ATOM     21  C   UNL     1      -4.268  -4.419   0.168  0.00  0.00    +0.305 C 
BRANCH  21   3
ATOM      3  O   UNL     1      -3.676  -5.639   0.094  0.00  0.00    -0.481 OA
ATOM     34  H   UNL     1      -4.336  -6.363   0.046  0.00  0.00    +0.295 HD
ENDBRANCH  21   3
ENDBRANCH  15  21
ENDBRANCH   9  15
TORSDOF 8
