MODEL 1
REMARK VINA RESULT:      -7.1      0.000      0.000
REMARK  Name = 45784220
REMARK  4 active torsions:
REMARK  status: ('A' for Active; 'I' for Inactive)
REMARK    1  A    between atoms: N_2  and  C_10
REMARK    2  A    between atoms: C_5  and  C_9
REMARK    3  A    between atoms: C_10  and  C_12
REMARK    4  A    between atoms: C_17  and  C_21
REMARK                            x       y       z     vdW  Elec       q    Type
REMARK                         _______ _______ _______ _____ _____    ______ ____
ROOT
ATOM      2  N   UNL     1      12.124   4.230   1.692  0.00  0.00    -0.297 NA
ATOM      5  C   UNL     1      10.533   5.249   3.081  0.00  0.00    +0.070 C 
ATOM      6  C   UNL     1      11.469   6.321   2.498  0.00  0.00    +0.028 C 
ATOM      7  C   UNL     1      11.263   3.921   2.835  0.00  0.00    +0.096 C 
ATOM      8  C   UNL     1      12.679   5.551   1.984  0.00  0.00    +0.085 C 
ENDROOT
BRANCH   5   9
ATOM      3  N   UNL     1      10.294   4.451   5.449  0.00  0.00    -0.342 N 
ATOM      4  N   UNL     1       9.675   6.553   5.069  0.00  0.00    -0.232 NA
ATOM      9  C   UNL     1      10.156   5.454   4.530  0.00  0.00    +0.113 A 
ATOM     11  C   UNL     1       9.876   4.936   6.662  0.00  0.00    +0.066 A 
ATOM     13  C   UNL     1       9.495   6.248   6.399  0.00  0.00    +0.089 A 
ATOM     14  C   UNL     1       9.800   4.355   7.929  0.00  0.00    +0.031 A 
ATOM     15  C   UNL     1       9.007   7.043   7.449  0.00  0.00    +0.030 A 
ATOM     17  C   UNL     1       9.312   5.161   8.963  0.00  0.00    -0.048 A 
ATOM     18  C   UNL     1       8.922   6.481   8.730  0.00  0.00    +0.005 A 
ATOM     21  C   UNL     1       9.208   4.596  10.342  0.00  0.00    +0.044 C 
ATOM     22  H   UNL     1      10.643   3.519   5.270  0.00  0.00    +0.167 HD
ENDBRANCH   5   9
BRANCH   2  10
ATOM     10  C   UNL     1      13.159   3.226   1.490  0.00  0.00    +0.126 C 
BRANCH  10  12
ATOM      1  S   UNL     1      13.675   3.948  -1.146  0.00  0.00    -0.100 S 
ATOM     12  C   UNL     1      14.173   3.665   0.467  0.00  0.00    +0.004 A 
ATOM     16  C   UNL     1      15.522   3.887   0.637  0.00  0.00    +0.012 A 
ATOM     19  C   UNL     1      16.154   4.295  -0.573  0.00  0.00    +0.008 A 
ATOM     20  C   UNL     1      15.265   4.369  -1.622  0.00  0.00    +0.045 A 
ENDBRANCH  10  12
ENDBRANCH   2  10
TORSDOF 3
ENDMDL
MODEL 2
REMARK VINA RESULT:      -6.6     16.694     19.497
REMARK  Name = 45784220
REMARK  4 active torsions:
REMARK  status: ('A' for Active; 'I' for Inactive)
REMARK    1  A    between atoms: N_2  and  C_10
REMARK    2  A    between atoms: C_5  and  C_9
REMARK    3  A    between atoms: C_10  and  C_12
REMARK    4  A    between atoms: C_17  and  C_21
REMARK                            x       y       z     vdW  Elec       q    Type
REMARK                         _______ _______ _______ _____ _____    ______ ____
ROOT
ATOM      2  N   UNL     1      11.383   9.476  21.860  0.00  0.00    -0.297 NA
ATOM      5  C   UNL     1      12.888   8.658  20.257  0.00  0.00    +0.070 C 
ATOM      6  C   UNL     1      11.673   7.717  20.350  0.00  0.00    +0.028 C 
ATOM      7  C   UNL     1      12.807   9.522  21.523  0.00  0.00    +0.096 C 
ATOM      8  C   UNL     1      10.996   8.079  21.665  0.00  0.00    +0.085 C 
ENDROOT
BRANCH   5   9
ATOM      3  N   UNL     1      15.245   8.186  20.980  0.00  0.00    -0.342 N 
ATOM      4  N   UNL     1      14.554   7.103  19.165  0.00  0.00    -0.232 NA
ATOM      9  C   UNL     1      14.220   7.962  20.102  0.00  0.00    +0.113 A 
ATOM     11  C   UNL     1      16.310   7.419  20.582  0.00  0.00    +0.066 A 
ATOM     13  C   UNL     1      15.854   6.753  19.448  0.00  0.00    +0.089 A 
ATOM     14  C   UNL     1      17.595   7.257  21.101  0.00  0.00    +0.031 A 
ATOM     15  C   UNL     1      16.718   5.869  18.780  0.00  0.00    +0.030 A 
ATOM     17  C   UNL     1      18.441   6.373  20.424  0.00  0.00    -0.048 A 
ATOM     18  C   UNL     1      18.013   5.690  19.283  0.00  0.00    +0.005 A 
ATOM     21  C   UNL     1      19.829   6.156  20.932  0.00  0.00    +0.044 C 
ATOM     22  H   UNL     1      15.223   8.804  21.780  0.00  0.00    +0.167 HD
ENDBRANCH   5   9
BRANCH   2  10
ATOM     10  C   UNL     1      11.117   9.942  23.212  0.00  0.00    +0.126 C 
BRANCH  10  12
ATOM      1  S   UNL     1      10.936  12.218  24.801  0.00  0.00    -0.100 S 
ATOM     12  C   UNL     1      11.010  11.443  23.277  0.00  0.00    +0.004 A 
ATOM     16  C   UNL     1      10.958  12.344  22.235  0.00  0.00    +0.012 A 
ATOM     19  C   UNL     1      10.857  13.688  22.696  0.00  0.00    +0.008 A 
ATOM     20  C   UNL     1      10.835  13.764  24.071  0.00  0.00    +0.045 A 
ENDBRANCH  10  12
ENDBRANCH   2  10
TORSDOF 3
ENDMDL
MODEL 3
REMARK VINA RESULT:      -6.5     16.936     19.638
REMARK  Name = 45784220
REMARK  4 active torsions:
REMARK  status: ('A' for Active; 'I' for Inactive)
REMARK    1  A    between atoms: N_2  and  C_10
REMARK    2  A    between atoms: C_5  and  C_9
REMARK    3  A    between atoms: C_10  and  C_12
REMARK    4  A    between atoms: C_17  and  C_21
REMARK                            x       y       z     vdW  Elec       q    Type
REMARK                         _______ _______ _______ _____ _____    ______ ____
ROOT
ATOM      2  N   UNL     1      15.436   7.853  20.900  0.00  0.00    -0.297 NA
ATOM      5  C   UNL     1      17.603   7.204  20.282  0.00  0.00    +0.070 C 
ATOM      6  C   UNL     1      16.575   6.291  19.591  0.00  0.00    +0.028 C 
ATOM      7  C   UNL     1      16.812   7.905  21.396  0.00  0.00    +0.096 C 
ATOM      8  C   UNL     1      15.279   6.502  20.362  0.00  0.00    +0.085 C 
ENDROOT
BRANCH   5   9
ATOM      3  N   UNL     1      19.374   5.433  20.123  0.00  0.00    -0.342 N 
ATOM      4  N   UNL     1      19.521   6.793  21.876  0.00  0.00    -0.232 NA
ATOM      9  C   UNL     1      18.838   6.498  20.792  0.00  0.00    +0.113 A 
ATOM     11  C   UNL     1      20.477   5.012  20.822  0.00  0.00    +0.066 A 
ATOM     13  C   UNL     1      20.547   5.877  21.911  0.00  0.00    +0.089 A 
ATOM     14  C   UNL     1      21.391   3.981  20.602  0.00  0.00    +0.031 A 
ATOM     15  C   UNL     1      21.584   5.718  22.846  0.00  0.00    +0.030 A 
ATOM     17  C   UNL     1      22.416   3.837  21.542  0.00  0.00    -0.048 A 
ATOM     18  C   UNL     1      22.513   4.688  22.645  0.00  0.00    +0.005 A 
ATOM     21  C   UNL     1      23.426   2.752  21.361  0.00  0.00    +0.044 C 
ATOM     22  H   UNL     1      19.024   5.025  19.267  0.00  0.00    +0.167 HD
ENDBRANCH   5   9
BRANCH   2  10
ATOM     10  C   UNL     1      14.460   8.153  21.938  0.00  0.00    +0.126 C 
BRANCH  10  12
ATOM      1  S   UNL     1      12.678   9.229  20.094  0.00  0.00    -0.100 S 
ATOM     12  C   UNL     1      13.056   8.184  21.395  0.00  0.00    +0.004 A 
ATOM     16  C   UNL     1      11.961   7.458  21.810  0.00  0.00    +0.012 A 
ATOM     19  C   UNL     1      10.796   7.764  21.048  0.00  0.00    +0.008 A 
ATOM     20  C   UNL     1      11.046   8.712  20.081  0.00  0.00    +0.045 A 
ENDBRANCH  10  12
ENDBRANCH   2  10
TORSDOF 3
ENDMDL
MODEL 4
REMARK VINA RESULT:      -6.4     16.657     19.196
REMARK  Name = 45784220
REMARK  4 active torsions:
REMARK  status: ('A' for Active; 'I' for Inactive)
REMARK    1  A    between atoms: N_2  and  C_10
REMARK    2  A    between atoms: C_5  and  C_9
REMARK    3  A    between atoms: C_10  and  C_12
REMARK    4  A    between atoms: C_17  and  C_21
REMARK                            x       y       z     vdW  Elec       q    Type
REMARK                         _______ _______ _______ _____ _____    ______ ____
ROOT
ATOM      2  N   UNL     1      21.535   4.596  21.222  0.00  0.00    -0.297 NA
ATOM      5  C   UNL     1      19.955   6.204  20.577  0.00  0.00    +0.070 C 
ATOM      6  C   UNL     1      20.596   6.619  21.913  0.00  0.00    +0.028 C 
ATOM      7  C   UNL     1      20.321   4.722  20.415  0.00  0.00    +0.096 C 
ATOM      8  C   UNL     1      21.258   5.354  22.442  0.00  0.00    +0.085 C 
ENDROOT
BRANCH   5   9
ATOM      3  N   UNL     1      17.745   6.866  21.565  0.00  0.00    -0.342 N 
ATOM      4  N   UNL     1      17.718   6.330  19.408  0.00  0.00    -0.232 NA
ATOM      9  C   UNL     1      18.469   6.458  20.480  0.00  0.00    +0.113 A 
ATOM     11  C   UNL     1      16.440   7.012  21.167  0.00  0.00    +0.066 A 
ATOM     13  C   UNL     1      16.450   6.671  19.817  0.00  0.00    +0.089 A 
ATOM     14  C   UNL     1      15.288   7.399  21.852  0.00  0.00    +0.031 A 
ATOM     15  C   UNL     1      15.247   6.715  19.092  0.00  0.00    +0.030 A 
ATOM     17  C   UNL     1      14.100   7.437  21.114  0.00  0.00    -0.048 A 
ATOM     18  C   UNL     1      14.077   7.101  19.759  0.00  0.00    +0.005 A 
ATOM     21  C   UNL     1      12.832   7.845  21.791  0.00  0.00    +0.044 C 
ATOM     22  H   UNL     1      18.104   7.032  22.496  0.00  0.00    +0.167 HD
ENDBRANCH   5   9
BRANCH   2  10
ATOM     10  C   UNL     1      21.878   3.208  21.497  0.00  0.00    +0.126 C 
BRANCH  10  12
ATOM      1  S   UNL     1      24.259   4.066  20.345  0.00  0.00    -0.100 S 
ATOM     12  C   UNL     1      23.329   2.923  21.214  0.00  0.00    +0.004 A 
ATOM     16  C   UNL     1      24.069   1.815  21.568  0.00  0.00    +0.012 A 
ATOM     19  C   UNL     1      25.418   1.908  21.118  0.00  0.00    +0.008 A 
ATOM     20  C   UNL     1      25.657   3.082  20.439  0.00  0.00    +0.045 A 
ENDBRANCH  10  12
ENDBRANCH   2  10
TORSDOF 3
ENDMDL
MODEL 5
REMARK VINA RESULT:      -6.4     22.210     25.292
REMARK  Name = 45784220
REMARK  4 active torsions:
REMARK  status: ('A' for Active; 'I' for Inactive)
REMARK    1  A    between atoms: N_2  and  C_10
REMARK    2  A    between atoms: C_5  and  C_9
REMARK    3  A    between atoms: C_10  and  C_12
REMARK    4  A    between atoms: C_17  and  C_21
REMARK                            x       y       z     vdW  Elec       q    Type
REMARK                         _______ _______ _______ _____ _____    ______ ____
ROOT
ATOM      2  N   UNL     1      -2.167 -11.019  13.522  0.00  0.00    -0.297 NA
ATOM      5  C   UNL     1      -3.097 -10.288  15.547  0.00  0.00    +0.070 C 
ATOM      6  C   UNL     1      -1.732 -10.946  15.815  0.00  0.00    +0.028 C 
ATOM      7  C   UNL     1      -3.469 -10.733  14.126  0.00  0.00    +0.096 C 
ATOM      8  C   UNL     1      -1.424 -11.742  14.554  0.00  0.00    +0.085 C 
ENDROOT
BRANCH   5   9
ATOM      3  N   UNL     1      -5.433 -10.106  16.447  0.00  0.00    -0.342 N 
ATOM      4  N   UNL     1      -4.037 -11.367  17.631  0.00  0.00    -0.232 NA
ATOM      9  C   UNL     1      -4.168 -10.610  16.564  0.00  0.00    +0.113 A 
ATOM     11  C   UNL     1      -6.168 -10.570  17.508  0.00  0.00    +0.066 A 
ATOM     13  C   UNL     1      -5.275 -11.355  18.231  0.00  0.00    +0.089 A 
ATOM     14  C   UNL     1      -7.497 -10.376  17.885  0.00  0.00    +0.031 A 
ATOM     15  C   UNL     1      -5.716 -11.991  19.404  0.00  0.00    +0.030 A 
ATOM     17  C   UNL     1      -7.920 -11.017  19.054  0.00  0.00    -0.048 A 
ATOM     18  C   UNL     1      -7.047 -11.810  19.802  0.00  0.00    +0.005 A 
ATOM     21  C   UNL     1      -9.332 -10.849  19.510  0.00  0.00    +0.044 C 
ATOM     22  H   UNL     1      -5.770  -9.500  15.711  0.00  0.00    +0.167 HD
ENDBRANCH   5   9
BRANCH   2  10
ATOM     10  C   UNL     1      -2.282 -11.779  12.286  0.00  0.00    +0.126 C 
BRANCH  10  12
ATOM      1  S   UNL     1      -4.076 -11.687  10.163  0.00  0.00    -0.100 S 
ATOM     12  C   UNL     1      -2.907 -10.966  11.184  0.00  0.00    +0.004 A 
ATOM     16  C   UNL     1      -2.668  -9.651  10.848  0.00  0.00    +0.012 A 
ATOM     19  C   UNL     1      -3.456  -9.231   9.738  0.00  0.00    +0.008 A 
ATOM     20  C   UNL     1      -4.267 -10.240   9.268  0.00  0.00    +0.045 A 
ENDBRANCH  10  12
ENDBRANCH   2  10
TORSDOF 3
ENDMDL
MODEL 6
REMARK VINA RESULT:      -6.2     29.258     33.549
REMARK  Name = 45784220
REMARK  4 active torsions:
REMARK  status: ('A' for Active; 'I' for Inactive)
REMARK    1  A    between atoms: N_2  and  C_10
REMARK    2  A    between atoms: C_5  and  C_9
REMARK    3  A    between atoms: C_10  and  C_12
REMARK    4  A    between atoms: C_17  and  C_21
REMARK                            x       y       z     vdW  Elec       q    Type
REMARK                         _______ _______ _______ _____ _____    ______ ____
ROOT
ATOM      2  N   UNL     1     -14.976   5.899  22.010  0.00  0.00    -0.297 NA
ATOM      5  C   UNL     1     -15.728   3.957  23.088  0.00  0.00    +0.070 C 
ATOM      6  C   UNL     1     -16.929   4.716  22.496  0.00  0.00    +0.028 C 
ATOM      7  C   UNL     1     -14.581   4.977  23.076  0.00  0.00    +0.096 C 
ATOM      8  C   UNL     1     -16.408   6.118  22.212  0.00  0.00    +0.085 C 
ENDROOT
BRANCH   5   9
ATOM      3  N   UNL     1     -15.743   4.072  25.595  0.00  0.00    -0.342 N 
ATOM      4  N   UNL     1     -16.394   2.139  24.712  0.00  0.00    -0.232 NA
ATOM      9  C   UNL     1     -15.967   3.355  24.453  0.00  0.00    +0.113 A 
ATOM     11  C   UNL     1     -16.047   3.265  26.662  0.00  0.00    +0.066 A 
ATOM     13  C   UNL     1     -16.451   2.065  26.085  0.00  0.00    +0.089 A 
ATOM     14  C   UNL     1     -16.004   3.476  28.040  0.00  0.00    +0.031 A 
ATOM     15  C   UNL     1     -16.838   1.001  26.917  0.00  0.00    +0.030 A 
ATOM     17  C   UNL     1     -16.393   2.407  28.854  0.00  0.00    -0.048 A 
ATOM     18  C   UNL     1     -16.803   1.190  28.304  0.00  0.00    +0.005 A 
ATOM     21  C   UNL     1     -16.369   2.572  30.338  0.00  0.00    +0.044 C 
ATOM     22  H   UNL     1     -15.413   5.027  25.648  0.00  0.00    +0.167 HD
ENDBRANCH   5   9
BRANCH   2  10
ATOM     10  C   UNL     1     -14.215   7.140  22.039  0.00  0.00    +0.126 C 
BRANCH  10  12
ATOM      1  S   UNL     1     -13.910   7.931  19.391  0.00  0.00    -0.100 S 
ATOM     12  C   UNL     1     -13.304   7.268  20.848  0.00  0.00    +0.004 A 
ATOM     16  C   UNL     1     -11.977   6.910  20.741  0.00  0.00    +0.012 A 
ATOM     19  C   UNL     1     -11.452   7.185  19.445  0.00  0.00    +0.008 A 
ATOM     20  C   UNL     1     -12.397   7.741  18.612  0.00  0.00    +0.045 A 
ENDBRANCH  10  12
ENDBRANCH   2  10
TORSDOF 3
ENDMDL
MODEL 7
REMARK VINA RESULT:      -6.2     23.694     27.197
REMARK  Name = 45784220
REMARK  4 active torsions:
REMARK  status: ('A' for Active; 'I' for Inactive)
REMARK    1  A    between atoms: N_2  and  C_10
REMARK    2  A    between atoms: C_5  and  C_9
REMARK    3  A    between atoms: C_10  and  C_12
REMARK    4  A    between atoms: C_17  and  C_21
REMARK                            x       y       z     vdW  Elec       q    Type
REMARK                         _______ _______ _______ _____ _____    ______ ____
ROOT
ATOM      2  N   UNL     1      -4.711 -11.594  17.284  0.00  0.00    -0.297 NA
ATOM      5  C   UNL     1      -6.440 -10.272  18.156  0.00  0.00    +0.070 C 
ATOM      6  C   UNL     1      -6.393 -11.617  18.903  0.00  0.00    +0.028 C 
ATOM      7  C   UNL     1      -5.602 -10.502  16.891  0.00  0.00    +0.096 C 
ATOM      8  C   UNL     1      -5.563 -12.533  18.013  0.00  0.00    +0.085 C 
ENDROOT
BRANCH   5   9
ATOM      3  N   UNL     1      -8.026  -8.630  17.112  0.00  0.00    -0.342 N 
ATOM      4  N   UNL     1      -8.966 -10.294  18.248  0.00  0.00    -0.232 NA
ATOM      9  C   UNL     1      -7.830  -9.759  17.857  0.00  0.00    +0.113 A 
ATOM     11  C   UNL     1      -9.378  -8.423  17.015  0.00  0.00    +0.066 A 
ATOM     13  C   UNL     1      -9.943  -9.474  17.731  0.00  0.00    +0.089 A 
ATOM     14  C   UNL     1     -10.133  -7.435  16.381  0.00  0.00    +0.031 A 
ATOM     15  C   UNL     1     -11.341  -9.562  17.832  0.00  0.00    +0.030 A 
ATOM     17  C   UNL     1     -11.524  -7.537  16.491  0.00  0.00    -0.048 A 
ATOM     18  C   UNL     1     -12.119  -8.581  17.203  0.00  0.00    +0.005 A 
ATOM     21  C   UNL     1     -12.386  -6.511  15.833  0.00  0.00    +0.044 C 
ATOM     22  H   UNL     1      -7.305  -8.049  16.704  0.00  0.00    +0.167 HD
ENDBRANCH   5   9
BRANCH   2  10
ATOM     10  C   UNL     1      -4.054 -12.214  16.142  0.00  0.00    +0.126 C 
BRANCH  10  12
ATOM      1  S   UNL     1      -2.976 -10.957  13.909  0.00  0.00    -0.100 S 
ATOM     12  C   UNL     1      -2.968 -11.338  15.577  0.00  0.00    +0.004 A 
ATOM     16  C   UNL     1      -1.903 -10.761  16.235  0.00  0.00    +0.012 A 
ATOM     19  C   UNL     1      -1.083  -9.996  15.356  0.00  0.00    +0.008 A 
ATOM     20  C   UNL     1      -1.552 -10.017  14.061  0.00  0.00    +0.045 A 
ENDBRANCH  10  12
ENDBRANCH   2  10
TORSDOF 3
ENDMDL
MODEL 8
REMARK VINA RESULT:      -6.2     24.544     28.009
REMARK  Name = 45784220
REMARK  4 active torsions:
REMARK  status: ('A' for Active; 'I' for Inactive)
REMARK    1  A    between atoms: N_2  and  C_10
REMARK    2  A    between atoms: C_5  and  C_9
REMARK    3  A    between atoms: C_10  and  C_12
REMARK    4  A    between atoms: C_17  and  C_21
REMARK                            x       y       z     vdW  Elec       q    Type
REMARK                         _______ _______ _______ _____ _____    ______ ____
ROOT
ATOM      2  N   UNL     1      -4.794 -11.494  17.314  0.00  0.00    -0.297 NA
ATOM      5  C   UNL     1      -6.522 -10.459  18.515  0.00  0.00    +0.070 C 
ATOM      6  C   UNL     1      -6.063 -11.726  19.259  0.00  0.00    +0.028 C 
ATOM      7  C   UNL     1      -5.939 -10.607  17.103  0.00  0.00    +0.096 C 
ATOM      8  C   UNL     1      -5.279 -12.527  18.228  0.00  0.00    +0.085 C 
ENDROOT
BRANCH   5   9
ATOM      3  N   UNL     1      -8.784 -10.550  19.600  0.00  0.00    -0.342 N 
ATOM      4  N   UNL     1      -8.732  -9.719  17.538  0.00  0.00    -0.232 NA
ATOM      9  C   UNL     1      -8.015 -10.228  18.516  0.00  0.00    +0.113 A 
ATOM     11  C   UNL     1     -10.083 -10.226  19.302  0.00  0.00    +0.066 A 
ATOM     13  C   UNL     1     -10.024  -9.710  18.010  0.00  0.00    +0.089 A 
ATOM     14  C   UNL     1     -11.268 -10.338  20.029  0.00  0.00    +0.031 A 
ATOM     15  C   UNL     1     -11.209  -9.275  17.392  0.00  0.00    +0.030 A 
ATOM     17  C   UNL     1     -12.438  -9.900  19.399  0.00  0.00    -0.048 A 
ATOM     18  C   UNL     1     -12.411  -9.378  18.104  0.00  0.00    +0.005 A 
ATOM     21  C   UNL     1     -13.739  -9.993  20.127  0.00  0.00    +0.044 C 
ATOM     22  H   UNL     1      -8.456 -10.953  20.467  0.00  0.00    +0.167 HD
ENDBRANCH   5   9
BRANCH   2  10
ATOM     10  C   UNL     1      -4.285 -12.050  16.068  0.00  0.00    +0.126 C 
BRANCH  10  12
ATOM      1  S   UNL     1      -3.011 -10.935  13.862  0.00  0.00    -0.100 S 
ATOM     12  C   UNL     1      -3.116 -11.262  15.539  0.00  0.00    +0.004 A 
ATOM     16  C   UNL     1      -2.053 -10.732  16.237  0.00  0.00    +0.012 A 
ATOM     19  C   UNL     1      -1.140 -10.049  15.383  0.00  0.00    +0.008 A 
ATOM     20  C   UNL     1      -1.540 -10.082  14.066  0.00  0.00    +0.045 A 
ENDBRANCH  10  12
ENDBRANCH   2  10
TORSDOF 3
ENDMDL
MODEL 9
REMARK VINA RESULT:      -6.1     23.318     26.476
REMARK  Name = 45784220
REMARK  4 active torsions:
REMARK  status: ('A' for Active; 'I' for Inactive)
REMARK    1  A    between atoms: N_2  and  C_10
REMARK    2  A    between atoms: C_5  and  C_9
REMARK    3  A    between atoms: C_10  and  C_12
REMARK    4  A    between atoms: C_17  and  C_21
REMARK                            x       y       z     vdW  Elec       q    Type
REMARK                         _______ _______ _______ _____ _____    ______ ____
ROOT
ATOM      2  N   UNL     1      -4.311 -10.483  14.603  0.00  0.00    -0.297 NA
ATOM      5  C   UNL     1      -5.591  -9.647  16.382  0.00  0.00    +0.070 C 
ATOM      6  C   UNL     1      -4.322 -10.320  16.933  0.00  0.00    +0.028 C 
ATOM      7  C   UNL     1      -5.697 -10.145  14.934  0.00  0.00    +0.096 C 
ATOM      8  C   UNL     1      -3.800 -11.175  15.786  0.00  0.00    +0.085 C 
ENDROOT
BRANCH   5   9
ATOM      3  N   UNL     1      -8.007  -9.231  16.924  0.00  0.00    -0.342 N 
ATOM      4  N   UNL     1      -6.982 -10.751  18.181  0.00  0.00    -0.232 NA
ATOM      9  C   UNL     1      -6.845  -9.903  17.185  0.00  0.00    +0.113 A 
ATOM     11  C   UNL     1      -8.956  -9.675  17.808  0.00  0.00    +0.066 A 
ATOM     13  C   UNL     1      -8.292 -10.623  18.582  0.00  0.00    +0.089 A 
ATOM     14  C   UNL     1     -10.297  -9.339  17.993  0.00  0.00    +0.031 A 
ATOM     15  C   UNL     1      -8.992 -11.285  19.605  0.00  0.00    +0.030 A 
ATOM     17  C   UNL     1     -10.979 -10.007  19.015  0.00  0.00    -0.048 A 
ATOM     18  C   UNL     1     -10.340 -10.963  19.808  0.00  0.00    +0.005 A 
ATOM     21  C   UNL     1     -12.418  -9.691  19.262  0.00  0.00    +0.044 C 
ATOM     22  H   UNL     1      -8.145  -8.531  16.206  0.00  0.00    +0.167 HD
ENDBRANCH   5   9
BRANCH   2  10
ATOM     10  C   UNL     1      -4.209 -11.293  13.398  0.00  0.00    +0.126 C 
BRANCH  10  12
ATOM      1  S   UNL     1      -4.857  -9.761  11.170  0.00  0.00    -0.100 S 
ATOM     12  C   UNL     1      -3.721 -10.490  12.223  0.00  0.00    +0.004 A 
ATOM     16  C   UNL     1      -2.422 -10.236  11.838  0.00  0.00    +0.012 A 
ATOM     19  C   UNL     1      -2.360  -9.432  10.663  0.00  0.00    +0.008 A 
ATOM     20  C   UNL     1      -3.613  -9.103  10.195  0.00  0.00    +0.045 A 
ENDBRANCH  10  12
ENDBRANCH   2  10
TORSDOF 3
ENDMDL
MODEL 10
REMARK VINA RESULT:      -5.9     27.267     28.602
REMARK  Name = 45784220
REMARK  4 active torsions:
REMARK  status: ('A' for Active; 'I' for Inactive)
REMARK    1  A    between atoms: N_2  and  C_10
REMARK    2  A    between atoms: C_5  and  C_9
REMARK    3  A    between atoms: C_10  and  C_12
REMARK    4  A    between atoms: C_17  and  C_21
REMARK                            x       y       z     vdW  Elec       q    Type
REMARK                         _______ _______ _______ _____ _____    ______ ____
ROOT
ATOM      2  N   UNL     1      -9.196  -8.881  16.926  0.00  0.00    -0.297 NA
ATOM      5  C   UNL     1     -10.920  -7.298  16.774  0.00  0.00    +0.070 C 
ATOM      6  C   UNL     1     -11.467  -8.597  17.390  0.00  0.00    +0.028 C 
ATOM      7  C   UNL     1      -9.577  -7.700  16.149  0.00  0.00    +0.096 C 
ATOM      8  C   UNL     1     -10.427  -9.659  17.057  0.00  0.00    +0.085 C 
ENDROOT
BRANCH   5   9
ATOM      3  N   UNL     1     -11.385  -5.688  14.905  0.00  0.00    -0.342 N 
ATOM      4  N   UNL     1     -13.141  -6.820  15.667  0.00  0.00    -0.232 NA
ATOM      9  C   UNL     1     -11.847  -6.620  15.793  0.00  0.00    +0.113 A 
ATOM     11  C   UNL     1     -12.452  -5.260  14.156  0.00  0.00    +0.066 A 
ATOM     13  C   UNL     1     -13.535  -5.981  14.650  0.00  0.00    +0.089 A 
ATOM     14  C   UNL     1     -12.558  -4.331  13.120  0.00  0.00    +0.031 A 
ATOM     15  C   UNL     1     -14.807  -5.776  14.090  0.00  0.00    +0.030 A 
ATOM     17  C   UNL     1     -13.831  -4.140  12.574  0.00  0.00    -0.048 A 
ATOM     18  C   UNL     1     -14.937  -4.848  13.049  0.00  0.00    +0.005 A 
ATOM     21  C   UNL     1     -14.009  -3.159  11.461  0.00  0.00    +0.044 C 
ATOM     22  H   UNL     1     -10.430  -5.371  14.814  0.00  0.00    +0.167 HD
ENDBRANCH   5   9
BRANCH   2  10
ATOM     10  C   UNL     1      -8.125  -9.639  16.296  0.00  0.00    +0.126 C 
BRANCH  10  12
ATOM      1  S   UNL     1      -5.474 -10.335  16.764  0.00  0.00    -0.100 S 
ATOM     12  C   UNL     1      -7.079 -10.065  17.291  0.00  0.00    +0.004 A 
ATOM     16  C   UNL     1      -7.223 -10.285  18.644  0.00  0.00    +0.012 A 
ATOM     19  C   UNL     1      -5.998 -10.682  19.254  0.00  0.00    +0.008 A 
ATOM     20  C   UNL     1      -4.965 -10.749  18.345  0.00  0.00    +0.045 A 
ENDBRANCH  10  12
ENDBRANCH   2  10
TORSDOF 3
ENDMDL
