MODEL 1
REMARK VINA RESULT:      -7.1      0.000      0.000
REMARK  Name = 56774925
REMARK  10 active torsions:
REMARK  status: ('A' for Active; 'I' for Inactive)
REMARK    1  A    between atoms: O_3  and  C_10
REMARK    2  A    between atoms: O_4  and  C_16
REMARK    3  A    between atoms: O_4  and  C_22
REMARK    4  A    between atoms: N_7  and  C_12
REMARK    5  A    between atoms: N_8  and  C_21
REMARK    6  A    between atoms: C_9  and  C_10
REMARK    7  A    between atoms: C_10  and  C_14
REMARK    8  A    between atoms: C_12  and  C_16
REMARK    9  A    between atoms: C_22  and  C_23
REMARK   10  A    between atoms: C_24  and  C_25
REMARK                            x       y       z     vdW  Elec       q    Type
REMARK                         _______ _______ _______ _____ _____    ______ ____
ROOT
ATOM     10  C   UNL     1      14.545   6.770  19.672  0.00  0.00    +0.167 C 
ENDROOT
BRANCH  10   9
ATOM      2  O   UNL     1      13.215   7.881  17.305  0.00  0.00    -0.369 OA
ATOM      5  O   UNL     1      10.512   8.382  19.646  0.00  0.00    -0.273 OA
ATOM      7  N   UNL     1      12.808   8.489  20.011  0.00  0.00    -0.289 N 
ATOM      9  C   UNL     1      14.151   8.237  19.475  0.00  0.00    +0.135 C 
ATOM     11  C   UNL     1      14.206   8.627  18.002  0.00  0.00    +0.185 C 
ATOM     13  C   UNL     1      11.668   8.354  19.221  0.00  0.00    +0.242 C 
ATOM     15  C   UNL     1      11.920   8.251  17.721  0.00  0.00    +0.255 C 
BRANCH   7  12
ATOM     12  C   UNL     1      12.686   8.706  21.447  0.00  0.00    +0.136 C 
BRANCH  12  16
ATOM     16  C   UNL     1      12.978  10.148  21.819  0.00  0.00    +0.178 C 
BRANCH  16   4
ATOM      4  O   UNL     1      11.756  10.866  21.925  0.00  0.00    -0.378 OA
BRANCH   4  22
ATOM     22  C   UNL     1      10.928  10.335  22.951  0.00  0.00    +0.156 C 
ATOM     23  C   UNL     1      10.873  11.321  24.099  0.00  0.00    +0.034 C 
ENDBRANCH   4  22
ENDBRANCH  16   4
ENDBRANCH  12  16
ENDBRANCH   7  12
ENDBRANCH  10   9
BRANCH  10  14
ATOM     14  C   UNL     1      16.031   6.611  19.870  0.00  0.00    -0.017 A 
ATOM     17  C   UNL     1      16.658   7.215  20.961  0.00  0.00    +0.008 A 
ATOM     18  C   UNL     1      16.779   5.859  18.964  0.00  0.00    +0.008 A 
ATOM     19  C   UNL     1      18.033   7.067  21.145  0.00  0.00    +0.023 A 
ATOM     20  C   UNL     1      18.154   5.711  19.149  0.00  0.00    +0.023 A 
ATOM     21  C   UNL     1      18.781   6.315  20.239  0.00  0.00    +0.034 A 
BRANCH  21   8
ATOM      6  O   UNL     1      20.438   3.837  20.553  0.00  0.00    -0.269 OA
ATOM      8  N   UNL     1      20.156   6.167  20.422  0.00  0.00    -0.281 N 
ATOM     24  C   UNL     1      20.885   4.979  20.565  0.00  0.00    +0.255 C 
ATOM     30  H   UNL     1      20.686   7.035  20.452  0.00  0.00    +0.155 HD
BRANCH  24  25
ATOM      1  S   UNL     1      23.305   3.791  21.153  0.00  0.00    -0.092 S 
ATOM     25  C   UNL     1      22.354   5.146  20.718  0.00  0.00    +0.074 A 
ATOM     26  C   UNL     1      23.115   6.282  20.557  0.00  0.00    +0.021 A 
ATOM     27  C   UNL     1      24.498   6.037  20.794  0.00  0.00    +0.008 A 
ATOM     28  C   UNL     1      24.741   4.722  21.128  0.00  0.00    +0.046 A 
ENDBRANCH  24  25
ENDBRANCH  21   8
ENDBRANCH  10  14
BRANCH  10   3
ATOM      3  O   UNL     1      13.856   6.246  20.802  0.00  0.00    -0.385 OA
ATOM     29  H   UNL     1      14.016   5.289  20.860  0.00  0.00    +0.210 HD
ENDBRANCH  10   3
TORSDOF 9
ENDMDL
MODEL 2
REMARK VINA RESULT:      -6.1      1.849      3.623
REMARK  Name = 56774925
REMARK  10 active torsions:
REMARK  status: ('A' for Active; 'I' for Inactive)
REMARK    1  A    between atoms: O_3  and  C_10
REMARK    2  A    between atoms: O_4  and  C_16
REMARK    3  A    between atoms: O_4  and  C_22
REMARK    4  A    between atoms: N_7  and  C_12
REMARK    5  A    between atoms: N_8  and  C_21
REMARK    6  A    between atoms: C_9  and  C_10
REMARK    7  A    between atoms: C_10  and  C_14
REMARK    8  A    between atoms: C_12  and  C_16
REMARK    9  A    between atoms: C_22  and  C_23
REMARK   10  A    between atoms: C_24  and  C_25
REMARK                            x       y       z     vdW  Elec       q    Type
REMARK                         _______ _______ _______ _____ _____    ______ ____
ROOT
ATOM     10  C   UNL     1      14.516   8.064  20.094  0.00  0.00    +0.167 C 
ENDROOT
BRANCH  10   9
ATOM      2  O   UNL     1      12.127   7.767  21.772  0.00  0.00    -0.369 OA
ATOM      5  O   UNL     1      10.452   8.783  18.739  0.00  0.00    -0.273 OA
ATOM      7  N   UNL     1      12.380   7.505  18.993  0.00  0.00    -0.289 N 
ATOM      9  C   UNL     1      13.418   7.012  19.907  0.00  0.00    +0.135 C 
ATOM     11  C   UNL     1      12.794   6.626  21.243  0.00  0.00    +0.185 C 
ATOM     13  C   UNL     1      11.265   8.198  19.457  0.00  0.00    +0.242 C 
ATOM     15  C   UNL     1      11.032   8.131  20.963  0.00  0.00    +0.255 C 
BRANCH   7  12
ATOM     12  C   UNL     1      12.642   7.407  17.563  0.00  0.00    +0.136 C 
BRANCH  12  16
ATOM     16  C   UNL     1      12.420   8.735  16.863  0.00  0.00    +0.178 C 
BRANCH  16   4
ATOM      4  O   UNL     1      13.028   8.701  15.579  0.00  0.00    -0.378 OA
BRANCH   4  22
ATOM     22  C   UNL     1      14.263   9.404  15.569  0.00  0.00    +0.156 C 
ATOM     23  C   UNL     1      13.984  10.888  15.450  0.00  0.00    +0.034 C 
ENDBRANCH   4  22
ENDBRANCH  16   4
ENDBRANCH  12  16
ENDBRANCH   7  12
ENDBRANCH  10   9
BRANCH  10  14
ATOM     14  C   UNL     1      15.886   7.439  20.155  0.00  0.00    -0.017 A 
ATOM     17  C   UNL     1      16.243   6.451  19.238  0.00  0.00    +0.008 A 
ATOM     18  C   UNL     1      16.797   7.850  21.129  0.00  0.00    +0.008 A 
ATOM     19  C   UNL     1      17.512   5.873  19.293  0.00  0.00    +0.023 A 
ATOM     20  C   UNL     1      18.066   7.271  21.185  0.00  0.00    +0.023 A 
ATOM     21  C   UNL     1      18.423   6.283  20.267  0.00  0.00    +0.034 A 
BRANCH  21   8
ATOM      6  O   UNL     1      20.269   5.882  22.595  0.00  0.00    -0.269 OA
ATOM      8  N   UNL     1      19.692   5.706  20.323  0.00  0.00    -0.281 N 
ATOM     24  C   UNL     1      20.517   5.542  21.443  0.00  0.00    +0.255 C 
ATOM     30  H   UNL     1      20.051   5.361  19.435  0.00  0.00    +0.155 HD
BRANCH  24  25
ATOM      1  S   UNL     1      23.179   5.797  20.762  0.00  0.00    -0.092 S 
ATOM     25  C   UNL     1      21.812   4.858  21.187  0.00  0.00    +0.074 A 
ATOM     26  C   UNL     1      22.104   3.514  21.240  0.00  0.00    +0.021 A 
ATOM     27  C   UNL     1      23.469   3.251  20.928  0.00  0.00    +0.008 A 
ATOM     28  C   UNL     1      24.168   4.404  20.647  0.00  0.00    +0.046 A 
ENDBRANCH  24  25
ENDBRANCH  21   8
ENDBRANCH  10  14
BRANCH  10   3
ATOM      3  O   UNL     1      14.465   8.994  19.018  0.00  0.00    -0.385 OA
ATOM     29  H   UNL     1      13.745   8.748  18.414  0.00  0.00    +0.210 HD
ENDBRANCH  10   3
TORSDOF 9
ENDMDL
MODEL 3
REMARK VINA RESULT:      -6.1      1.772      3.522
REMARK  Name = 56774925
REMARK  10 active torsions:
REMARK  status: ('A' for Active; 'I' for Inactive)
REMARK    1  A    between atoms: O_3  and  C_10
REMARK    2  A    between atoms: O_4  and  C_16
REMARK    3  A    between atoms: O_4  and  C_22
REMARK    4  A    between atoms: N_7  and  C_12
REMARK    5  A    between atoms: N_8  and  C_21
REMARK    6  A    between atoms: C_9  and  C_10
REMARK    7  A    between atoms: C_10  and  C_14
REMARK    8  A    between atoms: C_12  and  C_16
REMARK    9  A    between atoms: C_22  and  C_23
REMARK   10  A    between atoms: C_24  and  C_25
REMARK                            x       y       z     vdW  Elec       q    Type
REMARK                         _______ _______ _______ _____ _____    ______ ____
ROOT
ATOM     10  C   UNL     1      15.266   9.127  19.981  0.00  0.00    +0.167 C 
ENDROOT
BRANCH  10   9
ATOM      2  O   UNL     1      14.377   9.567  22.742  0.00  0.00    -0.369 OA
ATOM      5  O   UNL     1      11.712  11.363  21.095  0.00  0.00    -0.273 OA
ATOM      7  N   UNL     1      12.856   9.463  20.390  0.00  0.00    -0.289 N 
ATOM      9  C   UNL     1      13.991   8.558  20.610  0.00  0.00    +0.135 C 
ATOM     11  C   UNL     1      14.178   8.312  22.102  0.00  0.00    +0.185 C 
ATOM     13  C   UNL     1      12.535  10.469  21.298  0.00  0.00    +0.242 C 
ATOM     15  C   UNL     1      13.218  10.365  22.658  0.00  0.00    +0.255 C 
BRANCH   7  12
ATOM     12  C   UNL     1      12.183   9.397  19.099  0.00  0.00    +0.136 C 
BRANCH  12  16
ATOM     16  C   UNL     1      11.670   7.999  18.809  0.00  0.00    +0.178 C 
BRANCH  16   4
ATOM      4  O   UNL     1      11.659   7.780  17.404  0.00  0.00    -0.378 OA
BRANCH   4  22
ATOM     22  C   UNL     1      10.604   8.494  16.775  0.00  0.00    +0.156 C 
ATOM     23  C   UNL     1      11.161   9.248  15.585  0.00  0.00    +0.034 C 
ENDBRANCH   4  22
ENDBRANCH  16   4
ENDBRANCH  12  16
ENDBRANCH   7  12
ENDBRANCH  10   9
BRANCH  10  14
ATOM     14  C   UNL     1      16.446   8.211  20.179  0.00  0.00    -0.017 A 
ATOM     17  C   UNL     1      17.488   8.590  21.025  0.00  0.00    +0.008 A 
ATOM     18  C   UNL     1      16.495   6.984  19.518  0.00  0.00    +0.008 A 
ATOM     19  C   UNL     1      18.581   7.742  21.210  0.00  0.00    +0.023 A 
ATOM     20  C   UNL     1      17.587   6.136  19.703  0.00  0.00    +0.023 A 
ATOM     21  C   UNL     1      18.630   6.514  20.548  0.00  0.00    +0.034 A 
BRANCH  21   8
ATOM      6  O   UNL     1      21.560   7.013  20.159  0.00  0.00    -0.269 OA
ATOM      8  N   UNL     1      19.722   5.666  20.733  0.00  0.00    -0.281 N 
ATOM     24  C   UNL     1      21.079   5.950  20.536  0.00  0.00    +0.255 C 
ATOM     30  H   UNL     1      19.492   4.727  21.054  0.00  0.00    +0.155 HD
BRANCH  24  25
ATOM      1  S   UNL     1      23.699   5.093  20.669  0.00  0.00    -0.092 S 
ATOM     25  C   UNL     1      22.016   4.838  20.847  0.00  0.00    +0.074 A 
ATOM     26  C   UNL     1      21.729   3.563  21.280  0.00  0.00    +0.021 A 
ATOM     27  C   UNL     1      22.906   2.785  21.469  0.00  0.00    +0.008 A 
ATOM     28  C   UNL     1      24.049   3.495  21.171  0.00  0.00    +0.046 A 
ENDBRANCH  24  25
ENDBRANCH  21   8
ENDBRANCH  10  14
BRANCH  10   3
ATOM      3  O   UNL     1      15.052   9.333  18.588  0.00  0.00    -0.385 OA
ATOM     29  H   UNL     1      14.346   8.742  18.281  0.00  0.00    +0.210 HD
ENDBRANCH  10   3
TORSDOF 9
ENDMDL
MODEL 4
REMARK VINA RESULT:      -6.1     27.763     30.564
REMARK  Name = 56774925
REMARK  10 active torsions:
REMARK  status: ('A' for Active; 'I' for Inactive)
REMARK    1  A    between atoms: O_3  and  C_10
REMARK    2  A    between atoms: O_4  and  C_16
REMARK    3  A    between atoms: O_4  and  C_22
REMARK    4  A    between atoms: N_7  and  C_12
REMARK    5  A    between atoms: N_8  and  C_21
REMARK    6  A    between atoms: C_9  and  C_10
REMARK    7  A    between atoms: C_10  and  C_14
REMARK    8  A    between atoms: C_12  and  C_16
REMARK    9  A    between atoms: C_22  and  C_23
REMARK   10  A    between atoms: C_24  and  C_25
REMARK                            x       y       z     vdW  Elec       q    Type
REMARK                         _______ _______ _______ _____ _____    ______ ____
ROOT
ATOM     10  C   UNL     1     -11.039   9.752  19.660  0.00  0.00    +0.167 C 
ENDROOT
BRANCH  10   9
ATOM      2  O   UNL     1     -10.062  11.881  17.894  0.00  0.00    -0.369 OA
ATOM      5  O   UNL     1     -10.383   9.299  15.390  0.00  0.00    -0.273 OA
ATOM      7  N   UNL     1     -11.686   9.680  17.280  0.00  0.00    -0.289 N 
ATOM      9  C   UNL     1     -11.840  10.421  18.539  0.00  0.00    +0.135 C 
ATOM     11  C   UNL     1     -11.411  11.870  18.346  0.00  0.00    +0.185 C 
ATOM     13  C   UNL     1     -10.673   9.983  16.373  0.00  0.00    +0.242 C 
ATOM     15  C   UNL     1      -9.956  11.307  16.610  0.00  0.00    +0.255 C 
BRANCH   7  12
ATOM     12  C   UNL     1     -12.513   8.496  17.090  0.00  0.00    +0.136 C 
BRANCH  12  16
ATOM     16  C   UNL     1     -13.728   8.796  16.231  0.00  0.00    +0.178 C 
BRANCH  16   4
ATOM      4  O   UNL     1     -14.887   8.845  17.052  0.00  0.00    -0.378 OA
BRANCH   4  22
ATOM     22  C   UNL     1     -14.765   7.986  18.178  0.00  0.00    +0.156 C 
ATOM     23  C   UNL     1     -16.048   8.040  18.980  0.00  0.00    +0.034 C 
ENDBRANCH   4  22
ENDBRANCH  16   4
ENDBRANCH  12  16
ENDBRANCH   7  12
ENDBRANCH  10   9
BRANCH  10  14
ATOM     14  C   UNL     1     -11.873   8.760  20.429  0.00  0.00    -0.017 A 
ATOM     17  C   UNL     1     -11.547   7.404  20.402  0.00  0.00    +0.008 A 
ATOM     18  C   UNL     1     -12.971   9.198  21.170  0.00  0.00    +0.008 A 
ATOM     19  C   UNL     1     -12.318   6.486  21.115  0.00  0.00    +0.023 A 
ATOM     20  C   UNL     1     -13.743   8.280  21.883  0.00  0.00    +0.023 A 
ATOM     21  C   UNL     1     -13.416   6.924  21.856  0.00  0.00    +0.034 A 
BRANCH  21   8
ATOM      6  O   UNL     1     -15.614   5.106  20.931  0.00  0.00    -0.269 OA
ATOM      8  N   UNL     1     -14.188   6.007  22.569  0.00  0.00    -0.281 N 
ATOM     24  C   UNL     1     -15.208   5.177  22.086  0.00  0.00    +0.255 C 
ATOM     30  H   UNL     1     -13.972   5.937  23.561  0.00  0.00    +0.155 HD
BRANCH  24  25
ATOM      1  S   UNL     1     -17.384   3.629  22.784  0.00  0.00    -0.092 S 
ATOM     25  C   UNL     1     -15.831   4.279  23.094  0.00  0.00    +0.074 A 
ATOM     26  C   UNL     1     -15.329   3.863  24.307  0.00  0.00    +0.021 A 
ATOM     27  C   UNL     1     -16.232   2.999  24.991  0.00  0.00    +0.008 A 
ATOM     28  C   UNL     1     -17.390   2.788  24.275  0.00  0.00    +0.046 A 
ENDBRANCH  24  25
ENDBRANCH  21   8
ENDBRANCH  10  14
BRANCH  10   3
ATOM      3  O   UNL     1      -9.909   9.090  19.101  0.00  0.00    -0.385 OA
ATOM     29  H   UNL     1     -10.176   8.213  18.781  0.00  0.00    +0.210 HD
ENDBRANCH  10   3
TORSDOF 9
ENDMDL
MODEL 5
REMARK VINA RESULT:      -5.9      3.424      9.263
REMARK  Name = 56774925
REMARK  10 active torsions:
REMARK  status: ('A' for Active; 'I' for Inactive)
REMARK    1  A    between atoms: O_3  and  C_10
REMARK    2  A    between atoms: O_4  and  C_16
REMARK    3  A    between atoms: O_4  and  C_22
REMARK    4  A    between atoms: N_7  and  C_12
REMARK    5  A    between atoms: N_8  and  C_21
REMARK    6  A    between atoms: C_9  and  C_10
REMARK    7  A    between atoms: C_10  and  C_14
REMARK    8  A    between atoms: C_12  and  C_16
REMARK    9  A    between atoms: C_22  and  C_23
REMARK   10  A    between atoms: C_24  and  C_25
REMARK                            x       y       z     vdW  Elec       q    Type
REMARK                         _______ _______ _______ _____ _____    ______ ____
ROOT
ATOM     10  C   UNL     1      20.688   5.374  20.947  0.00  0.00    +0.167 C 
ENDROOT
BRANCH  10   9
ATOM      2  O   UNL     1      22.944   4.858  22.751  0.00  0.00    -0.369 OA
ATOM      5  O   UNL     1      24.704   6.924  20.369  0.00  0.00    -0.273 OA
ATOM      7  N   UNL     1      22.489   7.055  21.071  0.00  0.00    -0.289 N 
ATOM      9  C   UNL     1      21.395   6.419  21.815  0.00  0.00    +0.135 C 
ATOM     11  C   UNL     1      21.932   5.796  23.098  0.00  0.00    +0.185 C 
ATOM     13  C   UNL     1      23.785   6.546  21.098  0.00  0.00    +0.242 C 
ATOM     15  C   UNL     1      24.058   5.507  22.180  0.00  0.00    +0.255 C 
BRANCH   7  12
ATOM     12  C   UNL     1      22.142   8.132  20.152  0.00  0.00    +0.136 C 
BRANCH  12  16
ATOM     16  C   UNL     1      21.539   9.317  20.886  0.00  0.00    +0.178 C 
BRANCH  16   4
ATOM      4  O   UNL     1      22.438   9.754  21.897  0.00  0.00    -0.378 OA
BRANCH   4  22
ATOM     22  C   UNL     1      21.742  10.245  23.035  0.00  0.00    +0.156 C 
ATOM     23  C   UNL     1      20.305   9.769  22.976  0.00  0.00    +0.034 C 
ENDBRANCH   4  22
ENDBRANCH  16   4
ENDBRANCH  12  16
ENDBRANCH   7  12
ENDBRANCH  10   9
BRANCH  10  14
ATOM     14  C   UNL     1      19.331   5.848  20.493  0.00  0.00    -0.017 A 
ATOM     17  C   UNL     1      18.701   6.900  21.159  0.00  0.00    +0.008 A 
ATOM     18  C   UNL     1      18.707   5.236  19.406  0.00  0.00    +0.008 A 
ATOM     19  C   UNL     1      17.446   7.340  20.738  0.00  0.00    +0.023 A 
ATOM     20  C   UNL     1      17.451   5.676  18.985  0.00  0.00    +0.023 A 
ATOM     21  C   UNL     1      16.821   6.728  19.651  0.00  0.00    +0.034 A 
BRANCH  21   8
ATOM      6  O   UNL     1      14.135   6.458  20.954  0.00  0.00    -0.269 OA
ATOM      8  N   UNL     1      15.566   7.167  19.230  0.00  0.00    -0.281 N 
ATOM     24  C   UNL     1      14.334   7.014  19.880  0.00  0.00    +0.255 C 
ATOM     30  H   UNL     1      15.555   7.661  18.340  0.00  0.00    +0.155 HD
BRANCH  24  25
ATOM      1  S   UNL     1      11.954   8.392  20.119  0.00  0.00    -0.092 S 
ATOM     25  C   UNL     1      13.167   7.621  19.188  0.00  0.00    +0.074 A 
ATOM     26  C   UNL     1      12.891   7.666  17.840  0.00  0.00    +0.021 A 
ATOM     27  C   UNL     1      11.667   8.341  17.567  0.00  0.00    +0.008 A 
ATOM     28  C   UNL     1      11.054   8.787  18.718  0.00  0.00    +0.046 A 
ENDBRANCH  24  25
ENDBRANCH  21   8
ENDBRANCH  10  14
BRANCH  10   3
ATOM      3  O   UNL     1      21.495   5.082  19.811  0.00  0.00    -0.385 OA
ATOM     29  H   UNL     1      21.040   5.385  19.008  0.00  0.00    +0.210 HD
ENDBRANCH  10   3
TORSDOF 9
ENDMDL
MODEL 6
REMARK VINA RESULT:      -5.8     27.676     30.244
REMARK  Name = 56774925
REMARK  10 active torsions:
REMARK  status: ('A' for Active; 'I' for Inactive)
REMARK    1  A    between atoms: O_3  and  C_10
REMARK    2  A    between atoms: O_4  and  C_16
REMARK    3  A    between atoms: O_4  and  C_22
REMARK    4  A    between atoms: N_7  and  C_12
REMARK    5  A    between atoms: N_8  and  C_21
REMARK    6  A    between atoms: C_9  and  C_10
REMARK    7  A    between atoms: C_10  and  C_14
REMARK    8  A    between atoms: C_12  and  C_16
REMARK    9  A    between atoms: C_22  and  C_23
REMARK   10  A    between atoms: C_24  and  C_25
REMARK                            x       y       z     vdW  Elec       q    Type
REMARK                         _______ _______ _______ _____ _____    ______ ____
ROOT
ATOM     10  C   UNL     1     -11.035   9.923  19.774  0.00  0.00    +0.167 C 
ENDROOT
BRANCH  10   9
ATOM      2  O   UNL     1     -11.600  12.728  19.124  0.00  0.00    -0.369 OA
ATOM      5  O   UNL     1      -9.120  12.139  16.566  0.00  0.00    -0.273 OA
ATOM      7  N   UNL     1     -10.696  10.671  17.448  0.00  0.00    -0.289 N 
ATOM      9  C   UNL     1     -11.701  10.425  18.490  0.00  0.00    +0.135 C 
ATOM     11  C   UNL     1     -12.504  11.695  18.748  0.00  0.00    +0.185 C 
ATOM     13  C   UNL     1     -10.085  11.914  17.299  0.00  0.00    +0.242 C 
ATOM     15  C   UNL     1     -10.744  13.062  18.055  0.00  0.00    +0.255 C 
BRANCH   7  12
ATOM     12  C   UNL     1     -10.221   9.522  16.687  0.00  0.00    +0.136 C 
BRANCH  12  16
ATOM     16  C   UNL     1     -10.855   9.465  15.310  0.00  0.00    +0.178 C 
BRANCH  16   4
ATOM      4  O   UNL     1     -11.531   8.224  15.151  0.00  0.00    -0.378 OA
BRANCH   4  22
ATOM     22  C   UNL     1     -11.588   7.834  13.786  0.00  0.00    +0.156 C 
ATOM     23  C   UNL     1     -10.194   7.473  13.317  0.00  0.00    +0.034 C 
ENDBRANCH   4  22
ENDBRANCH  16   4
ENDBRANCH  12  16
ENDBRANCH   7  12
ENDBRANCH  10   9
BRANCH  10  14
ATOM     14  C   UNL     1     -11.891   8.910  20.490  0.00  0.00    -0.017 A 
ATOM     17  C   UNL     1     -12.975   9.333  21.260  0.00  0.00    +0.008 A 
ATOM     18  C   UNL     1     -11.600   7.550  20.382  0.00  0.00    +0.008 A 
ATOM     19  C   UNL     1     -13.769   8.396  21.922  0.00  0.00    +0.023 A 
ATOM     20  C   UNL     1     -12.394   6.613  21.044  0.00  0.00    +0.023 A 
ATOM     21  C   UNL     1     -13.478   7.035  21.814  0.00  0.00    +0.034 A 
BRANCH  21   8
ATOM      6  O   UNL     1     -15.638   5.240  20.767  0.00  0.00    -0.269 OA
ATOM      8  N   UNL     1     -14.271   6.098  22.476  0.00  0.00    -0.281 N 
ATOM     24  C   UNL     1     -15.272   5.279  21.937  0.00  0.00    +0.255 C 
ATOM     30  H   UNL     1     -14.089   6.002  23.473  0.00  0.00    +0.155 HD
BRANCH  24  25
ATOM      1  S   UNL     1     -17.508   3.789  22.566  0.00  0.00    -0.092 S 
ATOM     25  C   UNL     1     -15.926   4.354  22.899  0.00  0.00    +0.074 A 
ATOM     26  C   UNL     1     -15.435   3.850  24.082  0.00  0.00    +0.021 A 
ATOM     27  C   UNL     1     -16.370   2.988  24.724  0.00  0.00    +0.008 A 
ATOM     28  C   UNL     1     -17.540   2.867  24.008  0.00  0.00    +0.046 A 
ENDBRANCH  24  25
ENDBRANCH  21   8
ENDBRANCH  10  14
BRANCH  10   3
ATOM      3  O   UNL     1      -9.776   9.340  19.455  0.00  0.00    -0.385 OA
ATOM     29  H   UNL     1      -9.468   9.689  18.602  0.00  0.00    +0.210 HD
ENDBRANCH  10   3
TORSDOF 9
ENDMDL
MODEL 7
REMARK VINA RESULT:      -5.8     27.584     30.617
REMARK  Name = 56774925
REMARK  10 active torsions:
REMARK  status: ('A' for Active; 'I' for Inactive)
REMARK    1  A    between atoms: O_3  and  C_10
REMARK    2  A    between atoms: O_4  and  C_16
REMARK    3  A    between atoms: O_4  and  C_22
REMARK    4  A    between atoms: N_7  and  C_12
REMARK    5  A    between atoms: N_8  and  C_21
REMARK    6  A    between atoms: C_9  and  C_10
REMARK    7  A    between atoms: C_10  and  C_14
REMARK    8  A    between atoms: C_12  and  C_16
REMARK    9  A    between atoms: C_22  and  C_23
REMARK   10  A    between atoms: C_24  and  C_25
REMARK                            x       y       z     vdW  Elec       q    Type
REMARK                         _______ _______ _______ _____ _____    ______ ____
ROOT
ATOM     10  C   UNL     1     -12.008   8.202  17.920  0.00  0.00    +0.167 C 
ENDROOT
BRANCH  10   9
ATOM      2  O   UNL     1     -10.053   9.538  16.187  0.00  0.00    -0.369 OA
ATOM      5  O   UNL     1     -12.613  12.083  16.065  0.00  0.00    -0.273 OA
ATOM      7  N   UNL     1     -12.033  10.667  17.819  0.00  0.00    -0.289 N 
ATOM      9  C   UNL     1     -11.259   9.497  18.251  0.00  0.00    +0.135 C 
ATOM     11  C   UNL     1      -9.881   9.516  17.599  0.00  0.00    +0.185 C 
ATOM     13  C   UNL     1     -11.880  11.218  16.549  0.00  0.00    +0.242 C 
ATOM     15  C   UNL     1     -10.657  10.743  15.772  0.00  0.00    +0.255 C 
BRANCH   7  12
ATOM     12  C   UNL     1     -13.103  11.127  18.696  0.00  0.00    +0.136 C 
BRANCH  12  16
ATOM     16  C   UNL     1     -12.649  12.279  19.572  0.00  0.00    +0.178 C 
BRANCH  16   4
ATOM      4  O   UNL     1     -12.545  11.836  20.919  0.00  0.00    -0.378 OA
BRANCH   4  22
ATOM     22  C   UNL     1     -13.447  10.771  21.188  0.00  0.00    +0.156 C 
ATOM     23  C   UNL     1     -12.957  10.004  22.398  0.00  0.00    +0.034 C 
ENDBRANCH   4  22
ENDBRANCH  16   4
ENDBRANCH  12  16
ENDBRANCH   7  12
ENDBRANCH  10   9
BRANCH  10  14
ATOM     14  C   UNL     1     -12.659   7.605  19.141  0.00  0.00    -0.017 A 
ATOM     17  C   UNL     1     -11.874   7.016  20.133  0.00  0.00    +0.008 A 
ATOM     18  C   UNL     1     -14.047   7.642  19.280  0.00  0.00    +0.008 A 
ATOM     19  C   UNL     1     -12.476   6.464  21.263  0.00  0.00    +0.023 A 
ATOM     20  C   UNL     1     -14.649   7.089  20.411  0.00  0.00    +0.023 A 
ATOM     21  C   UNL     1     -13.864   6.501  21.402  0.00  0.00    +0.034 A 
BRANCH  21   8
ATOM      6  O   UNL     1     -16.119   4.539  21.634  0.00  0.00    -0.269 OA
ATOM      8  N   UNL     1     -14.467   5.949  22.533  0.00  0.00    -0.281 N 
ATOM     24  C   UNL     1     -15.524   5.030  22.586  0.00  0.00    +0.255 C 
ATOM     30  H   UNL     1     -14.082   6.255  23.424  0.00  0.00    +0.155 HD
BRANCH  24  25
ATOM      1  S   UNL     1     -17.182   5.456  24.751  0.00  0.00    -0.092 S 
ATOM     25  C   UNL     1     -15.930   4.604  23.951  0.00  0.00    +0.074 A 
ATOM     26  C   UNL     1     -15.433   3.575  24.719  0.00  0.00    +0.021 A 
ATOM     27  C   UNL     1     -16.088   3.484  25.980  0.00  0.00    +0.008 A 
ATOM     28  C   UNL     1     -17.061   4.448  26.129  0.00  0.00    +0.046 A 
ENDBRANCH  24  25
ENDBRANCH  21   8
ENDBRANCH  10  14
BRANCH  10   3
ATOM      3  O   UNL     1     -13.000   8.471  16.935  0.00  0.00    -0.385 OA
ATOM     29  H   UNL     1     -13.418   7.636  16.665  0.00  0.00    +0.210 HD
ENDBRANCH  10   3
TORSDOF 9
ENDMDL
MODEL 8
REMARK VINA RESULT:      -5.7     28.159     30.899
REMARK  Name = 56774925
REMARK  10 active torsions:
REMARK  status: ('A' for Active; 'I' for Inactive)
REMARK    1  A    between atoms: O_3  and  C_10
REMARK    2  A    between atoms: O_4  and  C_16
REMARK    3  A    between atoms: O_4  and  C_22
REMARK    4  A    between atoms: N_7  and  C_12
REMARK    5  A    between atoms: N_8  and  C_21
REMARK    6  A    between atoms: C_9  and  C_10
REMARK    7  A    between atoms: C_10  and  C_14
REMARK    8  A    between atoms: C_12  and  C_16
REMARK    9  A    between atoms: C_22  and  C_23
REMARK   10  A    between atoms: C_24  and  C_25
REMARK                            x       y       z     vdW  Elec       q    Type
REMARK                         _______ _______ _______ _____ _____    ______ ____
ROOT
ATOM     10  C   UNL     1      -9.799 -11.315  20.054  0.00  0.00    +0.167 C 
ENDROOT
BRANCH  10   9
ATOM      2  O   UNL     1     -11.734 -13.435  20.664  0.00  0.00    -0.369 OA
ATOM      5  O   UNL     1     -14.008 -10.639  20.886  0.00  0.00    -0.273 OA
ATOM      7  N   UNL     1     -12.169 -10.927  19.490  0.00  0.00    -0.289 N 
ATOM      9  C   UNL     1     -10.980 -11.728  19.171  0.00  0.00    +0.135 C 
ATOM     11  C   UNL     1     -11.293 -13.210  19.330  0.00  0.00    +0.185 C 
ATOM     13  C   UNL     1     -13.090 -11.336  20.451  0.00  0.00    +0.242 C 
ATOM     15  C   UNL     1     -12.962 -12.786  20.905  0.00  0.00    +0.255 C 
BRANCH   7  12
ATOM     12  C   UNL     1     -12.263  -9.597  18.901  0.00  0.00    +0.136 C 
BRANCH  12  16
ATOM     16  C   UNL     1     -12.199  -9.654  17.386  0.00  0.00    +0.178 C 
BRANCH  16   4
ATOM      4  O   UNL     1     -12.038  -8.338  16.870  0.00  0.00    -0.378 OA
BRANCH   4  22
ATOM     22  C   UNL     1     -10.762  -7.803  17.198  0.00  0.00    +0.156 C 
ATOM     23  C   UNL     1     -10.164  -7.165  15.961  0.00  0.00    +0.034 C 
ENDBRANCH   4  22
ENDBRANCH  16   4
ENDBRANCH  12  16
ENDBRANCH   7  12
ENDBRANCH  10   9
BRANCH  10  14
ATOM     14  C   UNL     1      -8.545 -11.098  19.247  0.00  0.00    -0.017 A 
ATOM     17  C   UNL     1      -8.634 -10.680  17.919  0.00  0.00    +0.008 A 
ATOM     18  C   UNL     1      -7.295 -11.314  19.828  0.00  0.00    +0.008 A 
ATOM     19  C   UNL     1      -7.473 -10.478  17.172  0.00  0.00    +0.023 A 
ATOM     20  C   UNL     1      -6.135 -11.111  19.081  0.00  0.00    +0.023 A 
ATOM     21  C   UNL     1      -6.223 -10.694  17.753  0.00  0.00    +0.034 A 
BRANCH  21   8
ATOM      6  O   UNL     1      -4.511 -12.653  16.264  0.00  0.00    -0.269 OA
ATOM      8  N   UNL     1      -5.062 -10.492  17.006  0.00  0.00    -0.281 N 
ATOM     24  C   UNL     1      -4.296 -11.447  16.326  0.00  0.00    +0.255 C 
ATOM     30  H   UNL     1      -4.743  -9.527  16.953  0.00  0.00    +0.155 HD
BRANCH  24  25
ATOM      1  S   UNL     1      -3.194 -10.781  13.885  0.00  0.00    -0.092 S 
ATOM     25  C   UNL     1      -3.119 -10.915  15.590  0.00  0.00    +0.074 A 
ATOM     26  C   UNL     1      -1.910 -10.488  16.090  0.00  0.00    +0.021 A 
ATOM     27  C   UNL     1      -1.032 -10.044  15.059  0.00  0.00    +0.008 A 
ATOM     28  C   UNL     1      -1.605 -10.150  13.810  0.00  0.00    +0.046 A 
ENDBRANCH  24  25
ENDBRANCH  21   8
ENDBRANCH  10  14
BRANCH  10   3
ATOM      3  O   UNL     1     -10.128 -10.119  20.753  0.00  0.00    -0.385 OA
ATOM     29  H   UNL     1      -9.985 -10.253  21.704  0.00  0.00    +0.210 HD
ENDBRANCH  10   3
TORSDOF 9
ENDMDL
MODEL 9
REMARK VINA RESULT:      -5.7     27.587     30.930
REMARK  Name = 56774925
REMARK  10 active torsions:
REMARK  status: ('A' for Active; 'I' for Inactive)
REMARK    1  A    between atoms: O_3  and  C_10
REMARK    2  A    between atoms: O_4  and  C_16
REMARK    3  A    between atoms: O_4  and  C_22
REMARK    4  A    between atoms: N_7  and  C_12
REMARK    5  A    between atoms: N_8  and  C_21
REMARK    6  A    between atoms: C_9  and  C_10
REMARK    7  A    between atoms: C_10  and  C_14
REMARK    8  A    between atoms: C_12  and  C_16
REMARK    9  A    between atoms: C_22  and  C_23
REMARK   10  A    between atoms: C_24  and  C_25
REMARK                            x       y       z     vdW  Elec       q    Type
REMARK                         _______ _______ _______ _____ _____    ______ ____
ROOT
ATOM     10  C   UNL     1      -3.635 -10.492  16.289  0.00  0.00    +0.167 C 
ENDROOT
BRANCH  10   9
ATOM      2  O   UNL     1      -1.393 -11.101  14.498  0.00  0.00    -0.369 OA
ATOM      5  O   UNL     1      -2.901 -14.383  14.502  0.00  0.00    -0.273 OA
ATOM      7  N   UNL     1      -3.925 -12.297  14.632  0.00  0.00    -0.289 N 
ATOM      9  C   UNL     1      -3.750 -10.849  14.804  0.00  0.00    +0.135 C 
ATOM     11  C   UNL     1      -2.525 -10.377  14.030  0.00  0.00    +0.185 C 
ATOM     13  C   UNL     1      -2.836 -13.152  14.479  0.00  0.00    +0.242 C 
ATOM     15  C   UNL     1      -1.504 -12.471  14.182  0.00  0.00    +0.255 C 
BRANCH   7  12
ATOM     12  C   UNL     1      -5.266 -12.839  14.810  0.00  0.00    +0.136 C 
BRANCH  12  16
ATOM     16  C   UNL     1      -6.169 -12.483  13.644  0.00  0.00    +0.178 C 
BRANCH  16   4
ATOM      4  O   UNL     1      -5.609 -12.990  12.439  0.00  0.00    -0.378 OA
BRANCH   4  22
ATOM     22  C   UNL     1      -5.320 -11.945  11.520  0.00  0.00    +0.156 C 
ATOM     23  C   UNL     1      -3.928 -12.153  10.960  0.00  0.00    +0.034 C 
ENDBRANCH   4  22
ENDBRANCH  16   4
ENDBRANCH  12  16
ENDBRANCH   7  12
ENDBRANCH  10   9
BRANCH  10  14
ATOM     14  C   UNL     1      -4.984 -10.439  16.958  0.00  0.00    -0.017 A 
ATOM     17  C   UNL     1      -5.189 -11.102  18.168  0.00  0.00    +0.008 A 
ATOM     18  C   UNL     1      -6.029  -9.727  16.367  0.00  0.00    +0.008 A 
ATOM     19  C   UNL     1      -6.438 -11.052  18.789  0.00  0.00    +0.023 A 
ATOM     20  C   UNL     1      -7.277  -9.677  16.988  0.00  0.00    +0.023 A 
ATOM     21  C   UNL     1      -7.482 -10.340  18.198  0.00  0.00    +0.034 A 
BRANCH  21   8
ATOM      6  O   UNL     1      -9.797 -12.239  18.050  0.00  0.00    -0.269 OA
ATOM      8  N   UNL     1      -8.731 -10.290  18.818  0.00  0.00    -0.281 N 
ATOM     24  C   UNL     1      -9.783 -11.209  18.714  0.00  0.00    +0.255 C 
ATOM     30  H   UNL     1      -8.885  -9.483  19.420  0.00  0.00    +0.155 HD
BRANCH  24  25
ATOM      1  S   UNL     1     -11.796 -12.158  20.348  0.00  0.00    -0.092 S 
ATOM     25  C   UNL     1     -10.989 -10.892  19.525  0.00  0.00    +0.074 A 
ATOM     26  C   UNL     1     -11.594  -9.673  19.731  0.00  0.00    +0.021 A 
ATOM     27  C   UNL     1     -12.736  -9.779  20.576  0.00  0.00    +0.008 A 
ATOM     28  C   UNL     1     -12.960 -11.076  20.983  0.00  0.00    +0.046 A 
ENDBRANCH  24  25
ENDBRANCH  21   8
ENDBRANCH  10  14
BRANCH  10   3
ATOM      3  O   UNL     1      -2.817 -11.457  16.943  0.00  0.00    -0.385 OA
ATOM     29  H   UNL     1      -2.943 -12.323  16.522  0.00  0.00    +0.210 HD
ENDBRANCH  10   3
TORSDOF 9
ENDMDL
MODEL 10
REMARK VINA RESULT:      -5.7     27.984     31.483
REMARK  Name = 56774925
REMARK  10 active torsions:
REMARK  status: ('A' for Active; 'I' for Inactive)
REMARK    1  A    between atoms: O_3  and  C_10
REMARK    2  A    between atoms: O_4  and  C_16
REMARK    3  A    between atoms: O_4  and  C_22
REMARK    4  A    between atoms: N_7  and  C_12
REMARK    5  A    between atoms: N_8  and  C_21
REMARK    6  A    between atoms: C_9  and  C_10
REMARK    7  A    between atoms: C_10  and  C_14
REMARK    8  A    between atoms: C_12  and  C_16
REMARK    9  A    between atoms: C_22  and  C_23
REMARK   10  A    between atoms: C_24  and  C_25
REMARK                            x       y       z     vdW  Elec       q    Type
REMARK                         _______ _______ _______ _____ _____    ______ ____
ROOT
ATOM     10  C   UNL     1      -6.096  -9.994  15.279  0.00  0.00    +0.167 C 
ENDROOT
BRANCH  10   9
ATOM      2  O   UNL     1      -4.401 -10.642  12.973  0.00  0.00    -0.369 OA
ATOM      5  O   UNL     1      -1.836 -10.811  15.509  0.00  0.00    -0.273 OA
ATOM      7  N   UNL     1      -4.088 -11.377  15.660  0.00  0.00    -0.289 N 
ATOM      9  C   UNL     1      -5.411 -11.340  15.024  0.00  0.00    +0.135 C 
ATOM     11  C   UNL     1      -5.278 -11.615  13.531  0.00  0.00    +0.185 C 
ATOM     13  C   UNL     1      -2.940 -10.968  14.985  0.00  0.00    +0.242 C 
ATOM     15  C   UNL     1      -3.094 -10.794  13.478  0.00  0.00    +0.255 C 
BRANCH   7  12
ATOM     12  C   UNL     1      -4.035 -11.681  17.084  0.00  0.00    +0.136 C 
BRANCH  12  16
ATOM     16  C   UNL     1      -4.915 -12.866  17.434  0.00  0.00    +0.178 C 
BRANCH  16   4
ATOM      4  O   UNL     1      -5.689 -12.557  18.586  0.00  0.00    -0.378 OA
BRANCH   4  22
ATOM     22  C   UNL     1      -5.360 -11.275  19.105  0.00  0.00    +0.156 C 
ATOM     23  C   UNL     1      -6.577 -10.697  19.797  0.00  0.00    +0.034 C 
ENDBRANCH   4  22
ENDBRANCH  16   4
ENDBRANCH  12  16
ENDBRANCH   7  12
ENDBRANCH  10   9
BRANCH  10  14
ATOM     14  C   UNL     1      -7.359 -10.152  16.084  0.00  0.00    -0.017 A 
ATOM     17  C   UNL     1      -7.920  -9.048  16.726  0.00  0.00    +0.008 A 
ATOM     18  C   UNL     1      -7.969 -11.403  16.187  0.00  0.00    +0.008 A 
ATOM     19  C   UNL     1      -9.090  -9.194  17.472  0.00  0.00    +0.023 A 
ATOM     20  C   UNL     1      -9.140 -11.548  16.932  0.00  0.00    +0.023 A 
ATOM     21  C   UNL     1      -9.700 -10.444  17.574  0.00  0.00    +0.034 A 
BRANCH  21   8
ATOM      6  O   UNL     1     -10.121 -10.453  20.542  0.00  0.00    -0.269 OA
ATOM      8  N   UNL     1     -10.871 -10.591  18.319  0.00  0.00    -0.281 N 
ATOM     24  C   UNL     1     -11.013 -10.587  19.713  0.00  0.00    +0.255 C 
ATOM     30  H   UNL     1     -11.721 -10.711  17.772  0.00  0.00    +0.155 HD
BRANCH  24  25
ATOM      1  S   UNL     1     -13.066 -12.310  20.373  0.00  0.00    -0.092 S 
ATOM     25  C   UNL     1     -12.405 -10.738  20.212  0.00  0.00    +0.074 A 
ATOM     26  C   UNL     1     -13.299  -9.760  20.587  0.00  0.00    +0.021 A 
ATOM     27  C   UNL     1     -14.543 -10.308  21.013  0.00  0.00    +0.008 A 
ATOM     28  C   UNL     1     -14.554 -11.684  20.946  0.00  0.00    +0.046 A 
ENDBRANCH  24  25
ENDBRANCH  21   8
ENDBRANCH  10  14
BRANCH  10   3
ATOM      3  O   UNL     1      -5.197  -9.132  15.968  0.00  0.00    -0.385 OA
ATOM     29  H   UNL     1      -5.022  -8.348  15.422  0.00  0.00    +0.210 HD
ENDBRANCH  10   3
TORSDOF 9
ENDMDL
