MODEL 1
REMARK VINA RESULT:      -7.5      0.000      0.000
REMARK  Name = 45784171
REMARK  5 active torsions:
REMARK  status: ('A' for Active; 'I' for Inactive)
REMARK    1  A    between atoms: O_3  and  C_25
REMARK    2  A    between atoms: N_5  and  C_11
REMARK    3  A    between atoms: C_7  and  C_12
REMARK    4  A    between atoms: C_11  and  C_13
REMARK    5  A    between atoms: C_22  and  C_25
REMARK                            x       y       z     vdW  Elec       q    Type
REMARK                         _______ _______ _______ _____ _____    ______ ____
ROOT
ATOM      5  N   UNL     1      10.772   5.623   4.003  0.00  0.00    -0.297 NA
ATOM      7  C   UNL     1      11.741   4.557   2.152  0.00  0.00    +0.090 C 
ATOM      8  C   UNL     1      12.535   5.833   2.486  0.00  0.00    +0.029 C 
ATOM      9  C   UNL     1      10.416   4.715   2.910  0.00  0.00    +0.097 C 
ATOM     10  C   UNL     1      11.613   6.647   3.383  0.00  0.00    +0.085 C 
ENDROOT
BRANCH   7  12
ATOM      1 CL   UNL     1      10.148   3.725  -5.226  0.00  0.00    -0.083 Cl
ATOM      2  O   UNL     1      12.449   3.457   0.097  0.00  0.00    -0.439 OA
ATOM      6  N   UNL     1      10.620   4.778  -0.124  0.00  0.00    -0.213 NA
ATOM     12  C   UNL     1      11.547   4.298   0.677  0.00  0.00    +0.201 A 
ATOM     14  C   UNL     1      10.927   4.211  -1.338  0.00  0.00    +0.111 A 
ATOM     15  C   UNL     1      12.045   3.401  -1.206  0.00  0.00    +0.155 A 
ATOM     18  C   UNL     1      10.316   4.326  -2.595  0.00  0.00    +0.051 A 
ATOM     19  C   UNL     1      12.624   2.678  -2.241  0.00  0.00    +0.050 A 
ATOM     23  C   UNL     1      10.872   3.610  -3.665  0.00  0.00    +0.043 A 
ATOM     24  C   UNL     1      12.003   2.802  -3.489  0.00  0.00    +0.024 A 
ENDBRANCH   7  12
BRANCH   5  11
ATOM     11  C   UNL     1       9.603   6.189   4.659  0.00  0.00    +0.119 C 
BRANCH  11  13
ATOM     13  C   UNL     1       9.544   5.819   6.117  0.00  0.00    -0.033 A 
ATOM     16  C   UNL     1       9.187   6.779   7.065  0.00  0.00    +0.006 A 
ATOM     17  C   UNL     1       9.846   4.518   6.521  0.00  0.00    +0.006 A 
ATOM     20  C   UNL     1       9.132   6.436   8.417  0.00  0.00    +0.015 A 
ATOM     21  C   UNL     1       9.791   4.177   7.871  0.00  0.00    +0.015 A 
ATOM     22  C   UNL     1       9.435   5.136   8.820  0.00  0.00    +0.059 A 
BRANCH  22  25
ATOM      4  O   UNL     1      10.346   4.463  10.928  0.00  0.00    -0.245 OA
ATOM     25  C   UNL     1       9.376   4.778  10.228  0.00  0.00    +0.337 C 
BRANCH  25   3
ATOM      3  O   UNL     1       8.109   4.821  10.725  0.00  0.00    -0.477 OA
ATOM     26  H   UNL     1       7.439   4.672  10.025  0.00  0.00    +0.295 HD
ENDBRANCH  25   3
ENDBRANCH  22  25
ENDBRANCH  11  13
ENDBRANCH   5  11
TORSDOF 5
ENDMDL
MODEL 2
REMARK VINA RESULT:      -7.3     18.119     20.778
REMARK  Name = 45784171
REMARK  5 active torsions:
REMARK  status: ('A' for Active; 'I' for Inactive)
REMARK    1  A    between atoms: O_3  and  C_25
REMARK    2  A    between atoms: N_5  and  C_11
REMARK    3  A    between atoms: C_7  and  C_12
REMARK    4  A    between atoms: C_11  and  C_13
REMARK    5  A    between atoms: C_22  and  C_25
REMARK                            x       y       z     vdW  Elec       q    Type
REMARK                         _______ _______ _______ _____ _____    ______ ____
ROOT
ATOM      5  N   UNL     1      13.869   7.159  20.278  0.00  0.00    -0.297 NA
ATOM      7  C   UNL     1      12.648   8.403  21.847  0.00  0.00    +0.090 C 
ATOM      8  C   UNL     1      11.709   7.420  21.126  0.00  0.00    +0.029 C 
ATOM      9  C   UNL     1      13.908   8.448  20.974  0.00  0.00    +0.097 C 
ATOM     10  C   UNL     1      12.471   6.989  19.881  0.00  0.00    +0.085 C 
ENDROOT
BRANCH   7  12
ATOM      1 CL   UNL     1       9.826  15.432  22.380  0.00  0.00    -0.083 Cl
ATOM      2  O   UNL     1      11.649  10.013  23.379  0.00  0.00    -0.439 OA
ATOM      6  N   UNL     1      11.892  10.762  21.254  0.00  0.00    -0.213 NA
ATOM     12  C   UNL     1      12.060   9.771  22.103  0.00  0.00    +0.201 A 
ATOM     14  C   UNL     1      11.323  11.746  22.025  0.00  0.00    +0.111 A 
ATOM     15  C   UNL     1      11.174  11.292  23.327  0.00  0.00    +0.155 A 
ATOM     18  C   UNL     1      10.904  13.046  21.708  0.00  0.00    +0.051 A 
ATOM     19  C   UNL     1      10.630  12.036  24.367  0.00  0.00    +0.050 A 
ATOM     23  C   UNL     1      10.351  13.828  22.732  0.00  0.00    +0.043 A 
ATOM     24  C   UNL     1      10.218  13.331  24.035  0.00  0.00    +0.024 A 
ENDBRANCH   7  12
BRANCH   5  11
ATOM     11  C   UNL     1      14.778   7.113  19.142  0.00  0.00    +0.119 C 
BRANCH  11  13
ATOM     13  C   UNL     1      16.171   6.720  19.555  0.00  0.00    -0.033 A 
ATOM     16  C   UNL     1      16.721   7.234  20.730  0.00  0.00    +0.006 A 
ATOM     17  C   UNL     1      16.913   5.842  18.764  0.00  0.00    +0.006 A 
ATOM     20  C   UNL     1      18.012   6.870  21.113  0.00  0.00    +0.015 A 
ATOM     21  C   UNL     1      18.203   5.479  19.147  0.00  0.00    +0.015 A 
ATOM     22  C   UNL     1      18.754   5.993  20.321  0.00  0.00    +0.059 A 
BRANCH  22  25
ATOM      4  O   UNL     1      20.669   5.975  21.756  0.00  0.00    -0.245 OA
ATOM     25  C   UNL     1      20.099   5.612  20.721  0.00  0.00    +0.337 C 
BRANCH  25   3
ATOM      3  O   UNL     1      20.698   4.790  19.816  0.00  0.00    -0.477 OA
ATOM     26  H   UNL     1      20.854   3.895  20.185  0.00  0.00    +0.295 HD
ENDBRANCH  25   3
ENDBRANCH  22  25
ENDBRANCH  11  13
ENDBRANCH   5  11
TORSDOF 5
ENDMDL
MODEL 3
REMARK VINA RESULT:      -7.1     22.430     26.009
REMARK  Name = 45784171
REMARK  5 active torsions:
REMARK  status: ('A' for Active; 'I' for Inactive)
REMARK    1  A    between atoms: O_3  and  C_25
REMARK    2  A    between atoms: N_5  and  C_11
REMARK    3  A    between atoms: C_7  and  C_12
REMARK    4  A    between atoms: C_11  and  C_13
REMARK    5  A    between atoms: C_22  and  C_25
REMARK                            x       y       z     vdW  Elec       q    Type
REMARK                         _______ _______ _______ _____ _____    ______ ____
ROOT
ATOM      5  N   UNL     1      -2.024 -11.023  13.782  0.00  0.00    -0.297 NA
ATOM      7  C   UNL     1      -3.172 -10.146  15.629  0.00  0.00    +0.090 C 
ATOM      8  C   UNL     1      -1.849 -10.776  16.098  0.00  0.00    +0.029 C 
ATOM      9  C   UNL     1      -3.385 -10.697  14.213  0.00  0.00    +0.097 C 
ATOM     10  C   UNL     1      -1.404 -11.663  14.943  0.00  0.00    +0.085 C 
ENDROOT
BRANCH   7  12
ATOM      1 CL   UNL     1      -9.485 -10.865  19.788  0.00  0.00    -0.083 Cl
ATOM      2  O   UNL     1      -4.155 -11.306  17.533  0.00  0.00    -0.439 OA
ATOM      6  N   UNL     1      -5.546  -9.843  16.503  0.00  0.00    -0.213 NA
ATOM     12  C   UNL     1      -4.351 -10.394  16.541  0.00  0.00    +0.201 A 
ATOM     14  C   UNL     1      -6.201 -10.436  17.556  0.00  0.00    +0.111 A 
ATOM     15  C   UNL     1      -5.352 -11.331  18.189  0.00  0.00    +0.155 A 
ATOM     18  C   UNL     1      -7.505 -10.275  18.044  0.00  0.00    +0.051 A 
ATOM     19  C   UNL     1      -5.696 -12.101  19.293  0.00  0.00    +0.050 A 
ATOM     23  C   UNL     1      -7.889 -11.035  19.158  0.00  0.00    +0.043 A 
ATOM     24  C   UNL     1      -7.000 -11.929  19.769  0.00  0.00    +0.024 A 
ENDBRANCH   7  12
BRANCH   5  11
ATOM     11  C   UNL     1      -2.003 -11.874  12.602  0.00  0.00    +0.119 C 
BRANCH  11  13
ATOM     13  C   UNL     1      -2.789 -11.277  11.466  0.00  0.00    -0.033 A 
ATOM     16  C   UNL     1      -3.751 -12.044  10.807  0.00  0.00    +0.006 A 
ATOM     17  C   UNL     1      -2.557  -9.959  11.072  0.00  0.00    +0.006 A 
ATOM     20  C   UNL     1      -4.480 -11.490   9.753  0.00  0.00    +0.015 A 
ATOM     21  C   UNL     1      -3.286  -9.408  10.019  0.00  0.00    +0.015 A 
ATOM     22  C   UNL     1      -4.248 -10.173   9.359  0.00  0.00    +0.059 A 
BRANCH  22  25
ATOM      4  O   UNL     1      -5.132 -10.093   7.137  0.00  0.00    -0.245 OA
ATOM     25  C   UNL     1      -5.008  -9.596   8.263  0.00  0.00    +0.337 C 
BRANCH  25   3
ATOM      3  O   UNL     1      -5.593  -8.414   8.600  0.00  0.00    -0.477 OA
ATOM     26  H   UNL     1      -5.833  -8.384   9.550  0.00  0.00    +0.295 HD
ENDBRANCH  25   3
ENDBRANCH  22  25
ENDBRANCH  11  13
ENDBRANCH   5  11
TORSDOF 5
ENDMDL
MODEL 4
REMARK VINA RESULT:      -7.1     16.910     19.481
REMARK  Name = 45784171
REMARK  5 active torsions:
REMARK  status: ('A' for Active; 'I' for Inactive)
REMARK    1  A    between atoms: O_3  and  C_25
REMARK    2  A    between atoms: N_5  and  C_11
REMARK    3  A    between atoms: C_7  and  C_12
REMARK    4  A    between atoms: C_11  and  C_13
REMARK    5  A    between atoms: C_22  and  C_25
REMARK                            x       y       z     vdW  Elec       q    Type
REMARK                         _______ _______ _______ _____ _____    ______ ____
ROOT
ATOM      5  N   UNL     1      12.348   8.438  19.349  0.00  0.00    -0.297 NA
ATOM      7  C   UNL     1      14.663   8.363  18.985  0.00  0.00    +0.090 C 
ATOM      8  C   UNL     1      13.934   7.701  17.803  0.00  0.00    +0.029 C 
ATOM      9  C   UNL     1      13.608   8.445  20.095  0.00  0.00    +0.097 C 
ATOM     10  C   UNL     1      12.528   7.420  18.314  0.00  0.00    +0.085 C 
ENDROOT
BRANCH   7  12
ATOM      1 CL   UNL     1      20.845   4.289  20.671  0.00  0.00    -0.083 Cl
ATOM      2  O   UNL     1      16.641   8.282  20.406  0.00  0.00    -0.439 OA
ATOM      6  N   UNL     1      16.432   6.531  18.983  0.00  0.00    -0.213 NA
ATOM     12  C   UNL     1      15.928   7.663  19.424  0.00  0.00    +0.201 A 
ATOM     14  C   UNL     1      17.575   6.380  19.731  0.00  0.00    +0.111 A 
ATOM     15  C   UNL     1      17.705   7.450  20.603  0.00  0.00    +0.155 A 
ATOM     18  C   UNL     1      18.553   5.376  19.737  0.00  0.00    +0.051 A 
ATOM     19  C   UNL     1      18.750   7.613  21.504  0.00  0.00    +0.050 A 
ATOM     23  C   UNL     1      19.624   5.505  20.633  0.00  0.00    +0.043 A 
ATOM     24  C   UNL     1      19.718   6.603  21.499  0.00  0.00    +0.024 A 
ENDBRANCH   7  12
BRANCH   5  11
ATOM     11  C   UNL     1      11.199   8.167  20.199  0.00  0.00    +0.119 C 
BRANCH  11  13
ATOM     13  C   UNL     1      11.147   9.093  21.385  0.00  0.00    -0.033 A 
ATOM     16  C   UNL     1      11.368  10.460  21.211  0.00  0.00    +0.006 A 
ATOM     17  C   UNL     1      10.879   8.586  22.657  0.00  0.00    +0.006 A 
ATOM     20  C   UNL     1      11.320  11.319  22.310  0.00  0.00    +0.015 A 
ATOM     21  C   UNL     1      10.831   9.445  23.754  0.00  0.00    +0.015 A 
ATOM     22  C   UNL     1      11.053  10.811  23.581  0.00  0.00    +0.059 A 
BRANCH  22  25
ATOM      4  O   UNL     1      10.226  12.661  24.855  0.00  0.00    -0.245 OA
ATOM     25  C   UNL     1      11.001  11.706  24.726  0.00  0.00    +0.337 C 
BRANCH  25   3
ATOM      3  O   UNL     1      11.919  11.386  25.679  0.00  0.00    -0.477 OA
ATOM     26  H   UNL     1      12.177  10.441  25.634  0.00  0.00    +0.295 HD
ENDBRANCH  25   3
ENDBRANCH  22  25
ENDBRANCH  11  13
ENDBRANCH   5  11
TORSDOF 5
ENDMDL
MODEL 5
REMARK VINA RESULT:      -6.8     18.483     20.861
REMARK  Name = 45784171
REMARK  5 active torsions:
REMARK  status: ('A' for Active; 'I' for Inactive)
REMARK    1  A    between atoms: O_3  and  C_25
REMARK    2  A    between atoms: N_5  and  C_11
REMARK    3  A    between atoms: C_7  and  C_12
REMARK    4  A    between atoms: C_11  and  C_13
REMARK    5  A    between atoms: C_22  and  C_25
REMARK                            x       y       z     vdW  Elec       q    Type
REMARK                         _______ _______ _______ _____ _____    ______ ____
ROOT
ATOM      5  N   UNL     1      18.276   8.011  21.835  0.00  0.00    -0.297 NA
ATOM      7  C   UNL     1      19.961   6.494  22.436  0.00  0.00    +0.090 C 
ATOM      8  C   UNL     1      20.291   7.884  23.008  0.00  0.00    +0.029 C 
ATOM      9  C   UNL     1      18.879   6.756  21.380  0.00  0.00    +0.097 C 
ATOM     10  C   UNL     1      19.407   8.850  22.232  0.00  0.00    +0.085 C 
ENDROOT
BRANCH   7  12
ATOM      1 CL   UNL     1      26.081   3.312  19.262  0.00  0.00    -0.083 Cl
ATOM      2  O   UNL     1      21.308   4.465  22.357  0.00  0.00    -0.439 OA
ATOM      6  N   UNL     1      22.046   6.139  21.018  0.00  0.00    -0.213 NA
ATOM     12  C   UNL     1      21.146   5.735  21.889  0.00  0.00    +0.201 A 
ATOM     14  C   UNL     1      22.876   5.050  20.893  0.00  0.00    +0.111 A 
ATOM     15  C   UNL     1      22.426   4.024  21.710  0.00  0.00    +0.155 A 
ATOM     18  C   UNL     1      24.024   4.845  20.115  0.00  0.00    +0.051 A 
ATOM     19  C   UNL     1      23.035   2.781  21.825  0.00  0.00    +0.050 A 
ATOM     23  C   UNL     1      24.666   3.602  20.204  0.00  0.00    +0.043 A 
ATOM     24  C   UNL     1      24.179   2.591  21.043  0.00  0.00    +0.024 A 
ENDBRANCH   7  12
BRANCH   5  11
ATOM     11  C   UNL     1      17.454   8.636  20.810  0.00  0.00    +0.119 C 
BRANCH  11  13
ATOM     13  C   UNL     1      16.038   8.125  20.837  0.00  0.00    -0.033 A 
ATOM     16  C   UNL     1      15.215   8.411  21.928  0.00  0.00    +0.006 A 
ATOM     17  C   UNL     1      15.548   7.368  19.773  0.00  0.00    +0.006 A 
ATOM     20  C   UNL     1      13.903   7.937  21.953  0.00  0.00    +0.015 A 
ATOM     21  C   UNL     1      14.237   6.895  19.800  0.00  0.00    +0.015 A 
ATOM     22  C   UNL     1      13.414   7.179  20.890  0.00  0.00    +0.059 A 
BRANCH  22  25
ATOM      4  O   UNL     1      11.071   7.256  20.411  0.00  0.00    -0.245 OA
ATOM     25  C   UNL     1      12.046   6.687  20.915  0.00  0.00    +0.337 C 
BRANCH  25   3
ATOM      3  O   UNL     1      11.931   5.500  21.572  0.00  0.00    -0.477 OA
ATOM     26  H   UNL     1      12.415   5.507  22.425  0.00  0.00    +0.295 HD
ENDBRANCH  25   3
ENDBRANCH  22  25
ENDBRANCH  11  13
ENDBRANCH   5  11
TORSDOF 5
ENDMDL
MODEL 6
REMARK VINA RESULT:      -6.8      1.764      2.639
REMARK  Name = 45784171
REMARK  5 active torsions:
REMARK  status: ('A' for Active; 'I' for Inactive)
REMARK    1  A    between atoms: O_3  and  C_25
REMARK    2  A    between atoms: N_5  and  C_11
REMARK    3  A    between atoms: C_7  and  C_12
REMARK    4  A    between atoms: C_11  and  C_13
REMARK    5  A    between atoms: C_22  and  C_25
REMARK                            x       y       z     vdW  Elec       q    Type
REMARK                         _______ _______ _______ _____ _____    ______ ____
ROOT
ATOM      5  N   UNL     1      12.180   4.862   2.149  0.00  0.00    -0.297 NA
ATOM      7  C   UNL     1      12.381   3.406   0.321  0.00  0.00    +0.090 C 
ATOM      8  C   UNL     1      13.777   3.898   0.744  0.00  0.00    +0.029 C 
ATOM      9  C   UNL     1      11.405   4.371   1.006  0.00  0.00    +0.097 C 
ATOM     10  C   UNL     1      13.517   5.120   1.614  0.00  0.00    +0.085 C 
ENDROOT
BRANCH   7  12
ATOM      1 CL   UNL     1      12.076   2.998  -7.256  0.00  0.00    -0.083 Cl
ATOM      2  O   UNL     1      10.872   3.194  -1.581  0.00  0.00    -0.439 OA
ATOM      6  N   UNL     1      13.067   3.332  -2.131  0.00  0.00    -0.213 NA
ATOM     12  C   UNL     1      12.167   3.313  -1.172  0.00  0.00    +0.201 A 
ATOM     14  C   UNL     1      12.313   3.217  -3.275  0.00  0.00    +0.111 A 
ATOM     15  C   UNL     1      10.970   3.133  -2.941  0.00  0.00    +0.155 A 
ATOM     18  C   UNL     1      12.681   3.176  -4.627  0.00  0.00    +0.051 A 
ATOM     19  C   UNL     1       9.934   3.008  -3.858  0.00  0.00    +0.050 A 
ATOM     23  C   UNL     1      11.663   3.051  -5.583  0.00  0.00    +0.043 A 
ATOM     24  C   UNL     1      10.316   2.969  -5.203  0.00  0.00    +0.024 A 
ENDBRANCH   7  12
BRANCH   5  11
ATOM     11  C   UNL     1      11.587   6.044   2.756  0.00  0.00    +0.119 C 
BRANCH  11  13
ATOM     13  C   UNL     1      11.138   5.784   4.169  0.00  0.00    -0.033 A 
ATOM     16  C   UNL     1      11.654   6.549   5.216  0.00  0.00    +0.006 A 
ATOM     17  C   UNL     1      10.207   4.779   4.432  0.00  0.00    +0.006 A 
ATOM     20  C   UNL     1      11.238   6.308   6.525  0.00  0.00    +0.015 A 
ATOM     21  C   UNL     1       9.792   4.539   5.741  0.00  0.00    +0.015 A 
ATOM     22  C   UNL     1      10.308   5.303   6.789  0.00  0.00    +0.059 A 
BRANCH  22  25
ATOM      4  O   UNL     1       9.194   5.824   8.842  0.00  0.00    -0.245 OA
ATOM     25  C   UNL     1       9.873   5.053   8.153  0.00  0.00    +0.337 C 
BRANCH  25   3
ATOM      3  O   UNL     1      10.298   3.848   8.623  0.00  0.00    -0.477 OA
ATOM     26  H   UNL     1      11.095   3.531   8.146  0.00  0.00    +0.295 HD
ENDBRANCH  25   3
ENDBRANCH  22  25
ENDBRANCH  11  13
ENDBRANCH   5  11
TORSDOF 5
ENDMDL
MODEL 7
REMARK VINA RESULT:      -6.6     29.987     34.214
REMARK  Name = 45784171
REMARK  5 active torsions:
REMARK  status: ('A' for Active; 'I' for Inactive)
REMARK    1  A    between atoms: O_3  and  C_25
REMARK    2  A    between atoms: N_5  and  C_11
REMARK    3  A    between atoms: C_7  and  C_12
REMARK    4  A    between atoms: C_11  and  C_13
REMARK    5  A    between atoms: C_22  and  C_25
REMARK                            x       y       z     vdW  Elec       q    Type
REMARK                         _______ _______ _______ _____ _____    ______ ____
ROOT
ATOM      5  N   UNL     1     -17.054   3.957  25.958  0.00  0.00    -0.297 NA
ATOM      7  C   UNL     1     -16.324   4.674  23.849  0.00  0.00    +0.090 C 
ATOM      8  C   UNL     1     -15.717   3.295  24.162  0.00  0.00    +0.029 C 
ATOM      9  C   UNL     1     -16.834   5.190  25.201  0.00  0.00    +0.097 C 
ATOM     10  C   UNL     1     -15.890   3.121  25.665  0.00  0.00    +0.085 C 
ENDROOT
BRANCH   7  12
ATOM      1 CL   UNL     1     -12.072  10.103  20.669  0.00  0.00    -0.083 Cl
ATOM      2  O   UNL     1     -14.324   5.083  22.518  0.00  0.00    -0.439 OA
ATOM      6  N   UNL     1     -15.458   6.954  23.112  0.00  0.00    -0.213 NA
ATOM     12  C   UNL     1     -15.385   5.641  23.165  0.00  0.00    +0.201 A 
ATOM     14  C   UNL     1     -14.355   7.302  22.369  0.00  0.00    +0.111 A 
ATOM     15  C   UNL     1     -13.660   6.159  22.003  0.00  0.00    +0.155 A 
ATOM     18  C   UNL     1     -13.871   8.552  21.959  0.00  0.00    +0.051 A 
ATOM     19  C   UNL     1     -12.495   6.151  21.246  0.00  0.00    +0.050 A 
ATOM     23  C   UNL     1     -12.697   8.584  21.193  0.00  0.00    +0.043 A 
ATOM     24  C   UNL     1     -12.025   7.405  20.844  0.00  0.00    +0.024 A 
ENDBRANCH   7  12
BRANCH   5  11
ATOM     11  C   UNL     1     -17.216   4.201  27.384  0.00  0.00    +0.119 C 
BRANCH  11  13
ATOM     13  C   UNL     1     -16.485   3.181  28.215  0.00  0.00    -0.033 A 
ATOM     16  C   UNL     1     -16.935   1.861  28.252  0.00  0.00    +0.006 A 
ATOM     17  C   UNL     1     -15.358   3.554  28.947  0.00  0.00    +0.006 A 
ATOM     20  C   UNL     1     -16.258   0.915  29.022  0.00  0.00    +0.015 A 
ATOM     21  C   UNL     1     -14.682   2.608  29.716  0.00  0.00    +0.015 A 
ATOM     22  C   UNL     1     -15.131   1.288  29.754  0.00  0.00    +0.059 A 
BRANCH  22  25
ATOM      4  O   UNL     1     -14.921  -0.370  31.467  0.00  0.00    -0.245 OA
ATOM     25  C   UNL     1     -14.424   0.302  30.555  0.00  0.00    +0.337 C 
BRANCH  25   3
ATOM      3  O   UNL     1     -13.116   0.183  30.199  0.00  0.00    -0.477 OA
ATOM     26  H   UNL     1     -12.906  -0.721  29.880  0.00  0.00    +0.295 HD
ENDBRANCH  25   3
ENDBRANCH  22  25
ENDBRANCH  11  13
ENDBRANCH   5  11
TORSDOF 5
ENDMDL
MODEL 8
REMARK VINA RESULT:      -6.5     22.299     24.731
REMARK  Name = 45784171
REMARK  5 active torsions:
REMARK  status: ('A' for Active; 'I' for Inactive)
REMARK    1  A    between atoms: O_3  and  C_25
REMARK    2  A    between atoms: N_5  and  C_11
REMARK    3  A    between atoms: C_7  and  C_12
REMARK    4  A    between atoms: C_11  and  C_13
REMARK    5  A    between atoms: C_22  and  C_25
REMARK                            x       y       z     vdW  Elec       q    Type
REMARK                         _______ _______ _______ _____ _____    ______ ____
ROOT
ATOM      5  N   UNL     1      -2.703 -11.676  15.483  0.00  0.00    -0.297 NA
ATOM      7  C   UNL     1      -3.123 -12.470  13.317  0.00  0.00    +0.090 C 
ATOM      8  C   UNL     1      -1.606 -12.454  13.574  0.00  0.00    +0.029 C 
ATOM      9  C   UNL     1      -3.714 -11.592  14.428  0.00  0.00    +0.097 C 
ATOM     10  C   UNL     1      -1.422 -11.554  14.788  0.00  0.00    +0.085 C 
ENDROOT
BRANCH   7  12
ATOM      1 CL   UNL     1      -5.306 -10.998   6.194  0.00  0.00    -0.083 Cl
ATOM      2  O   UNL     1      -3.515 -10.683  11.707  0.00  0.00    -0.439 OA
ATOM      6  N   UNL     1      -3.916 -12.769  10.915  0.00  0.00    -0.213 NA
ATOM     12  C   UNL     1      -3.537 -12.026  11.933  0.00  0.00    +0.201 A 
ATOM     14  C   UNL     1      -4.169 -11.847   9.928  0.00  0.00    +0.111 A 
ATOM     15  C   UNL     1      -3.923 -10.569  10.409  0.00  0.00    +0.155 A 
ATOM     18  C   UNL     1      -4.604 -12.002   8.604  0.00  0.00    +0.051 A 
ATOM     19  C   UNL     1      -4.078  -9.403   9.670  0.00  0.00    +0.050 A 
ATOM     23  C   UNL     1      -4.772 -10.847   7.827  0.00  0.00    +0.043 A 
ATOM     24  C   UNL     1      -4.513  -9.574   8.351  0.00  0.00    +0.024 A 
ENDBRANCH   7  12
BRANCH   5  11
ATOM     11  C   UNL     1      -2.879 -10.656  16.505  0.00  0.00    +0.119 C 
BRANCH  11  13
ATOM     13  C   UNL     1      -4.105 -10.906  17.343  0.00  0.00    -0.033 A 
ATOM     16  C   UNL     1      -4.049 -11.808  18.406  0.00  0.00    +0.006 A 
ATOM     17  C   UNL     1      -5.295 -10.237  17.057  0.00  0.00    +0.006 A 
ATOM     20  C   UNL     1      -5.185 -12.040  19.182  0.00  0.00    +0.015 A 
ATOM     21  C   UNL     1      -6.429 -10.470  17.832  0.00  0.00    +0.015 A 
ATOM     22  C   UNL     1      -6.375 -11.372  18.896  0.00  0.00    +0.059 A 
BRANCH  22  25
ATOM      4  O   UNL     1      -7.830 -12.673  20.280  0.00  0.00    -0.245 OA
ATOM     25  C   UNL     1      -7.559 -11.612  19.705  0.00  0.00    +0.337 C 
BRANCH  25   3
ATOM      3  O   UNL     1      -8.373 -10.523  19.775  0.00  0.00    -0.477 OA
ATOM     26  H   UNL     1      -8.151  -9.951  20.540  0.00  0.00    +0.295 HD
ENDBRANCH  25   3
ENDBRANCH  22  25
ENDBRANCH  11  13
ENDBRANCH   5  11
TORSDOF 5
ENDMDL
MODEL 9
REMARK VINA RESULT:      -6.5     15.442     18.501
REMARK  Name = 45784171
REMARK  5 active torsions:
REMARK  status: ('A' for Active; 'I' for Inactive)
REMARK    1  A    between atoms: O_3  and  C_25
REMARK    2  A    between atoms: N_5  and  C_11
REMARK    3  A    between atoms: C_7  and  C_12
REMARK    4  A    between atoms: C_11  and  C_13
REMARK    5  A    between atoms: C_22  and  C_25
REMARK                            x       y       z     vdW  Elec       q    Type
REMARK                         _______ _______ _______ _____ _____    ______ ____
ROOT
ATOM      5  N   UNL     1      11.862   7.752  18.997  0.00  0.00    -0.297 NA
ATOM      7  C   UNL     1      13.663   6.715  20.083  0.00  0.00    +0.090 C 
ATOM      8  C   UNL     1      12.712   7.321  21.129  0.00  0.00    +0.029 C 
ATOM      9  C   UNL     1      13.257   7.376  18.759  0.00  0.00    +0.097 C 
ATOM     10  C   UNL     1      11.846   8.303  20.352  0.00  0.00    +0.085 C 
ENDROOT
BRANCH   7  12
ATOM      1 CL   UNL     1      20.847   8.113  22.107  0.00  0.00    -0.083 Cl
ATOM      2  O   UNL     1      15.972   6.000  19.771  0.00  0.00    -0.439 OA
ATOM      6  N   UNL     1      15.712   7.750  21.188  0.00  0.00    -0.213 NA
ATOM     12  C   UNL     1      15.133   6.875  20.393  0.00  0.00    +0.201 A 
ATOM     14  C   UNL     1      17.046   7.434  21.088  0.00  0.00    +0.111 A 
ATOM     15  C   UNL     1      17.208   6.364  20.221  0.00  0.00    +0.155 A 
ATOM     18  C   UNL     1      18.179   7.998  21.691  0.00  0.00    +0.051 A 
ATOM     19  C   UNL     1      18.431   5.790  19.894  0.00  0.00    +0.050 A 
ATOM     23  C   UNL     1      19.431   7.446  21.385  0.00  0.00    +0.043 A 
ATOM     24  C   UNL     1      19.552   6.364  20.503  0.00  0.00    +0.024 A 
ENDBRANCH   7  12
BRANCH   5  11
ATOM     11  C   UNL     1      11.363   8.696  18.008  0.00  0.00    +0.119 C 
BRANCH  11  13
ATOM     13  C   UNL     1      12.482   9.444  17.334  0.00  0.00    -0.033 A 
ATOM     16  C   UNL     1      13.190  10.421  18.036  0.00  0.00    +0.006 A 
ATOM     17  C   UNL     1      12.811   9.162  16.008  0.00  0.00    +0.006 A 
ATOM     20  C   UNL     1      14.226  11.114  17.410  0.00  0.00    +0.015 A 
ATOM     21  C   UNL     1      13.847   9.855  15.384  0.00  0.00    +0.015 A 
ATOM     22  C   UNL     1      14.555  10.832  16.084  0.00  0.00    +0.059 A 
BRANCH  22  25
ATOM      4  O   UNL     1      15.990  12.708  15.700  0.00  0.00    -0.245 OA
ATOM     25  C   UNL     1      15.636  11.553  15.433  0.00  0.00    +0.337 C 
BRANCH  25   3
ATOM      3  O   UNL     1      16.246  10.816  14.465  0.00  0.00    -0.477 OA
ATOM     26  H   UNL     1      17.188  11.066  14.355  0.00  0.00    +0.295 HD
ENDBRANCH  25   3
ENDBRANCH  22  25
ENDBRANCH  11  13
ENDBRANCH   5  11
TORSDOF 5
ENDMDL
MODEL 10
REMARK VINA RESULT:      -6.4      7.138     10.470
REMARK  Name = 45784171
REMARK  5 active torsions:
REMARK  status: ('A' for Active; 'I' for Inactive)
REMARK    1  A    between atoms: O_3  and  C_25
REMARK    2  A    between atoms: N_5  and  C_11
REMARK    3  A    between atoms: C_7  and  C_12
REMARK    4  A    between atoms: C_11  and  C_13
REMARK    5  A    between atoms: C_22  and  C_25
REMARK                            x       y       z     vdW  Elec       q    Type
REMARK                         _______ _______ _______ _____ _____    ______ ____
ROOT
ATOM      5  N   UNL     1      16.263   8.871   5.415  0.00  0.00    -0.297 NA
ATOM      7  C   UNL     1      14.207   7.752   5.273  0.00  0.00    +0.090 C 
ATOM      8  C   UNL     1      14.087   9.136   4.611  0.00  0.00    +0.029 C 
ATOM      9  C   UNL     1      15.496   7.828   6.101  0.00  0.00    +0.097 C 
ATOM     10  C   UNL     1      15.288   9.921   5.119  0.00  0.00    +0.085 C 
ENDROOT
BRANCH   7  12
ATOM      1 CL   UNL     1       8.651   5.146   9.745  0.00  0.00    -0.083 Cl
ATOM      2  O   UNL     1      11.836   7.963   5.794  0.00  0.00    -0.439 OA
ATOM      6  N   UNL     1      12.944   6.436   7.051  0.00  0.00    -0.213 NA
ATOM     12  C   UNL     1      13.007   7.333   6.090  0.00  0.00    +0.201 A 
ATOM     14  C   UNL     1      11.622   6.470   7.429  0.00  0.00    +0.111 A 
ATOM     15  C   UNL     1      10.942   7.403   6.660  0.00  0.00    +0.155 A 
ATOM     18  C   UNL     1      10.919   5.750   8.404  0.00  0.00    +0.051 A 
ATOM     19  C   UNL     1       9.587   7.690   6.782  0.00  0.00    +0.050 A 
ATOM     23  C   UNL     1       9.550   6.012   8.556  0.00  0.00    +0.043 A 
ATOM     24  C   UNL     1       8.899   6.963   7.759  0.00  0.00    +0.024 A 
ENDBRANCH   7  12
BRANCH   5  11
ATOM     11  C   UNL     1      17.377   9.358   6.214  0.00  0.00    +0.119 C 
BRANCH  11  13
ATOM     13  C   UNL     1      18.682   8.736   5.795  0.00  0.00    -0.033 A 
ATOM     16  C   UNL     1      18.850   8.287   4.484  0.00  0.00    +0.006 A 
ATOM     17  C   UNL     1      19.724   8.609   6.715  0.00  0.00    +0.006 A 
ATOM     20  C   UNL     1      20.060   7.711   4.095  0.00  0.00    +0.015 A 
ATOM     21  C   UNL     1      20.932   8.033   6.325  0.00  0.00    +0.015 A 
ATOM     22  C   UNL     1      21.101   7.583   5.015  0.00  0.00    +0.059 A 
BRANCH  22  25
ATOM      4  O   UNL     1      23.477   7.499   4.751  0.00  0.00    -0.245 OA
ATOM     25  C   UNL     1      22.362   6.984   4.610  0.00  0.00    +0.337 C 
BRANCH  25   3
ATOM      3  O   UNL     1      22.197   5.760   4.037  0.00  0.00    -0.477 OA
ATOM     26  H   UNL     1      22.862   5.594   3.336  0.00  0.00    +0.295 HD
ENDBRANCH  25   3
ENDBRANCH  22  25
ENDBRANCH  11  13
ENDBRANCH   5  11
TORSDOF 5
ENDMDL
