MODEL 1
REMARK VINA RESULT:      -6.8      0.000      0.000
REMARK  Name = 75537033
REMARK  4 active torsions:
REMARK  status: ('A' for Active; 'I' for Inactive)
REMARK    1  A    between atoms: N_5  and  C_15
REMARK    2  A    between atoms: N_7  and  C_22
REMARK    3  A    between atoms: C_15  and  C_17
REMARK    4  A    between atoms: C_16  and  C_18
REMARK                            x       y       z     vdW  Elec       q    Type
REMARK                         _______ _______ _______ _____ _____    ______ ____
ROOT
ATOM      2  O   UNL     1      10.643   8.507  19.960  0.00  0.00    -0.252 OA
ATOM      3  O   UNL     1      17.255   6.441  19.057  0.00  0.00    -0.270 OA
ATOM      4  N   UNL     1      12.964   8.344  20.289  0.00  0.00    -0.278 N 
ATOM      5  N   UNL     1      11.737   9.388  21.855  0.00  0.00    -0.276 N 
ATOM      6  N   UNL     1      15.463   7.134  20.388  0.00  0.00    -0.294 N 
ATOM      9  C   UNL     1      13.938   8.859  21.235  0.00  0.00    +0.112 C 
ATOM     10  C   UNL     1      13.085   9.372  22.392  0.00  0.00    +0.134 C 
ATOM     11  C   UNL     1      14.935   7.766  21.612  0.00  0.00    +0.132 C 
ATOM     12  C   UNL     1      13.411   7.624  19.109  0.00  0.00    +0.128 C 
ATOM     13  C   UNL     1      14.439   6.564  19.502  0.00  0.00    +0.127 C 
ATOM     14  C   UNL     1      11.654   8.722  20.616  0.00  0.00    +0.306 C 
ATOM     16  C   UNL     1      16.814   7.006  20.057  0.00  0.00    +0.247 C 
ENDROOT
BRANCH  16  18
ATOM      1 CL   UNL     1      20.858   9.428  23.734  0.00  0.00    -0.084 Cl
ATOM     18  C   UNL     1      17.807   7.601  20.959  0.00  0.00    +0.037 A 
ATOM     20  C   UNL     1      18.681   6.780  21.672  0.00  0.00    +0.014 A 
ATOM     21  C   UNL     1      17.876   8.986  21.104  0.00  0.00    +0.014 A 
ATOM     24  C   UNL     1      19.625   7.345  22.530  0.00  0.00    +0.021 A 
ATOM     25  C   UNL     1      18.819   9.552  21.963  0.00  0.00    +0.021 A 
ATOM     26  C   UNL     1      19.694   8.731  22.675  0.00  0.00    +0.041 A 
ENDBRANCH  16  18
BRANCH   5  15
ATOM     15  C   UNL     1      10.620   9.917  22.605  0.00  0.00    +0.183 C 
BRANCH  15  17
ATOM      7  N   UNL     1      11.267  12.306  23.040  0.00  0.00    -0.336 N 
ATOM      8  N   UNL     1      11.210  10.964  24.809  0.00  0.00    -0.239 NA
ATOM     17  C   UNL     1      11.031  11.044  23.509  0.00  0.00    +0.127 A 
ATOM     19  C   UNL     1      11.618  13.081  24.108  0.00  0.00    +0.106 A 
ATOM     22  C   UNL     1      11.168  12.755  21.671  0.00  0.00    +0.150 C 
ATOM     23  C   UNL     1      11.575  12.231  25.189  0.00  0.00    +0.130 A 
ENDBRANCH  15  17
ENDBRANCH   5  15
TORSDOF 3
ENDMDL
MODEL 2
REMARK VINA RESULT:      -6.7      5.692      7.808
REMARK  Name = 75537033
REMARK  4 active torsions:
REMARK  status: ('A' for Active; 'I' for Inactive)
REMARK    1  A    between atoms: N_5  and  C_15
REMARK    2  A    between atoms: N_7  and  C_22
REMARK    3  A    between atoms: C_15  and  C_17
REMARK    4  A    between atoms: C_16  and  C_18
REMARK                            x       y       z     vdW  Elec       q    Type
REMARK                         _______ _______ _______ _____ _____    ______ ____
ROOT
ATOM      2  O   UNL     1      12.702  11.686  13.752  0.00  0.00    -0.252 OA
ATOM      3  O   UNL     1      12.384   6.815  18.751  0.00  0.00    -0.270 OA
ATOM      4  N   UNL     1      13.392  10.277  15.502  0.00  0.00    -0.278 N 
ATOM      5  N   UNL     1      14.751  11.957  14.887  0.00  0.00    -0.276 N 
ATOM      6  N   UNL     1      13.183   8.823  17.860  0.00  0.00    -0.294 N 
ATOM      9  C   UNL     1      14.591  10.089  16.301  0.00  0.00    +0.112 C 
ATOM     10  C   UNL     1      15.408  11.350  16.031  0.00  0.00    +0.134 C 
ATOM     11  C   UNL     1      14.218   9.869  17.764  0.00  0.00    +0.132 C 
ATOM     12  C   UNL     1      12.290   9.338  15.619  0.00  0.00    +0.128 C 
ATOM     13  C   UNL     1      11.961   9.099  17.092  0.00  0.00    +0.127 C 
ATOM     14  C   UNL     1      13.514  11.346  14.603  0.00  0.00    +0.306 C 
ATOM     16  C   UNL     1      13.265   7.666  18.637  0.00  0.00    +0.247 C 
ENDROOT
BRANCH  16  18
ATOM      1 CL   UNL     1      18.323   6.657  21.661  0.00  0.00    -0.084 Cl
ATOM     18  C   UNL     1      14.507   7.418  19.380  0.00  0.00    +0.037 A 
ATOM     20  C   UNL     1      14.651   7.903  20.679  0.00  0.00    +0.014 A 
ATOM     21  C   UNL     1      15.543   6.697  18.785  0.00  0.00    +0.014 A 
ATOM     24  C   UNL     1      15.832   7.668  21.385  0.00  0.00    +0.021 A 
ATOM     25  C   UNL     1      16.723   6.462  19.490  0.00  0.00    +0.021 A 
ATOM     26  C   UNL     1      16.867   6.947  20.791  0.00  0.00    +0.041 A 
ENDBRANCH  16  18
BRANCH   5  15
ATOM     15  C   UNL     1      15.281  13.134  14.236  0.00  0.00    +0.183 C 
BRANCH  15  17
ATOM      7  N   UNL     1      17.458  12.709  13.056  0.00  0.00    -0.336 N 
ATOM      8  N   UNL     1      15.620  12.530  11.824  0.00  0.00    -0.239 NA
ATOM     17  C   UNL     1      16.094  12.789  13.022  0.00  0.00    +0.127 A 
ATOM     19  C   UNL     1      17.881  12.378  11.801  0.00  0.00    +0.106 A 
ATOM     22  C   UNL     1      18.311  12.931  14.200  0.00  0.00    +0.150 C 
ATOM     23  C   UNL     1      16.729  12.273  11.058  0.00  0.00    +0.130 A 
ENDBRANCH  15  17
ENDBRANCH   5  15
TORSDOF 3
ENDMDL
MODEL 3
REMARK VINA RESULT:      -6.6     27.820     30.668
REMARK  Name = 75537033
REMARK  4 active torsions:
REMARK  status: ('A' for Active; 'I' for Inactive)
REMARK    1  A    between atoms: N_5  and  C_15
REMARK    2  A    between atoms: N_7  and  C_22
REMARK    3  A    between atoms: C_15  and  C_17
REMARK    4  A    between atoms: C_16  and  C_18
REMARK                            x       y       z     vdW  Elec       q    Type
REMARK                         _______ _______ _______ _____ _____    ______ ____
ROOT
ATOM      2  O   UNL     1      -4.802 -11.633  18.984  0.00  0.00    -0.252 OA
ATOM      3  O   UNL     1     -11.527  -9.756  18.749  0.00  0.00    -0.270 OA
ATOM      4  N   UNL     1      -6.755 -10.518  18.302  0.00  0.00    -0.278 N 
ATOM      5  N   UNL     1      -4.925 -10.347  17.010  0.00  0.00    -0.276 N 
ATOM      6  N   UNL     1      -9.458 -10.180  17.750  0.00  0.00    -0.294 N 
ATOM      9  C   UNL     1      -7.130  -9.581  17.257  0.00  0.00    +0.112 C 
ATOM     10  C   UNL     1      -5.961  -9.642  16.278  0.00  0.00    +0.134 C 
ATOM     11  C   UNL     1      -8.482  -9.968  16.664  0.00  0.00    +0.132 C 
ATOM     12  C   UNL     1      -7.704 -10.850  19.351  0.00  0.00    +0.128 C 
ATOM     13  C   UNL     1      -9.062 -11.193  18.740  0.00  0.00    +0.127 C 
ATOM     14  C   UNL     1      -5.416 -10.919  18.201  0.00  0.00    +0.306 C 
ATOM     16  C   UNL     1     -10.696  -9.547  17.867  0.00  0.00    +0.247 C 
ENDROOT
BRANCH  16  18
ATOM      1 CL   UNL     1     -12.140  -5.411  13.799  0.00  0.00    -0.084 Cl
ATOM     18  C   UNL     1     -11.051  -8.531  16.868  0.00  0.00    +0.037 A 
ATOM     20  C   UNL     1     -11.829  -8.881  15.765  0.00  0.00    +0.014 A 
ATOM     21  C   UNL     1     -10.610  -7.217  17.023  0.00  0.00    +0.014 A 
ATOM     24  C   UNL     1     -12.165  -7.916  14.814  0.00  0.00    +0.021 A 
ATOM     25  C   UNL     1     -10.946  -6.252  16.074  0.00  0.00    +0.021 A 
ATOM     26  C   UNL     1     -11.724  -6.602  14.969  0.00  0.00    +0.041 A 
ENDBRANCH  16  18
BRANCH   5  15
ATOM     15  C   UNL     1      -3.595 -10.528  16.472  0.00  0.00    +0.183 C 
BRANCH  15  17
ATOM      7  N   UNL     1      -2.784 -11.576  14.338  0.00  0.00    -0.336 N 
ATOM      8  N   UNL     1      -4.179 -12.793  15.564  0.00  0.00    -0.239 NA
ATOM     17  C   UNL     1      -3.539 -11.649  15.475  0.00  0.00    +0.127 A 
ATOM     19  C   UNL     1      -2.953 -12.748  13.658  0.00  0.00    +0.106 A 
ATOM     22  C   UNL     1      -1.955 -10.471  13.917  0.00  0.00    +0.150 C 
ATOM     23  C   UNL     1      -3.818 -13.483  14.434  0.00  0.00    +0.130 A 
ENDBRANCH  15  17
ENDBRANCH   5  15
TORSDOF 3
ENDMDL
MODEL 4
REMARK VINA RESULT:      -6.6      2.946      7.654
REMARK  Name = 75537033
REMARK  4 active torsions:
REMARK  status: ('A' for Active; 'I' for Inactive)
REMARK    1  A    between atoms: N_5  and  C_15
REMARK    2  A    between atoms: N_7  and  C_22
REMARK    3  A    between atoms: C_15  and  C_17
REMARK    4  A    between atoms: C_16  and  C_18
REMARK                            x       y       z     vdW  Elec       q    Type
REMARK                         _______ _______ _______ _____ _____    ______ ____
ROOT
ATOM      2  O   UNL     1      18.073   6.419  19.862  0.00  0.00    -0.252 OA
ATOM      3  O   UNL     1      11.238   7.839  20.128  0.00  0.00    -0.270 OA
ATOM      4  N   UNL     1      16.062   7.460  20.492  0.00  0.00    -0.278 N 
ATOM      5  N   UNL     1      17.998   8.437  21.081  0.00  0.00    -0.276 N 
ATOM      6  N   UNL     1      13.489   8.464  20.194  0.00  0.00    -0.294 N 
ATOM      9  C   UNL     1      15.667   8.589  21.315  0.00  0.00    +0.112 C 
ATOM     10  C   UNL     1      16.968   9.359  21.526  0.00  0.00    +0.134 C 
ATOM     11  C   UNL     1      14.560   9.381  20.625  0.00  0.00    +0.132 C 
ATOM     12  C   UNL     1      15.050   6.569  19.951  0.00  0.00    +0.128 C 
ATOM     13  C   UNL     1      13.931   7.382  19.303  0.00  0.00    +0.127 C 
ATOM     14  C   UNL     1      17.455   7.322  20.412  0.00  0.00    +0.306 C 
ATOM     16  C   UNL     1      12.137   8.580  20.523  0.00  0.00    +0.247 C 
ENDROOT
BRANCH  16  18
ATOM      1 CL   UNL     1      10.501  12.997  24.205  0.00  0.00    -0.084 Cl
ATOM     18  C   UNL     1      11.735   9.664  21.427  0.00  0.00    +0.037 A 
ATOM     20  C   UNL     1      11.301   9.370  22.720  0.00  0.00    +0.014 A 
ATOM     21  C   UNL     1      11.788  10.989  20.994  0.00  0.00    +0.014 A 
ATOM     24  C   UNL     1      10.919  10.400  23.579  0.00  0.00    +0.021 A 
ATOM     25  C   UNL     1      11.406  12.020  21.852  0.00  0.00    +0.021 A 
ATOM     26  C   UNL     1      10.971  11.725  23.145  0.00  0.00    +0.041 A 
ENDBRANCH  16  18
BRANCH   5  15
ATOM     15  C   UNL     1      19.405   8.740  21.213  0.00  0.00    +0.183 C 
BRANCH  15  17
ATOM      7  N   UNL     1      20.958   6.902  21.938  0.00  0.00    -0.336 N 
ATOM      8  N   UNL     1      19.888   7.982  23.557  0.00  0.00    -0.239 NA
ATOM     17  C   UNL     1      20.069   7.890  22.258  0.00  0.00    +0.127 A 
ATOM     19  C   UNL     1      21.372   6.328  23.106  0.00  0.00    +0.106 A 
ATOM     22  C   UNL     1      21.393   6.522  20.614  0.00  0.00    +0.150 C 
ATOM     23  C   UNL     1      20.697   7.011  24.091  0.00  0.00    +0.130 A 
ENDBRANCH  15  17
ENDBRANCH   5  15
TORSDOF 3
ENDMDL
MODEL 5
REMARK VINA RESULT:      -6.5     27.726     29.774
REMARK  Name = 75537033
REMARK  4 active torsions:
REMARK  status: ('A' for Active; 'I' for Inactive)
REMARK    1  A    between atoms: N_5  and  C_15
REMARK    2  A    between atoms: N_7  and  C_22
REMARK    3  A    between atoms: C_15  and  C_17
REMARK    4  A    between atoms: C_16  and  C_18
REMARK                            x       y       z     vdW  Elec       q    Type
REMARK                         _______ _______ _______ _____ _____    ______ ____
ROOT
ATOM      2  O   UNL     1     -10.627 -10.490  19.000  0.00  0.00    -0.252 OA
ATOM      3  O   UNL     1      -3.757 -11.757  18.914  0.00  0.00    -0.270 OA
ATOM      4  N   UNL     1      -8.468 -10.871  18.154  0.00  0.00    -0.278 N 
ATOM      5  N   UNL     1     -10.050 -10.128  16.742  0.00  0.00    -0.276 N 
ATOM      6  N   UNL     1      -5.693 -10.766  18.058  0.00  0.00    -0.294 N 
ATOM      9  C   UNL     1      -7.826 -10.872  16.851  0.00  0.00    +0.112 C 
ATOM     10  C   UNL     1      -8.835 -10.168  15.948  0.00  0.00    +0.134 C 
ATOM     11  C   UNL     1      -6.462 -10.194  16.937  0.00  0.00    +0.132 C 
ATOM     12  C   UNL     1      -7.736 -11.329  19.322  0.00  0.00    +0.128 C 
ATOM     13  C   UNL     1      -6.357 -10.672  19.366  0.00  0.00    +0.127 C 
ATOM     14  C   UNL     1      -9.818 -10.500  18.081  0.00  0.00    +0.306 C 
ATOM     16  C   UNL     1      -4.415 -11.320  17.970  0.00  0.00    +0.247 C 
ENDROOT
BRANCH  16  18
ATOM      1 CL   UNL     1      -1.869 -11.685  12.574  0.00  0.00    -0.084 Cl
ATOM     18  C   UNL     1      -3.789 -11.410  16.645  0.00  0.00    +0.037 A 
ATOM     20  C   UNL     1      -2.791 -10.506  16.283  0.00  0.00    +0.014 A 
ATOM     21  C   UNL     1      -4.194 -12.399  15.749  0.00  0.00    +0.014 A 
ATOM     24  C   UNL     1      -2.197 -10.591  15.023  0.00  0.00    +0.021 A 
ATOM     25  C   UNL     1      -3.600 -12.484  14.490  0.00  0.00    +0.021 A 
ATOM     26  C   UNL     1      -2.601 -11.580  14.127  0.00  0.00    +0.041 A 
ENDBRANCH  16  18
BRANCH   5  15
ATOM     15  C   UNL     1     -11.297  -9.629  16.208  0.00  0.00    +0.183 C 
BRANCH  15  17
ATOM      7  N   UNL     1     -11.537  -7.563  14.799  0.00  0.00    -0.336 N 
ATOM      8  N   UNL     1     -10.993  -7.244  16.927  0.00  0.00    -0.239 NA
ATOM     17  C   UNL     1     -11.269  -8.141  16.007  0.00  0.00    +0.127 A 
ATOM     19  C   UNL     1     -11.427  -6.211  14.957  0.00  0.00    +0.106 A 
ATOM     22  C   UNL     1     -11.877  -8.241  13.569  0.00  0.00    +0.150 C 
ATOM     23  C   UNL     1     -11.091  -6.038  16.279  0.00  0.00    +0.130 A 
ENDBRANCH  15  17
ENDBRANCH   5  15
TORSDOF 3
ENDMDL
MODEL 6
REMARK VINA RESULT:      -6.5     27.151     29.338
REMARK  Name = 75537033
REMARK  4 active torsions:
REMARK  status: ('A' for Active; 'I' for Inactive)
REMARK    1  A    between atoms: N_5  and  C_15
REMARK    2  A    between atoms: N_7  and  C_22
REMARK    3  A    between atoms: C_15  and  C_17
REMARK    4  A    between atoms: C_16  and  C_18
REMARK                            x       y       z     vdW  Elec       q    Type
REMARK                         _______ _______ _______ _____ _____    ______ ____
ROOT
ATOM      2  O   UNL     1      -3.926 -11.649  18.100  0.00  0.00    -0.252 OA
ATOM      3  O   UNL     1      -0.941 -10.387  11.910  0.00  0.00    -0.270 OA
ATOM      4  N   UNL     1      -3.704 -11.373  15.777  0.00  0.00    -0.278 N 
ATOM      5  N   UNL     1      -5.774 -11.487  16.643  0.00  0.00    -0.276 N 
ATOM      6  N   UNL     1      -2.741 -10.306  13.399  0.00  0.00    -0.294 N 
ATOM      9  C   UNL     1      -4.586 -11.363  14.622  0.00  0.00    +0.112 C 
ATOM     10  C   UNL     1      -5.979 -11.224  15.230  0.00  0.00    +0.134 C 
ATOM     11  C   UNL     1      -4.190 -10.240  13.668  0.00  0.00    +0.132 C 
ATOM     12  C   UNL     1      -2.264 -11.339  15.588  0.00  0.00    +0.128 C 
ATOM     13  C   UNL     1      -1.892 -10.237  14.597  0.00  0.00    +0.127 C 
ATOM     14  C   UNL     1      -4.406 -11.523  16.981  0.00  0.00    +0.306 C 
ATOM     16  C   UNL     1      -2.150 -10.375  12.136  0.00  0.00    +0.247 C 
ENDROOT
BRANCH  16  18
ATOM      1 CL   UNL     1      -5.736 -10.705   7.363  0.00  0.00    -0.084 Cl
ATOM     18  C   UNL     1      -3.030 -10.456  10.964  0.00  0.00    +0.037 A 
ATOM     20  C   UNL     1      -3.334  -9.304  10.239  0.00  0.00    +0.014 A 
ATOM     21  C   UNL     1      -3.563 -11.686  10.575  0.00  0.00    +0.014 A 
ATOM     24  C   UNL     1      -4.171  -9.381   9.125  0.00  0.00    +0.021 A 
ATOM     25  C   UNL     1      -4.400 -11.763   9.462  0.00  0.00    +0.021 A 
ATOM     26  C   UNL     1      -4.704 -10.610   8.737  0.00  0.00    +0.041 A 
ENDBRANCH  16  18
BRANCH   5  15
ATOM     15  C   UNL     1      -6.876 -11.560  17.576  0.00  0.00    +0.183 C 
BRANCH  15  17
ATOM      7  N   UNL     1      -9.155 -10.849  16.796  0.00  0.00    -0.336 N 
ATOM      8  N   UNL     1      -7.798  -9.228  17.476  0.00  0.00    -0.239 NA
ATOM     17  C   UNL     1      -7.924 -10.524  17.292  0.00  0.00    +0.127 A 
ATOM     19  C   UNL     1      -9.860  -9.688  16.654  0.00  0.00    +0.106 A 
ATOM     22  C   UNL     1      -9.639 -12.171  16.475  0.00  0.00    +0.150 C 
ATOM     23  C   UNL     1      -9.002  -8.701  17.080  0.00  0.00    +0.130 A 
ENDBRANCH  15  17
ENDBRANCH   5  15
TORSDOF 3
ENDMDL
MODEL 7
REMARK VINA RESULT:      -6.4      5.048      7.369
REMARK  Name = 75537033
REMARK  4 active torsions:
REMARK  status: ('A' for Active; 'I' for Inactive)
REMARK    1  A    between atoms: N_5  and  C_15
REMARK    2  A    between atoms: N_7  and  C_22
REMARK    3  A    between atoms: C_15  and  C_17
REMARK    4  A    between atoms: C_16  and  C_18
REMARK                            x       y       z     vdW  Elec       q    Type
REMARK                         _______ _______ _______ _____ _____    ______ ____
ROOT
ATOM      2  O   UNL     1      14.904   9.081  14.538  0.00  0.00    -0.252 OA
ATOM      3  O   UNL     1      12.347   6.984  20.692  0.00  0.00    -0.270 OA
ATOM      4  N   UNL     1      14.185   9.179  16.773  0.00  0.00    -0.278 N 
ATOM      5  N   UNL     1      14.567  11.111  15.691  0.00  0.00    -0.276 N 
ATOM      6  N   UNL     1      12.641   8.571  19.001  0.00  0.00    -0.294 N 
ATOM      9  C   UNL     1      14.003  10.207  17.783  0.00  0.00    +0.112 C 
ATOM     10  C   UNL     1      14.054  11.509  16.989  0.00  0.00    +0.134 C 
ATOM     11  C   UNL     1      12.702   9.972  18.545  0.00  0.00    +0.132 C 
ATOM     12  C   UNL     1      14.042   7.779  17.132  0.00  0.00    +0.128 C 
ATOM     13  C   UNL     1      12.756   7.572  17.930  0.00  0.00    +0.127 C 
ATOM     14  C   UNL     1      14.595   9.710  15.542  0.00  0.00    +0.306 C 
ATOM     16  C   UNL     1      12.441   8.152  20.318  0.00  0.00    +0.247 C 
ENDROOT
BRANCH  16  18
ATOM      1 CL   UNL     1      12.051  12.332  24.574  0.00  0.00    -0.084 Cl
ATOM     18  C   UNL     1      12.345   9.178  21.363  0.00  0.00    +0.037 A 
ATOM     20  C   UNL     1      11.097   9.556  21.857  0.00  0.00    +0.014 A 
ATOM     21  C   UNL     1      13.503   9.775  21.863  0.00  0.00    +0.014 A 
ATOM     24  C   UNL     1      11.006  10.532  22.850  0.00  0.00    +0.021 A 
ATOM     25  C   UNL     1      13.412  10.751  22.855  0.00  0.00    +0.021 A 
ATOM     26  C   UNL     1      12.163  11.129  23.349  0.00  0.00    +0.041 A 
ENDBRANCH  16  18
BRANCH   5  15
ATOM     15  C   UNL     1      14.872  12.076  14.659  0.00  0.00    +0.183 C 
BRANCH  15  17
ATOM      7  N   UNL     1      13.134  13.795  14.079  0.00  0.00    -0.336 N 
ATOM      8  N   UNL     1      12.918  11.812  13.105  0.00  0.00    -0.239 NA
ATOM     17  C   UNL     1      13.638  12.534  13.934  0.00  0.00    +0.127 A 
ATOM     19  C   UNL     1      12.021  13.885  13.292  0.00  0.00    +0.106 A 
ATOM     22  C   UNL     1      13.666  14.852  14.907  0.00  0.00    +0.150 C 
ATOM     23  C   UNL     1      11.908  12.648  12.701  0.00  0.00    +0.130 A 
ENDBRANCH  15  17
ENDBRANCH   5  15
TORSDOF 3
ENDMDL
MODEL 8
REMARK VINA RESULT:      -6.3      4.056      5.397
REMARK  Name = 75537033
REMARK  4 active torsions:
REMARK  status: ('A' for Active; 'I' for Inactive)
REMARK    1  A    between atoms: N_5  and  C_15
REMARK    2  A    between atoms: N_7  and  C_22
REMARK    3  A    between atoms: C_15  and  C_17
REMARK    4  A    between atoms: C_16  and  C_18
REMARK                            x       y       z     vdW  Elec       q    Type
REMARK                         _______ _______ _______ _____ _____    ______ ____
ROOT
ATOM      2  O   UNL     1      10.303  11.971  24.663  0.00  0.00    -0.252 OA
ATOM      3  O   UNL     1      11.340   6.565  20.360  0.00  0.00    -0.270 OA
ATOM      4  N   UNL     1      10.983  10.767  22.763  0.00  0.00    -0.278 N 
ATOM      5  N   UNL     1      11.726  12.873  23.012  0.00  0.00    -0.276 N 
ATOM      6  N   UNL     1      11.957   8.614  21.301  0.00  0.00    -0.294 N 
ATOM      9  C   UNL     1      11.719  11.043  21.541  0.00  0.00    +0.112 C 
ATOM     10  C   UNL     1      12.391  12.385  21.818  0.00  0.00    +0.134 C 
ATOM     11  C   UNL     1      12.680   9.898  21.235  0.00  0.00    +0.132 C 
ATOM     12  C   UNL     1      10.328   9.482  22.938  0.00  0.00    +0.128 C 
ATOM     13  C   UNL     1      11.292   8.351  22.586  0.00  0.00    +0.127 C 
ATOM     14  C   UNL     1      10.922  11.882  23.610  0.00  0.00    +0.306 C 
ATOM     16  C   UNL     1      11.907   7.655  20.288  0.00  0.00    +0.247 C 
ENDROOT
BRANCH  16  18
ATOM      1 CL   UNL     1      14.610   8.894  15.102  0.00  0.00    -0.084 Cl
ATOM     18  C   UNL     1      12.571   7.958  19.015  0.00  0.00    +0.037 A 
ATOM     20  C   UNL     1      13.846   7.457  18.756  0.00  0.00    +0.014 A 
ATOM     21  C   UNL     1      11.926   8.749  18.064  0.00  0.00    +0.014 A 
ATOM     24  C   UNL     1      14.477   7.746  17.546  0.00  0.00    +0.021 A 
ATOM     25  C   UNL     1      12.557   9.039  16.854  0.00  0.00    +0.021 A 
ATOM     26  C   UNL     1      13.833   8.537  16.595  0.00  0.00    +0.041 A 
ENDBRANCH  16  18
BRANCH   5  15
ATOM     15  C   UNL     1      11.997  14.184  23.559  0.00  0.00    +0.183 C 
BRANCH  15  17
ATOM      7  N   UNL     1      14.257  14.167  24.657  0.00  0.00    -0.336 N 
ATOM      8  N   UNL     1      12.504  14.011  26.011  0.00  0.00    -0.239 NA
ATOM     17  C   UNL     1      12.895  14.118  24.761  0.00  0.00    +0.127 A 
ATOM     19  C   UNL     1      14.768  14.086  25.921  0.00  0.00    +0.106 A 
ATOM     22  C   UNL     1      15.030  14.284  23.443  0.00  0.00    +0.150 C 
ATOM     23  C   UNL     1      13.666  13.990  26.740  0.00  0.00    +0.130 A 
ENDBRANCH  15  17
ENDBRANCH   5  15
TORSDOF 3
ENDMDL
MODEL 9
REMARK VINA RESULT:      -6.2     27.609     29.566
REMARK  Name = 75537033
REMARK  4 active torsions:
REMARK  status: ('A' for Active; 'I' for Inactive)
REMARK    1  A    between atoms: N_5  and  C_15
REMARK    2  A    between atoms: N_7  and  C_22
REMARK    3  A    between atoms: C_15  and  C_17
REMARK    4  A    between atoms: C_16  and  C_18
REMARK                            x       y       z     vdW  Elec       q    Type
REMARK                         _______ _______ _______ _____ _____    ______ ____
ROOT
ATOM      2  O   UNL     1      -3.957 -10.301   9.210  0.00  0.00    -0.252 OA
ATOM      3  O   UNL     1      -1.582 -10.573  15.775  0.00  0.00    -0.270 OA
ATOM      4  N   UNL     1      -3.977 -10.357  11.559  0.00  0.00    -0.278 N 
ATOM      5  N   UNL     1      -5.919 -10.655  10.470  0.00  0.00    -0.276 N 
ATOM      6  N   UNL     1      -3.154 -11.065  14.117  0.00  0.00    -0.294 N 
ATOM      9  C   UNL     1      -4.979 -10.426  12.609  0.00  0.00    +0.112 C 
ATOM     10  C   UNL     1      -6.250 -10.840  11.871  0.00  0.00    +0.134 C 
ATOM     11  C   UNL     1      -4.531 -11.391  13.702  0.00  0.00    +0.132 C 
ATOM     12  C   UNL     1      -2.583 -10.137  11.904  0.00  0.00    +0.128 C 
ATOM     13  C   UNL     1      -2.166 -11.083  13.029  0.00  0.00    +0.127 C 
ATOM     14  C   UNL     1      -4.543 -10.418  10.278  0.00  0.00    +0.306 C 
ATOM     16  C   UNL     1      -2.738 -10.802  15.424  0.00  0.00    +0.247 C 
ENDROOT
BRANCH  16  18
ATOM      1 CL   UNL     1      -6.880 -10.709  19.734  0.00  0.00    -0.084 Cl
ATOM     18  C   UNL     1      -3.755 -10.779  16.482  0.00  0.00    +0.037 A 
ATOM     20  C   UNL     1      -4.869  -9.948  16.361  0.00  0.00    +0.014 A 
ATOM     21  C   UNL     1      -3.608 -11.589  17.608  0.00  0.00    +0.014 A 
ATOM     24  C   UNL     1      -5.835  -9.926  17.367  0.00  0.00    +0.021 A 
ATOM     25  C   UNL     1      -4.574 -11.567  18.614  0.00  0.00    +0.021 A 
ATOM     26  C   UNL     1      -5.688 -10.736  18.493  0.00  0.00    +0.041 A 
ENDBRANCH  16  18
BRANCH   5  15
ATOM     15  C   UNL     1      -6.898 -10.838   9.421  0.00  0.00    +0.183 C 
BRANCH  15  17
ATOM      7  N   UNL     1      -7.217  -9.026   7.710  0.00  0.00    -0.336 N 
ATOM      8  N   UNL     1      -8.260  -8.742   9.649  0.00  0.00    -0.239 NA
ATOM     17  C   UNL     1      -7.472  -9.531   8.954  0.00  0.00    +0.127 A 
ATOM     19  C   UNL     1      -7.883  -7.839   7.604  0.00  0.00    +0.106 A 
ATOM     22  C   UNL     1      -6.396  -9.624   6.683  0.00  0.00    +0.150 C 
ATOM     23  C   UNL     1      -8.520  -7.685   8.814  0.00  0.00    +0.130 A 
ENDBRANCH  15  17
ENDBRANCH   5  15
TORSDOF 3
ENDMDL
MODEL 10
REMARK VINA RESULT:      -6.2      3.043      7.548
REMARK  Name = 75537033
REMARK  4 active torsions:
REMARK  status: ('A' for Active; 'I' for Inactive)
REMARK    1  A    between atoms: N_5  and  C_15
REMARK    2  A    between atoms: N_7  and  C_22
REMARK    3  A    between atoms: C_15  and  C_17
REMARK    4  A    between atoms: C_16  and  C_18
REMARK                            x       y       z     vdW  Elec       q    Type
REMARK                         _______ _______ _______ _____ _____    ______ ____
ROOT
ATOM      2  O   UNL     1      16.650   6.821  20.781  0.00  0.00    -0.252 OA
ATOM      3  O   UNL     1      10.211   8.956  22.452  0.00  0.00    -0.270 OA
ATOM      4  N   UNL     1      14.931   8.174  21.640  0.00  0.00    -0.278 N 
ATOM      5  N   UNL     1      16.991   9.054  21.459  0.00  0.00    -0.276 N 
ATOM      6  N   UNL     1      12.416   9.346  21.784  0.00  0.00    -0.294 N 
ATOM      9  C   UNL     1      14.821   9.492  22.243  0.00  0.00    +0.112 C 
ATOM     10  C   UNL     1      16.160  10.151  21.920  0.00  0.00    +0.134 C 
ATOM     11  C   UNL     1      13.599  10.222  21.692  0.00  0.00    +0.132 C 
ATOM     12  C   UNL     1      13.775   7.295  21.607  0.00  0.00    +0.128 C 
ATOM     13  C   UNL     1      12.554   8.056  21.094  0.00  0.00    +0.127 C 
ATOM     14  C   UNL     1      16.242   7.881  21.239  0.00  0.00    +0.306 C 
ATOM     16  C   UNL     1      11.212   9.669  22.413  0.00  0.00    +0.247 C 
ENDROOT
BRANCH  16  18
ATOM      1 CL   UNL     1      10.825  14.930  25.227  0.00  0.00    -0.084 Cl
ATOM     18  C   UNL     1      11.117  10.961  23.104  0.00  0.00    +0.037 A 
ATOM     20  C   UNL     1      11.009  12.140  22.367  0.00  0.00    +0.014 A 
ATOM     21  C   UNL     1      11.134  11.009  24.498  0.00  0.00    +0.014 A 
ATOM     24  C   UNL     1      10.919  13.368  23.023  0.00  0.00    +0.021 A 
ATOM     25  C   UNL     1      11.044  12.236  25.155  0.00  0.00    +0.021 A 
ATOM     26  C   UNL     1      10.936  13.416  24.417  0.00  0.00    +0.041 A 
ENDBRANCH  16  18
BRANCH   5  15
ATOM     15  C   UNL     1      18.391   9.233  21.147  0.00  0.00    +0.183 C 
BRANCH  15  17
ATOM      7  N   UNL     1      19.815   8.183  22.932  0.00  0.00    -0.336 N 
ATOM      8  N   UNL     1      19.527  10.381  23.069  0.00  0.00    -0.239 NA
ATOM     17  C   UNL     1      19.240   9.296  22.385  0.00  0.00    +0.127 A 
ATOM     19  C   UNL     1      20.513   8.583  24.036  0.00  0.00    +0.106 A 
ATOM     22  C   UNL     1      19.713   6.827  22.446  0.00  0.00    +0.150 C 
ATOM     23  C   UNL     1      20.320   9.943  24.100  0.00  0.00    +0.130 A 
ENDBRANCH  15  17
ENDBRANCH   5  15
TORSDOF 3
ENDMDL
