MODEL 1
REMARK VINA RESULT:      -7.1      0.000      0.000
REMARK  Name = 40587807
REMARK  6 active torsions:
REMARK  status: ('A' for Active; 'I' for Inactive)
REMARK    1  A    between atoms: N_5  and  C_22
REMARK    2  A    between atoms: N_6  and  C_23
REMARK    3  A    between atoms: N_6  and  C_31
REMARK    4  A    between atoms: N_6  and  C_32
REMARK    5  A    between atoms: C_17  and  C_19
REMARK    6  A    between atoms: C_20  and  C_23
REMARK                            x       y       z     vdW  Elec       q    Type
REMARK                         _______ _______ _______ _____ _____    ______ ____
ROOT
ATOM      1  O   UNL     1      11.643   7.275   1.675  0.00  0.00    -0.267 OA
ATOM      2  O   UNL     1      12.396   6.443   7.372  0.00  0.00    -0.252 OA
ATOM      3  N   UNL     1      10.321   6.615   3.480  0.00  0.00    -0.311 N 
ATOM      4  N   UNL     1      10.483   7.459   6.556  0.00  0.00    -0.284 N 
ATOM      5  N   UNL     1      12.495   8.676   6.754  0.00  0.00    -0.269 N 
ATOM      7  C   UNL     1       8.881   8.264   4.805  0.00  0.00    +0.027 C 
ATOM      8  C   UNL     1       8.909   5.889   5.435  0.00  0.00    +0.054 C 
ATOM      9  C   UNL     1       7.992   7.058   5.083  0.00  0.00    +0.018 C 
ATOM     10  C   UNL     1       9.745   7.964   3.574  0.00  0.00    +0.130 C 
ATOM     11  C   UNL     1       9.738   8.617   6.037  0.00  0.00    +0.114 C 
ATOM     12  C   UNL     1       9.694   6.231   6.714  0.00  0.00    +0.119 C 
ATOM     13  C   UNL     1       9.875   5.582   4.307  0.00  0.00    +0.027 A 
ATOM     14  C   UNL     1      10.325   4.331   4.122  0.00  0.00    +0.022 A 
ATOM     15  C   UNL     1      11.255   6.396   2.448  0.00  0.00    +0.259 A 
ATOM     16  C   UNL     1      11.847   7.453   6.923  0.00  0.00    +0.306 C 
ATOM     17  C   UNL     1      11.773   4.992   2.293  0.00  0.00    +0.047 A 
ATOM     18  C   UNL     1      11.293   4.037   3.104  0.00  0.00    +0.015 A 
ATOM     34  H   UNL     1      11.948   9.524   6.862  0.00  0.00    +0.156 HD
ENDROOT
BRANCH  17  19
ATOM     19  C   UNL     1      12.793   4.662   1.283  0.00  0.00    -0.008 A 
ATOM     20  C   UNL     1      12.435   4.293  -0.014  0.00  0.00    -0.026 A 
ATOM     21  C   UNL     1      14.138   4.723   1.645  0.00  0.00    +0.009 A 
ATOM     24  C   UNL     1      13.424   3.986  -0.949  0.00  0.00    +0.005 A 
ATOM     25  C   UNL     1      15.127   4.415   0.710  0.00  0.00    +0.001 A 
ATOM     26  C   UNL     1      14.770   4.046  -0.587  0.00  0.00    +0.000 A 
BRANCH  20  23
ATOM     23  C   UNL     1      11.004   4.218  -0.438  0.00  0.00    +0.119 C 
BRANCH  23   6
ATOM      6  N   UNL     1      10.711   5.108  -1.560  0.00  0.00    -0.304 NA
ATOM     31  C   UNL     1       9.788   6.163  -1.148  0.00  0.00    +0.104 C 
ATOM     32  C   UNL     1      10.156   4.351  -2.682  0.00  0.00    +0.104 C 
ENDBRANCH  23   6
ENDBRANCH  20  23
ENDBRANCH  17  19
BRANCH   5  22
ATOM     22  C   UNL     1      13.864   8.887   6.455  0.00  0.00    +0.035 A 
ATOM     27  C   UNL     1      14.439  10.139   6.672  0.00  0.00    +0.023 A 
ATOM     28  C   UNL     1      14.635   7.843   5.946  0.00  0.00    +0.023 A 
ATOM     29  C   UNL     1      15.787  10.347   6.377  0.00  0.00    +0.002 A 
ATOM     30  C   UNL     1      15.982   8.051   5.651  0.00  0.00    +0.002 A 
ATOM     33  C   UNL     1      16.558   9.303   5.868  0.00  0.00    +0.000 A 
ENDBRANCH   5  22
TORSDOF 4
ENDMDL
MODEL 2
REMARK VINA RESULT:      -6.9     26.223     29.553
REMARK  Name = 40587807
REMARK  6 active torsions:
REMARK  status: ('A' for Active; 'I' for Inactive)
REMARK    1  A    between atoms: N_5  and  C_22
REMARK    2  A    between atoms: N_6  and  C_23
REMARK    3  A    between atoms: N_6  and  C_31
REMARK    4  A    between atoms: N_6  and  C_32
REMARK    5  A    between atoms: C_17  and  C_19
REMARK    6  A    between atoms: C_20  and  C_23
REMARK                            x       y       z     vdW  Elec       q    Type
REMARK                         _______ _______ _______ _____ _____    ______ ____
ROOT
ATOM      1  O   UNL     1      -7.604  -8.901  17.076  0.00  0.00    -0.267 OA
ATOM      2  O   UNL     1      -5.355 -13.007  13.642  0.00  0.00    -0.252 OA
ATOM      3  N   UNL     1      -6.643 -11.007  17.360  0.00  0.00    -0.311 N 
ATOM      4  N   UNL     1      -4.364 -12.467  15.662  0.00  0.00    -0.284 N 
ATOM      5  N   UNL     1      -4.042 -11.100  13.765  0.00  0.00    -0.269 N 
ATOM      7  C   UNL     1      -4.158 -11.326  17.884  0.00  0.00    +0.027 C 
ATOM      8  C   UNL     1      -5.617 -13.289  17.650  0.00  0.00    +0.054 C 
ATOM      9  C   UNL     1      -4.605 -12.611  18.570  0.00  0.00    +0.018 C 
ATOM     10  C   UNL     1      -5.368 -10.392  17.755  0.00  0.00    +0.130 C 
ATOM     11  C   UNL     1      -3.513 -11.623  16.516  0.00  0.00    +0.114 C 
ATOM     12  C   UNL     1      -4.929 -13.650  16.322  0.00  0.00    +0.119 C 
ATOM     13  C   UNL     1      -6.811 -12.393  17.383  0.00  0.00    +0.027 A 
ATOM     14  C   UNL     1      -8.018 -12.928  17.136  0.00  0.00    +0.022 A 
ATOM     15  C   UNL     1      -7.705 -10.129  17.068  0.00  0.00    +0.259 A 
ATOM     16  C   UNL     1      -4.646 -12.238  14.296  0.00  0.00    +0.306 C 
ATOM     17  C   UNL     1      -9.036 -10.761  16.756  0.00  0.00    +0.047 A 
ATOM     18  C   UNL     1      -9.142 -12.096  16.813  0.00  0.00    +0.015 A 
ATOM     34  H   UNL     1      -3.149 -10.811  14.150  0.00  0.00    +0.156 HD
ENDROOT
BRANCH  17  19
ATOM     19  C   UNL     1     -10.201  -9.939  16.384  0.00  0.00    -0.008 A 
ATOM     20  C   UNL     1     -11.041  -9.393  17.354  0.00  0.00    -0.026 A 
ATOM     21  C   UNL     1     -10.457  -9.714  15.032  0.00  0.00    +0.009 A 
ATOM     24  C   UNL     1     -12.137  -8.621  16.971  0.00  0.00    +0.005 A 
ATOM     25  C   UNL     1     -11.554  -8.942  14.649  0.00  0.00    +0.001 A 
ATOM     26  C   UNL     1     -12.395  -8.395  15.619  0.00  0.00    +0.000 A 
BRANCH  20  23
ATOM     23  C   UNL     1     -10.797  -9.613  18.813  0.00  0.00    +0.119 C 
BRANCH  23   6
ATOM      6  N   UNL     1     -11.727 -10.582  19.389  0.00  0.00    -0.304 NA
ATOM     31  C   UNL     1     -12.592  -9.937  20.375  0.00  0.00    +0.104 C 
ATOM     32  C   UNL     1     -10.996 -11.693  19.998  0.00  0.00    +0.104 C 
ENDBRANCH  23   6
ENDBRANCH  20  23
ENDBRANCH  17  19
BRANCH   5  22
ATOM     22  C   UNL     1      -4.528 -10.283  12.715  0.00  0.00    +0.035 A 
ATOM     27  C   UNL     1      -3.754 -10.083  11.572  0.00  0.00    +0.023 A 
ATOM     28  C   UNL     1      -5.780  -9.678  12.825  0.00  0.00    +0.023 A 
ATOM     29  C   UNL     1      -4.232  -9.277  10.538  0.00  0.00    +0.002 A 
ATOM     30  C   UNL     1      -6.258  -8.872  11.792  0.00  0.00    +0.002 A 
ATOM     33  C   UNL     1      -5.485  -8.673  10.648  0.00  0.00    +0.000 A 
ENDBRANCH   5  22
TORSDOF 4
ENDMDL
MODEL 3
REMARK VINA RESULT:      -6.8      1.622      2.824
REMARK  Name = 40587807
REMARK  6 active torsions:
REMARK  status: ('A' for Active; 'I' for Inactive)
REMARK    1  A    between atoms: N_5  and  C_22
REMARK    2  A    between atoms: N_6  and  C_23
REMARK    3  A    between atoms: N_6  and  C_31
REMARK    4  A    between atoms: N_6  and  C_32
REMARK    5  A    between atoms: C_17  and  C_19
REMARK    6  A    between atoms: C_20  and  C_23
REMARK                            x       y       z     vdW  Elec       q    Type
REMARK                         _______ _______ _______ _____ _____    ______ ____
ROOT
ATOM      1  O   UNL     1       9.969   7.912   2.581  0.00  0.00    -0.267 OA
ATOM      2  O   UNL     1      13.573   6.578   6.933  0.00  0.00    -0.252 OA
ATOM      3  N   UNL     1       9.783   6.963   4.703  0.00  0.00    -0.311 N 
ATOM      4  N   UNL     1      11.492   7.503   7.347  0.00  0.00    -0.284 N 
ATOM      5  N   UNL     1      13.291   8.862   6.649  0.00  0.00    -0.269 N 
ATOM      7  C   UNL     1       9.199   8.341   6.780  0.00  0.00    +0.027 C 
ATOM      8  C   UNL     1       9.600   5.926   6.990  0.00  0.00    +0.054 C 
ATOM      9  C   UNL     1       8.608   7.041   7.311  0.00  0.00    +0.018 C 
ATOM     10  C   UNL     1       9.310   8.242   5.253  0.00  0.00    +0.130 C 
ATOM     11  C   UNL     1      10.561   8.640   7.436  0.00  0.00    +0.114 C 
ATOM     12  C   UNL     1      10.924   6.202   7.723  0.00  0.00    +0.119 C 
ATOM     13  C   UNL     1       9.850   5.818   5.499  0.00  0.00    +0.027 A 
ATOM     14  C   UNL     1      10.167   4.635   4.949  0.00  0.00    +0.022 A 
ATOM     15  C   UNL     1      10.054   6.931   3.321  0.00  0.00    +0.259 A 
ATOM     16  C   UNL     1      12.850   7.577   6.962  0.00  0.00    +0.306 C 
ATOM     17  C   UNL     1      10.448   5.598   2.742  0.00  0.00    +0.047 A 
ATOM     18  C   UNL     1      10.476   4.529   3.551  0.00  0.00    +0.015 A 
ATOM     34  H   UNL     1      12.860   9.644   7.130  0.00  0.00    +0.156 HD
ENDROOT
BRANCH  17  19
ATOM     19  C   UNL     1      10.806   5.461   1.320  0.00  0.00    -0.008 A 
ATOM     20  C   UNL     1      12.129   5.577   0.892  0.00  0.00    -0.026 A 
ATOM     21  C   UNL     1       9.793   5.213   0.395  0.00  0.00    +0.009 A 
ATOM     24  C   UNL     1      12.437   5.443  -0.462  0.00  0.00    +0.005 A 
ATOM     25  C   UNL     1      10.102   5.080  -0.959  0.00  0.00    +0.001 A 
ATOM     26  C   UNL     1      11.424   5.195  -1.388  0.00  0.00    +0.000 A 
BRANCH  20  23
ATOM     23  C   UNL     1      13.241   5.842   1.855  0.00  0.00    +0.119 C 
BRANCH  23   6
ATOM      6  N   UNL     1      14.552   5.541   1.282  0.00  0.00    -0.304 NA
ATOM     31  C   UNL     1      15.008   4.221   1.714  0.00  0.00    +0.104 C 
ATOM     32  C   UNL     1      15.523   6.567   1.661  0.00  0.00    +0.104 C 
ENDBRANCH  23   6
ENDBRANCH  20  23
ENDBRANCH  17  19
BRANCH   5  22
ATOM     22  C   UNL     1      14.304   9.218   5.725  0.00  0.00    +0.035 A 
ATOM     27  C   UNL     1      15.607   9.440   6.171  0.00  0.00    +0.023 A 
ATOM     28  C   UNL     1      13.999   9.346   4.370  0.00  0.00    +0.023 A 
ATOM     29  C   UNL     1      16.605   9.792   5.261  0.00  0.00    +0.002 A 
ATOM     30  C   UNL     1      14.996   9.698   3.461  0.00  0.00    +0.002 A 
ATOM     33  C   UNL     1      16.299   9.920   3.906  0.00  0.00    +0.000 A 
ENDBRANCH   5  22
TORSDOF 4
ENDMDL
MODEL 4
REMARK VINA RESULT:      -6.8      2.396      7.824
REMARK  Name = 40587807
REMARK  6 active torsions:
REMARK  status: ('A' for Active; 'I' for Inactive)
REMARK    1  A    between atoms: N_5  and  C_22
REMARK    2  A    between atoms: N_6  and  C_23
REMARK    3  A    between atoms: N_6  and  C_31
REMARK    4  A    between atoms: N_6  and  C_32
REMARK    5  A    between atoms: C_17  and  C_19
REMARK    6  A    between atoms: C_20  and  C_23
REMARK                            x       y       z     vdW  Elec       q    Type
REMARK                         _______ _______ _______ _____ _____    ______ ____
ROOT
ATOM      1  O   UNL     1      12.251   7.606   3.008  0.00  0.00    -0.267 OA
ATOM      2  O   UNL     1      11.368   4.555  -1.852  0.00  0.00    -0.252 OA
ATOM      3  N   UNL     1      12.819   5.489   2.210  0.00  0.00    -0.311 N 
ATOM      4  N   UNL     1      13.415   4.514  -0.773  0.00  0.00    -0.284 N 
ATOM      5  N   UNL     1      12.820   6.339  -2.145  0.00  0.00    -0.269 N 
ATOM      7  C   UNL     1      15.053   5.006   1.059  0.00  0.00    +0.027 C 
ATOM      8  C   UNL     1      13.411   3.200   1.342  0.00  0.00    +0.054 C 
ATOM      9  C   UNL     1      14.866   3.589   1.588  0.00  0.00    +0.018 C 
ATOM     10  C   UNL     1      14.173   5.956   1.880  0.00  0.00    +0.130 C 
ATOM     11  C   UNL     1      14.733   5.082  -0.446  0.00  0.00    +0.114 C 
ATOM     12  C   UNL     1      13.137   3.203  -0.172  0.00  0.00    +0.119 C 
ATOM     13  C   UNL     1      12.457   4.151   2.039  0.00  0.00    +0.027 A 
ATOM     14  C   UNL     1      11.257   3.720   2.460  0.00  0.00    +0.022 A 
ATOM     15  C   UNL     1      11.953   6.427   2.806  0.00  0.00    +0.259 A 
ATOM     16  C   UNL     1      12.445   5.108  -1.611  0.00  0.00    +0.306 C 
ATOM     17  C   UNL     1      10.600   5.923   3.230  0.00  0.00    +0.047 A 
ATOM     18  C   UNL     1      10.316   4.623   3.058  0.00  0.00    +0.015 A 
ATOM     34  H   UNL     1      13.806   6.500  -2.323  0.00  0.00    +0.156 HD
ENDROOT
BRANCH  17  19
ATOM     19  C   UNL     1       9.596   6.830   3.813  0.00  0.00    -0.008 A 
ATOM     20  C   UNL     1       9.323   6.825   5.181  0.00  0.00    -0.026 A 
ATOM     21  C   UNL     1       8.913   7.704   2.968  0.00  0.00    +0.009 A 
ATOM     24  C   UNL     1       8.366   7.695   5.703  0.00  0.00    +0.005 A 
ATOM     25  C   UNL     1       7.955   8.573   3.491  0.00  0.00    +0.001 A 
ATOM     26  C   UNL     1       7.681   8.569   4.859  0.00  0.00    +0.000 A 
BRANCH  20  23
ATOM     23  C   UNL     1      10.036   5.902   6.116  0.00  0.00    +0.119 C 
BRANCH  23   6
ATOM      6  N   UNL     1      10.649   6.615   7.236  0.00  0.00    -0.304 NA
ATOM     31  C   UNL     1      12.048   6.920   6.943  0.00  0.00    +0.104 C 
ATOM     32  C   UNL     1      10.543   5.827   8.464  0.00  0.00    +0.104 C 
ENDBRANCH  23   6
ENDBRANCH  20  23
ENDBRANCH  17  19
BRANCH   5  22
ATOM     22  C   UNL     1      11.970   7.417  -2.494  0.00  0.00    +0.035 A 
ATOM     27  C   UNL     1      11.705   7.689  -3.836  0.00  0.00    +0.023 A 
ATOM     28  C   UNL     1      11.399   8.206  -1.496  0.00  0.00    +0.023 A 
ATOM     29  C   UNL     1      10.869   8.752  -4.179  0.00  0.00    +0.002 A 
ATOM     30  C   UNL     1      10.563   9.268  -1.839  0.00  0.00    +0.002 A 
ATOM     33  C   UNL     1      10.297   9.540  -3.181  0.00  0.00    +0.000 A 
ENDBRANCH   5  22
TORSDOF 4
ENDMDL
MODEL 5
REMARK VINA RESULT:      -6.8     25.555     28.727
REMARK  Name = 40587807
REMARK  6 active torsions:
REMARK  status: ('A' for Active; 'I' for Inactive)
REMARK    1  A    between atoms: N_5  and  C_22
REMARK    2  A    between atoms: N_6  and  C_23
REMARK    3  A    between atoms: N_6  and  C_31
REMARK    4  A    between atoms: N_6  and  C_32
REMARK    5  A    between atoms: C_17  and  C_19
REMARK    6  A    between atoms: C_20  and  C_23
REMARK                            x       y       z     vdW  Elec       q    Type
REMARK                         _______ _______ _______ _____ _____    ______ ____
ROOT
ATOM      1  O   UNL     1      -7.457  -8.797  16.983  0.00  0.00    -0.267 OA
ATOM      2  O   UNL     1      -5.255 -12.991  13.626  0.00  0.00    -0.252 OA
ATOM      3  N   UNL     1      -6.551 -10.922  17.303  0.00  0.00    -0.311 N 
ATOM      4  N   UNL     1      -4.282 -12.452  15.656  0.00  0.00    -0.284 N 
ATOM      5  N   UNL     1      -3.899 -11.114  13.750  0.00  0.00    -0.269 N 
ATOM      7  C   UNL     1      -4.082 -11.293  17.868  0.00  0.00    +0.027 C 
ATOM      8  C   UNL     1      -5.584 -13.223  17.632  0.00  0.00    +0.054 C 
ATOM      9  C   UNL     1      -4.570 -12.560  18.561  0.00  0.00    +0.018 C 
ATOM     10  C   UNL     1      -5.267 -10.332  17.711  0.00  0.00    +0.130 C 
ATOM     11  C   UNL     1      -3.424 -11.619  16.514  0.00  0.00    +0.114 C 
ATOM     12  C   UNL     1      -4.884 -13.615  16.319  0.00  0.00    +0.119 C 
ATOM     13  C   UNL     1      -6.752 -12.303  17.338  0.00  0.00    +0.027 A 
ATOM     14  C   UNL     1      -7.967 -12.812  17.078  0.00  0.00    +0.022 A 
ATOM     15  C   UNL     1      -7.588 -10.022  16.986  0.00  0.00    +0.259 A 
ATOM     16  C   UNL     1      -4.538 -12.232  14.283  0.00  0.00    +0.306 C 
ATOM     17  C   UNL     1      -8.928 -10.625  16.660  0.00  0.00    +0.047 A 
ATOM     18  C   UNL     1      -9.066 -11.958  16.729  0.00  0.00    +0.015 A 
ATOM     34  H   UNL     1      -3.005 -10.842  14.145  0.00  0.00    +0.156 HD
ENDROOT
BRANCH  17  19
ATOM     19  C   UNL     1     -10.067  -9.781  16.262  0.00  0.00    -0.008 A 
ATOM     20  C   UNL     1     -10.170  -9.265  14.969  0.00  0.00    -0.026 A 
ATOM     21  C   UNL     1     -11.054  -9.499  17.206  0.00  0.00    +0.009 A 
ATOM     24  C   UNL     1     -11.260  -8.468  14.622  0.00  0.00    +0.005 A 
ATOM     25  C   UNL     1     -12.144  -8.701  16.858  0.00  0.00    +0.001 A 
ATOM     26  C   UNL     1     -12.248  -8.185  15.566  0.00  0.00    +0.000 A 
BRANCH  20  23
ATOM     23  C   UNL     1      -9.132  -9.547  13.931  0.00  0.00    +0.119 C 
BRANCH  23   6
ATOM      6  N   UNL     1      -9.567 -10.564  12.976  0.00  0.00    -0.304 NA
ATOM     31  C   UNL     1      -8.681 -11.727  13.028  0.00  0.00    +0.104 C 
ATOM     32  C   UNL     1      -9.606 -10.011  11.622  0.00  0.00    +0.104 C 
ENDBRANCH  23   6
ENDBRANCH  20  23
ENDBRANCH  17  19
BRANCH   5  22
ATOM     22  C   UNL     1      -4.350 -10.297  12.684  0.00  0.00    +0.035 A 
ATOM     27  C   UNL     1      -3.560 -10.138  11.545  0.00  0.00    +0.023 A 
ATOM     28  C   UNL     1      -5.582  -9.651  12.774  0.00  0.00    +0.023 A 
ATOM     29  C   UNL     1      -4.003  -9.332  10.496  0.00  0.00    +0.002 A 
ATOM     30  C   UNL     1      -6.026  -8.846  11.725  0.00  0.00    +0.002 A 
ATOM     33  C   UNL     1      -5.237  -8.687  10.586  0.00  0.00    +0.000 A 
ENDBRANCH   5  22
TORSDOF 4
ENDMDL
MODEL 6
REMARK VINA RESULT:      -6.6      2.000      8.239
REMARK  Name = 40587807
REMARK  6 active torsions:
REMARK  status: ('A' for Active; 'I' for Inactive)
REMARK    1  A    between atoms: N_5  and  C_22
REMARK    2  A    between atoms: N_6  and  C_23
REMARK    3  A    between atoms: N_6  and  C_31
REMARK    4  A    between atoms: N_6  and  C_32
REMARK    5  A    between atoms: C_17  and  C_19
REMARK    6  A    between atoms: C_20  and  C_23
REMARK                            x       y       z     vdW  Elec       q    Type
REMARK                         _______ _______ _______ _____ _____    ______ ____
ROOT
ATOM      1  O   UNL     1      11.956   7.748   2.045  0.00  0.00    -0.267 OA
ATOM      2  O   UNL     1      10.001   3.848  -1.786  0.00  0.00    -0.252 OA
ATOM      3  N   UNL     1      12.627   5.654   1.268  0.00  0.00    -0.311 N 
ATOM      4  N   UNL     1      12.260   4.322  -1.612  0.00  0.00    -0.284 N 
ATOM      5  N   UNL     1      10.816   5.777  -2.782  0.00  0.00    -0.269 N 
ATOM      7  C   UNL     1      14.316   5.369  -0.634  0.00  0.00    +0.027 C 
ATOM      8  C   UNL     1      13.331   3.386   0.431  0.00  0.00    +0.054 C 
ATOM      9  C   UNL     1      14.652   4.045   0.042  0.00  0.00    +0.018 C 
ATOM     10  C   UNL     1      13.623   6.280   0.388  0.00  0.00    +0.130 C 
ATOM     11  C   UNL     1      13.447   5.147  -1.887  0.00  0.00    +0.114 C 
ATOM     12  C   UNL     1      12.517   3.098  -0.843  0.00  0.00    +0.119 C 
ATOM     13  C   UNL     1      12.526   4.265   1.368  0.00  0.00    +0.027 A 
ATOM     14  C   UNL     1      11.694   3.714   2.267  0.00  0.00    +0.022 A 
ATOM     15  C   UNL     1      11.866   6.519   2.078  0.00  0.00    +0.259 A 
ATOM     16  C   UNL     1      10.943   4.603  -2.041  0.00  0.00    +0.306 C 
ATOM     17  C   UNL     1      10.913   5.873   3.047  0.00  0.00    +0.047 A 
ATOM     18  C   UNL     1      10.873   4.533   3.112  0.00  0.00    +0.015 A 
ATOM     34  H   UNL     1      11.604   6.069  -3.350  0.00  0.00    +0.156 HD
ENDROOT
BRANCH  17  19
ATOM     19  C   UNL     1      10.029   6.683   3.904  0.00  0.00    -0.008 A 
ATOM     20  C   UNL     1      10.325   6.899   5.250  0.00  0.00    -0.026 A 
ATOM     21  C   UNL     1       8.878   7.236   3.344  0.00  0.00    +0.009 A 
ATOM     24  C   UNL     1       9.469   7.670   6.036  0.00  0.00    +0.005 A 
ATOM     25  C   UNL     1       8.021   8.006   4.131  0.00  0.00    +0.001 A 
ATOM     26  C   UNL     1       8.316   8.223   5.477  0.00  0.00    +0.000 A 
BRANCH  20  23
ATOM     23  C   UNL     1      11.551   6.323   5.883  0.00  0.00    +0.119 C 
BRANCH  23   6
ATOM      6  N   UNL     1      12.438   7.357   6.413  0.00  0.00    -0.304 NA
ATOM     31  C   UNL     1      13.045   8.119   5.323  0.00  0.00    +0.104 C 
ATOM     32  C   UNL     1      13.472   6.759   7.258  0.00  0.00    +0.104 C 
ENDBRANCH  23   6
ENDBRANCH  20  23
ENDBRANCH  17  19
BRANCH   5  22
ATOM     22  C   UNL     1       9.686   6.628  -2.852  0.00  0.00    +0.035 A 
ATOM     27  C   UNL     1       8.727   6.433  -3.846  0.00  0.00    +0.023 A 
ATOM     28  C   UNL     1       9.532   7.660  -1.927  0.00  0.00    +0.023 A 
ATOM     29  C   UNL     1       7.614   7.272  -3.915  0.00  0.00    +0.002 A 
ATOM     30  C   UNL     1       8.420   8.499  -1.996  0.00  0.00    +0.002 A 
ATOM     33  C   UNL     1       7.461   8.304  -2.989  0.00  0.00    +0.000 A 
ENDBRANCH   5  22
TORSDOF 4
ENDMDL
MODEL 7
REMARK VINA RESULT:      -6.4      2.835      7.186
REMARK  Name = 40587807
REMARK  6 active torsions:
REMARK  status: ('A' for Active; 'I' for Inactive)
REMARK    1  A    between atoms: N_5  and  C_22
REMARK    2  A    between atoms: N_6  and  C_23
REMARK    3  A    between atoms: N_6  and  C_31
REMARK    4  A    between atoms: N_6  and  C_32
REMARK    5  A    between atoms: C_17  and  C_19
REMARK    6  A    between atoms: C_20  and  C_23
REMARK                            x       y       z     vdW  Elec       q    Type
REMARK                         _______ _______ _______ _____ _____    ______ ____
ROOT
ATOM      1  O   UNL     1      12.250   7.335   4.039  0.00  0.00    -0.267 OA
ATOM      2  O   UNL     1       9.660   5.530  -0.834  0.00  0.00    -0.252 OA
ATOM      3  N   UNL     1      12.466   5.533   2.574  0.00  0.00    -0.311 N 
ATOM      4  N   UNL     1      11.955   5.380  -0.576  0.00  0.00    -0.284 N 
ATOM      5  N   UNL     1      10.944   7.437  -1.135  0.00  0.00    -0.269 N 
ATOM      7  C   UNL     1      14.142   5.526   0.640  0.00  0.00    +0.027 C 
ATOM      8  C   UNL     1      12.677   3.586   0.992  0.00  0.00    +0.054 C 
ATOM      9  C   UNL     1      14.132   4.012   0.812  0.00  0.00    +0.018 C 
ATOM     10  C   UNL     1      13.623   6.171   1.931  0.00  0.00    +0.130 C 
ATOM     11  C   UNL     1      13.312   5.950  -0.588  0.00  0.00    +0.114 C 
ATOM     12  C   UNL     1      11.886   3.944  -0.279  0.00  0.00    +0.119 C 
ATOM     13  C   UNL     1      12.046   4.256   2.196  0.00  0.00    +0.027 A 
ATOM     14  C   UNL     1      11.065   3.642   2.877  0.00  0.00    +0.022 A 
ATOM     15  C   UNL     1      11.881   6.224   3.653  0.00  0.00    +0.259 A 
ATOM     16  C   UNL     1      10.761   6.087  -0.843  0.00  0.00    +0.306 C 
ATOM     17  C   UNL     1      10.756   5.527   4.371  0.00  0.00    +0.047 A 
ATOM     18  C   UNL     1      10.409   4.293   3.976  0.00  0.00    +0.015 A 
ATOM     34  H   UNL     1      11.806   7.714  -1.593  0.00  0.00    +0.156 HD
ENDROOT
BRANCH  17  19
ATOM     19  C   UNL     1      10.037   6.180   5.478  0.00  0.00    -0.008 A 
ATOM     20  C   UNL     1       9.028   7.112   5.237  0.00  0.00    -0.026 A 
ATOM     21  C   UNL     1      10.385   5.851   6.788  0.00  0.00    +0.009 A 
ATOM     24  C   UNL     1       8.366   7.715   6.306  0.00  0.00    +0.005 A 
ATOM     25  C   UNL     1       9.723   6.455   7.858  0.00  0.00    +0.001 A 
ATOM     26  C   UNL     1       8.713   7.387   7.617  0.00  0.00    +0.000 A 
BRANCH  20  23
ATOM     23  C   UNL     1       8.629   7.489   3.846  0.00  0.00    +0.119 C 
BRANCH  23   6
ATOM      6  N   UNL     1       8.367   8.921   3.714  0.00  0.00    -0.304 NA
ATOM     31  C   UNL     1       7.329   9.161   2.714  0.00  0.00    +0.104 C 
ATOM     32  C   UNL     1       9.594   9.634   3.359  0.00  0.00    +0.104 C 
ENDBRANCH  23   6
ENDBRANCH  20  23
ENDBRANCH  17  19
BRANCH   5  22
ATOM     22  C   UNL     1      10.042   8.499  -0.876  0.00  0.00    +0.035 A 
ATOM     27  C   UNL     1      10.503   9.675  -0.282  0.00  0.00    +0.023 A 
ATOM     28  C   UNL     1       8.696   8.370  -1.215  0.00  0.00    +0.023 A 
ATOM     29  C   UNL     1       9.615  10.720  -0.025  0.00  0.00    +0.002 A 
ATOM     30  C   UNL     1       7.809   9.415  -0.959  0.00  0.00    +0.002 A 
ATOM     33  C   UNL     1       8.269  10.591  -0.365  0.00  0.00    +0.000 A 
ENDBRANCH   5  22
TORSDOF 4
ENDMDL
MODEL 8
REMARK VINA RESULT:      -6.4     32.134     34.772
REMARK  Name = 40587807
REMARK  6 active torsions:
REMARK  status: ('A' for Active; 'I' for Inactive)
REMARK    1  A    between atoms: N_5  and  C_22
REMARK    2  A    between atoms: N_6  and  C_23
REMARK    3  A    between atoms: N_6  and  C_31
REMARK    4  A    between atoms: N_6  and  C_32
REMARK    5  A    between atoms: C_17  and  C_19
REMARK    6  A    between atoms: C_20  and  C_23
REMARK                            x       y       z     vdW  Elec       q    Type
REMARK                         _______ _______ _______ _____ _____    ______ ____
ROOT
ATOM      1  O   UNL     1       8.329 -12.592  32.245  0.00  0.00    -0.267 OA
ATOM      2  O   UNL     1       4.543  -8.797  34.475  0.00  0.00    -0.252 OA
ATOM      3  N   UNL     1       8.233 -10.283  32.562  0.00  0.00    -0.311 N 
ATOM      4  N   UNL     1       6.814  -8.588  34.868  0.00  0.00    -0.284 N 
ATOM      5  N   UNL     1       5.527 -10.153  36.077  0.00  0.00    -0.269 N 
ATOM      7  C   UNL     1       9.246  -9.132  34.610  0.00  0.00    +0.027 C 
ATOM      8  C   UNL     1       8.108  -7.790  32.896  0.00  0.00    +0.054 C 
ATOM      9  C   UNL     1       9.404  -7.928  33.689  0.00  0.00    +0.018 C 
ATOM     10  C   UNL     1       9.091 -10.392  33.750  0.00  0.00    +0.130 C 
ATOM     11  C   UNL     1       8.057  -8.942  35.572  0.00  0.00    +0.114 C 
ATOM     12  C   UNL     1       6.947  -7.519  33.869  0.00  0.00    +0.119 C 
ATOM     13  C   UNL     1       7.818  -9.038  32.085  0.00  0.00    +0.027 A 
ATOM     14  C   UNL     1       7.136  -8.953  30.931  0.00  0.00    +0.022 A 
ATOM     15  C   UNL     1       7.947 -11.480  31.875  0.00  0.00    +0.259 A 
ATOM     16  C   UNL     1       5.544  -9.165  35.094  0.00  0.00    +0.306 C 
ATOM     17  C   UNL     1       7.147 -11.356  30.607  0.00  0.00    +0.047 A 
ATOM     18  C   UNL     1       6.793 -10.132  30.188  0.00  0.00    +0.015 A 
ATOM     34  H   UNL     1       6.188 -10.074  36.843  0.00  0.00    +0.156 HD
ENDROOT
BRANCH  17  19
ATOM     19  C   UNL     1       6.745 -12.547  29.839  0.00  0.00    -0.008 A 
ATOM     20  C   UNL     1       7.575 -13.088  28.856  0.00  0.00    -0.026 A 
ATOM     21  C   UNL     1       5.509 -13.133  30.109  0.00  0.00    +0.009 A 
ATOM     24  C   UNL     1       7.166 -14.216  28.145  0.00  0.00    +0.005 A 
ATOM     25  C   UNL     1       5.101 -14.261  29.397  0.00  0.00    +0.001 A 
ATOM     26  C   UNL     1       5.930 -14.803  28.414  0.00  0.00    +0.000 A 
BRANCH  20  23
ATOM     23  C   UNL     1       8.906 -12.487  28.539  0.00  0.00    +0.119 C 
BRANCH  23   6
ATOM      6  N   UNL     1       9.997 -13.156  29.247  0.00  0.00    -0.304 NA
ATOM     31  C   UNL     1      10.898 -12.172  29.845  0.00  0.00    +0.104 C 
ATOM     32  C   UNL     1      10.732 -14.036  28.339  0.00  0.00    +0.104 C 
ENDBRANCH  23   6
ENDBRANCH  20  23
ENDBRANCH  17  19
BRANCH   5  22
ATOM     22  C   UNL     1       4.666 -11.276  36.149  0.00  0.00    +0.035 A 
ATOM     27  C   UNL     1       3.750 -11.386  37.195  0.00  0.00    +0.023 A 
ATOM     28  C   UNL     1       4.735 -12.270  35.173  0.00  0.00    +0.023 A 
ATOM     29  C   UNL     1       2.904 -12.493  37.266  0.00  0.00    +0.002 A 
ATOM     30  C   UNL     1       3.888 -13.376  35.245  0.00  0.00    +0.002 A 
ATOM     33  C   UNL     1       2.972 -13.487  36.290  0.00  0.00    +0.000 A 
ENDBRANCH   5  22
TORSDOF 4
ENDMDL
MODEL 9
REMARK VINA RESULT:      -6.3     25.329     28.403
REMARK  Name = 40587807
REMARK  6 active torsions:
REMARK  status: ('A' for Active; 'I' for Inactive)
REMARK    1  A    between atoms: N_5  and  C_22
REMARK    2  A    between atoms: N_6  and  C_23
REMARK    3  A    between atoms: N_6  and  C_31
REMARK    4  A    between atoms: N_6  and  C_32
REMARK    5  A    between atoms: C_17  and  C_19
REMARK    6  A    between atoms: C_20  and  C_23
REMARK                            x       y       z     vdW  Elec       q    Type
REMARK                         _______ _______ _______ _____ _____    ______ ____
ROOT
ATOM      1  O   UNL     1      -7.605 -12.548  12.950  0.00  0.00    -0.267 OA
ATOM      2  O   UNL     1      -3.485 -10.205  16.305  0.00  0.00    -0.252 OA
ATOM      3  N   UNL     1      -5.378 -11.900  12.696  0.00  0.00    -0.311 N 
ATOM      4  N   UNL     1      -2.987 -11.904  14.814  0.00  0.00    -0.284 N 
ATOM      5  N   UNL     1      -4.004 -12.389  16.887  0.00  0.00    -0.269 N 
ATOM      7  C   UNL     1      -3.430 -13.537  12.966  0.00  0.00    +0.027 C 
ATOM      8  C   UNL     1      -2.979 -11.182  12.432  0.00  0.00    +0.054 C 
ATOM      9  C   UNL     1      -2.698 -12.618  11.996  0.00  0.00    +0.018 C 
ATOM     10  C   UNL     1      -4.938 -13.296  12.827  0.00  0.00    +0.130 C 
ATOM     11  C   UNL     1      -2.943 -13.319  14.412  0.00  0.00    +0.114 C 
ATOM     12  C   UNL     1      -2.412 -10.963  13.845  0.00  0.00    +0.119 C 
ATOM     13  C   UNL     1      -4.465 -10.880  12.422  0.00  0.00    +0.027 A 
ATOM     14  C   UNL     1      -4.902  -9.633  12.185  0.00  0.00    +0.022 A 
ATOM     15  C   UNL     1      -6.767 -11.667  12.749  0.00  0.00    +0.259 A 
ATOM     16  C   UNL     1      -3.504 -11.409  16.032  0.00  0.00    +0.306 C 
ATOM     17  C   UNL     1      -7.222 -10.250  12.520  0.00  0.00    +0.047 A 
ATOM     18  C   UNL     1      -6.300  -9.316  12.242  0.00  0.00    +0.015 A 
ATOM     34  H   UNL     1      -3.578 -13.309  16.858  0.00  0.00    +0.156 HD
ENDROOT
BRANCH  17  19
ATOM     19  C   UNL     1      -8.646  -9.884  12.608  0.00  0.00    -0.008 A 
ATOM     20  C   UNL     1      -9.243  -9.584  13.833  0.00  0.00    -0.026 A 
ATOM     21  C   UNL     1      -9.400  -9.841  11.435  0.00  0.00    +0.009 A 
ATOM     24  C   UNL     1     -10.594  -9.242  13.884  0.00  0.00    +0.005 A 
ATOM     25  C   UNL     1     -10.751  -9.499  11.487  0.00  0.00    +0.001 A 
ATOM     26  C   UNL     1     -11.349  -9.199  12.711  0.00  0.00    +0.000 A 
BRANCH  20  23
ATOM     23  C   UNL     1      -8.466  -9.620  15.110  0.00  0.00    +0.119 C 
BRANCH  23   6
ATOM      6  N   UNL     1      -9.272 -10.093  16.234  0.00  0.00    -0.304 NA
ATOM     31  C   UNL     1      -8.741  -9.580  17.496  0.00  0.00    +0.104 C 
ATOM     32  C   UNL     1      -9.313 -11.555  16.254  0.00  0.00    +0.104 C 
ENDBRANCH  23   6
ENDBRANCH  20  23
ENDBRANCH  17  19
BRANCH   5  22
ATOM     22  C   UNL     1      -5.054 -12.250  17.828  0.00  0.00    +0.035 A 
ATOM     27  C   UNL     1      -4.957 -11.302  18.847  0.00  0.00    +0.023 A 
ATOM     28  C   UNL     1      -6.185 -13.061  17.736  0.00  0.00    +0.023 A 
ATOM     29  C   UNL     1      -5.991 -11.166  19.774  0.00  0.00    +0.002 A 
ATOM     30  C   UNL     1      -7.218 -12.926  18.663  0.00  0.00    +0.002 A 
ATOM     33  C   UNL     1      -7.122 -11.977  19.681  0.00  0.00    +0.000 A 
ENDBRANCH   5  22
TORSDOF 4
ENDMDL
MODEL 10
REMARK VINA RESULT:      -6.3     32.741     35.544
REMARK  Name = 40587807
REMARK  6 active torsions:
REMARK  status: ('A' for Active; 'I' for Inactive)
REMARK    1  A    between atoms: N_5  and  C_22
REMARK    2  A    between atoms: N_6  and  C_23
REMARK    3  A    between atoms: N_6  and  C_31
REMARK    4  A    between atoms: N_6  and  C_32
REMARK    5  A    between atoms: C_17  and  C_19
REMARK    6  A    between atoms: C_20  and  C_23
REMARK                            x       y       z     vdW  Elec       q    Type
REMARK                         _______ _______ _______ _____ _____    ______ ____
ROOT
ATOM      1  O   UNL     1       9.289  -9.593  33.158  0.00  0.00    -0.267 OA
ATOM      2  O   UNL     1       6.298  -6.812  37.285  0.00  0.00    -0.252 OA
ATOM      3  N   UNL     1       8.684  -7.387  33.616  0.00  0.00    -0.311 N 
ATOM      4  N   UNL     1       8.252  -5.921  36.421  0.00  0.00    -0.284 N 
ATOM      5  N   UNL     1       8.330  -7.643  38.033  0.00  0.00    -0.269 N 
ATOM      7  C   UNL     1      10.220  -5.773  34.877  0.00  0.00    +0.027 C 
ATOM      8  C   UNL     1       8.011  -5.013  34.116  0.00  0.00    +0.054 C 
ATOM      9  C   UNL     1       9.501  -4.685  34.088  0.00  0.00    +0.018 C 
ATOM     10  C   UNL     1      10.024  -7.113  34.156  0.00  0.00    +0.130 C 
ATOM     11  C   UNL     1       9.718  -5.825  36.333  0.00  0.00    +0.114 C 
ATOM     12  C   UNL     1       7.514  -4.978  35.572  0.00  0.00    +0.119 C 
ATOM     13  C   UNL     1       7.730  -6.373  33.510  0.00  0.00    +0.027 A 
ATOM     14  C   UNL     1       6.557  -6.616  32.903  0.00  0.00    +0.022 A 
ATOM     15  C   UNL     1       8.457  -8.684  33.116  0.00  0.00    +0.259 A 
ATOM     16  C   UNL     1       7.532  -6.808  37.253  0.00  0.00    +0.306 C 
ATOM     17  C   UNL     1       7.117  -8.936  32.478  0.00  0.00    +0.047 A 
ATOM     18  C   UNL     1       6.247  -7.919  32.387  0.00  0.00    +0.015 A 
ATOM     34  H   UNL     1       9.234  -7.295  38.332  0.00  0.00    +0.156 HD
ENDROOT
BRANCH  17  19
ATOM     19  C   UNL     1       6.753 -10.270  31.971  0.00  0.00    -0.008 A 
ATOM     20  C   UNL     1       6.274 -11.264  32.825  0.00  0.00    -0.026 A 
ATOM     21  C   UNL     1       6.896 -10.531  30.608  0.00  0.00    +0.009 A 
ATOM     24  C   UNL     1       5.939 -12.518  32.315  0.00  0.00    +0.005 A 
ATOM     25  C   UNL     1       6.561 -11.785  30.099  0.00  0.00    +0.001 A 
ATOM     26  C   UNL     1       6.082 -12.780  30.952  0.00  0.00    +0.000 A 
BRANCH  20  23
ATOM     23  C   UNL     1       6.107 -11.021  34.290  0.00  0.00    +0.119 C 
BRANCH  23   6
ATOM      6  N   UNL     1       4.712 -10.778  34.655  0.00  0.00    -0.304 NA
ATOM     31  C   UNL     1       4.564  -9.452  35.253  0.00  0.00    +0.104 C 
ATOM     32  C   UNL     1       4.237 -11.810  35.576  0.00  0.00    +0.104 C 
ENDBRANCH  23   6
ENDBRANCH  20  23
ENDBRANCH  17  19
BRANCH   5  22
ATOM     22  C   UNL     1       8.019  -8.950  38.483  0.00  0.00    +0.035 A 
ATOM     27  C   UNL     1       7.716  -9.951  37.560  0.00  0.00    +0.023 A 
ATOM     28  C   UNL     1       8.015  -9.235  39.848  0.00  0.00    +0.023 A 
ATOM     29  C   UNL     1       7.409 -11.238  38.003  0.00  0.00    +0.002 A 
ATOM     30  C   UNL     1       7.708 -10.521  40.291  0.00  0.00    +0.002 A 
ATOM     33  C   UNL     1       7.406 -11.523  39.369  0.00  0.00    +0.000 A 
ENDBRANCH   5  22
TORSDOF 4
ENDMDL
