REMARK  Name = 7050299
REMARK  5 active torsions:
REMARK  status: ('A' for Active; 'I' for Inactive)
REMARK    1  A    between atoms: N_6  and  C_9
REMARK    2  A    between atoms: N_7  and  C_22
REMARK    3  A    between atoms: C_14  and  C_19
REMARK    4  A    between atoms: C_23  and  C_26
REMARK    5  A    between atoms: C_29  and  C_30
REMARK                            x       y       z     vdW  Elec       q    Type
REMARK                         _______ _______ _______ _____ _____    ______ ____
ROOT
ATOM      1  O   UNL     1       2.106   1.553   1.040  0.00  0.00    -0.273 OA
ATOM      2  O   UNL     1       3.728  -2.040  -1.414  0.00  0.00    -0.252 OA
ATOM      5  N   UNL     1       1.616  -1.377  -0.718  0.00  0.00    -0.273 N 
ATOM      7  N   UNL     1       3.341  -0.050  -0.188  0.00  0.00    -0.193 N 
ATOM      9  C   UNL     1      -0.641  -2.055   0.904  0.00  0.00    +0.077 C 
ATOM     10  C   UNL     1       0.998  -0.323   0.040  0.00  0.00    +0.166 C 
ATOM     11  C   UNL     1       0.285  -0.881   1.268  0.00  0.00    +0.054 C 
ATOM     12  C   UNL     1       0.097  -3.117   0.069  0.00  0.00    +0.041 C 
ATOM     13  C   UNL     1       0.814  -2.512  -1.139  0.00  0.00    +0.112 C 
ATOM     15  C   UNL     1       2.211   0.523   0.386  0.00  0.00    +0.248 C 
ATOM     16  C   UNL     1       2.997  -1.230  -0.855  0.00  0.00    +0.316 C 
ENDROOT
BRANCH   7  22
ATOM     22  C   UNL     1       4.669   0.476  -0.091  0.00  0.00    +0.045 A 
ATOM     24  C   UNL     1       5.053   1.207   1.036  0.00  0.00    +0.024 A 
ATOM     25  C   UNL     1       5.586   0.261  -1.122  0.00  0.00    +0.024 A 
ATOM     27  C   UNL     1       6.347   1.720   1.131  0.00  0.00    +0.005 A 
ATOM     28  C   UNL     1       6.880   0.773  -1.027  0.00  0.00    +0.005 A 
ATOM     29  C   UNL     1       7.261   1.503   0.099  0.00  0.00    -0.050 A 
ATOM     30  C   UNL     1       8.644   2.050   0.200  0.00  0.00    +0.044 C 
ENDBRANCH   7  22
BRANCH   9   6
ATOM      3  O   UNL     1      -3.139  -1.181   2.097  0.00  0.00    -0.276 OA
ATOM      6  N   UNL     1      -1.827  -1.593   0.219  0.00  0.00    -0.312 N 
ATOM     19  C   UNL     1      -2.976  -1.195   0.880  0.00  0.00    +0.216 C 
ATOM     31  H   UNL     1      -1.783  -1.494  -0.790  0.00  0.00    +0.149 HD
BRANCH  19  14
ATOM      4  O   UNL     1      -8.430   1.566   0.168  0.00  0.00    -0.276 OA
ATOM      8  N   UNL     1      -6.328   0.951  -0.607  0.00  0.00    -0.302 N 
ATOM     14  C   UNL     1      -4.044  -0.739  -0.065  0.00  0.00    +0.078 C 
ATOM     17  C   UNL     1      -5.419  -1.030   0.542  0.00  0.00    +0.032 C 
ATOM     18  C   UNL     1      -3.883   0.754  -0.359  0.00  0.00    +0.032 C 
ATOM     20  C   UNL     1      -6.537  -0.473  -0.335  0.00  0.00    +0.108 C 
ATOM     21  C   UNL     1      -5.033   1.276  -1.219  0.00  0.00    +0.108 C 
ATOM     23  C   UNL     1      -7.337   1.869  -0.317  0.00  0.00    +0.212 C 
ATOM     26  C   UNL     1      -7.042   3.315  -0.624  0.00  0.00    +0.109 C 
ENDBRANCH  19  14
ENDBRANCH   9   6
TORSDOF 3
