MODEL 1
REMARK VINA RESULT:      -8.3      0.000      0.000
REMARK  Name = 26761900
REMARK  6 active torsions:
REMARK  status: ('A' for Active; 'I' for Inactive)
REMARK    1  A    between atoms: O_4  and  C_32
REMARK    2  A    between atoms: N_6  and  C_16
REMARK    3  A    between atoms: C_11  and  C_17
REMARK    4  A    between atoms: C_16  and  C_18
REMARK    5  A    between atoms: C_22  and  C_23
REMARK    6  A    between atoms: C_26  and  C_32
REMARK                            x       y       z     vdW  Elec       q    Type
REMARK                         _______ _______ _______ _____ _____    ______ ____
ROOT
ATOM      6  N   UNL     1      14.357   7.485  19.253  0.00  0.00    -0.281 NA
ATOM      7  N   UNL     1      11.836   6.686  21.911  0.00  0.00    -0.347 N 
ATOM      8  N   UNL     1      10.540   8.161  20.841  0.00  0.00    -0.240 NA
ATOM     11  C   UNL     1      13.316   7.860  18.235  0.00  0.00    +0.152 C 
ATOM     12  C   UNL     1      12.086   8.596  18.877  0.00  0.00    +0.086 C 
ATOM     13  C   UNL     1      13.820   6.569  20.301  0.00  0.00    +0.140 C 
ATOM     14  C   UNL     1      12.510   7.048  20.785  0.00  0.00    +0.053 A 
ATOM     15  C   UNL     1      11.695   7.945  20.144  0.00  0.00    +0.065 A 
ATOM     19  C   UNL     1      10.653   7.385  21.901  0.00  0.00    +0.197 A 
ATOM     34  H   UNL     1      12.139   6.028  22.618  0.00  0.00    +0.167 HD
ENDROOT
BRANCH  11  17
ATOM      1  O   UNL     1      13.832   8.189  15.859  0.00  0.00    -0.336 OA
ATOM      9  N   UNL     1      14.317   9.955  17.148  0.00  0.00    -0.190 NA
ATOM     10  N   UNL     1      14.357   9.165  15.002  0.00  0.00    -0.056 NA
ATOM     17  C   UNL     1      13.844   8.736  17.103  0.00  0.00    +0.245 A 
ATOM     22  C   UNL     1      14.618  10.176  15.836  0.00  0.00    +0.202 A 
BRANCH  22  23
ATOM      2  O   UNL     1      18.176  12.874  13.853  0.00  0.00    -0.453 OA
ATOM      3  O   UNL     1      16.900  14.906  14.074  0.00  0.00    -0.453 OA
ATOM     23  C   UNL     1      15.179  11.419  15.390  0.00  0.00    +0.026 A 
ATOM     27  C   UNL     1      16.459  11.441  14.831  0.00  0.00    +0.061 A 
ATOM     28  C   UNL     1      14.434  12.604  15.520  0.00  0.00    +0.015 A 
ATOM     29  C   UNL     1      16.956  12.659  14.416  0.00  0.00    +0.167 A 
ATOM     30  C   UNL     1      16.227  13.819  14.543  0.00  0.00    +0.166 A 
ATOM     31  C   UNL     1      14.962  13.825  15.092  0.00  0.00    +0.050 A 
ATOM     33  C   UNL     1      18.134  14.299  13.639  0.00  0.00    +0.466 C 
ENDBRANCH  22  23
ENDBRANCH  11  17
BRANCH   6  16
ATOM     16  C   UNL     1      15.529   6.844  18.642  0.00  0.00    +0.120 C 
BRANCH  16  18
ATOM     18  C   UNL     1      16.703   6.806  19.585  0.00  0.00    -0.033 A 
ATOM     20  C   UNL     1      17.708   5.855  19.411  0.00  0.00    +0.006 A 
ATOM     21  C   UNL     1      16.784   7.723  20.633  0.00  0.00    +0.006 A 
ATOM     24  C   UNL     1      18.795   5.820  20.285  0.00  0.00    +0.015 A 
ATOM     25  C   UNL     1      17.871   7.689  21.507  0.00  0.00    +0.015 A 
ATOM     26  C   UNL     1      18.876   6.737  21.333  0.00  0.00    +0.059 A 
BRANCH  26  32
ATOM      5  O   UNL     1      21.065   6.090  22.049  0.00  0.00    -0.245 OA
ATOM     32  C   UNL     1      20.009   6.702  22.243  0.00  0.00    +0.337 C 
BRANCH  32   4
ATOM      4  O   UNL     1      19.794   7.432  23.372  0.00  0.00    -0.477 OA
ATOM     35  H   UNL     1      18.889   7.810  23.396  0.00  0.00    +0.295 HD
ENDBRANCH  32   4
ENDBRANCH  26  32
ENDBRANCH  16  18
ENDBRANCH   6  16
TORSDOF 6
ENDMDL
MODEL 2
REMARK VINA RESULT:      -8.2      4.707      7.822
REMARK  Name = 26761900
REMARK  6 active torsions:
REMARK  status: ('A' for Active; 'I' for Inactive)
REMARK    1  A    between atoms: O_4  and  C_32
REMARK    2  A    between atoms: N_6  and  C_16
REMARK    3  A    between atoms: C_11  and  C_17
REMARK    4  A    between atoms: C_16  and  C_18
REMARK    5  A    between atoms: C_22  and  C_23
REMARK    6  A    between atoms: C_26  and  C_32
REMARK                            x       y       z     vdW  Elec       q    Type
REMARK                         _______ _______ _______ _____ _____    ______ ____
ROOT
ATOM      6  N   UNL     1      12.087  12.109  23.311  0.00  0.00    -0.281 NA
ATOM      7  N   UNL     1      11.643  14.139  26.432  0.00  0.00    -0.347 N 
ATOM      8  N   UNL     1      13.878  14.169  26.488  0.00  0.00    -0.240 NA
ATOM     11  C   UNL     1      13.425  12.714  22.987  0.00  0.00    +0.152 C 
ATOM     12  C   UNL     1      14.280  13.003  24.272  0.00  0.00    +0.086 C 
ATOM     13  C   UNL     1      11.258  13.000  24.174  0.00  0.00    +0.140 C 
ATOM     14  C   UNL     1      12.067  13.543  25.284  0.00  0.00    +0.053 A 
ATOM     15  C   UNL     1      13.436  13.580  25.338  0.00  0.00    +0.065 A 
ATOM     19  C   UNL     1      12.772  14.499  27.127  0.00  0.00    +0.197 A 
ATOM     34  H   UNL     1      10.685  14.293  26.721  0.00  0.00    +0.167 HD
ENDROOT
BRANCH  11  17
ATOM      1  O   UNL     1      14.576  12.421  20.839  0.00  0.00    -0.336 OA
ATOM      9  N   UNL     1      14.763  10.666  22.218  0.00  0.00    -0.190 NA
ATOM     10  N   UNL     1      15.349  11.471  20.159  0.00  0.00    -0.056 NA
ATOM     17  C   UNL     1      14.274  11.867  22.043  0.00  0.00    +0.245 A 
ATOM     22  C   UNL     1      15.415  10.466  21.036  0.00  0.00    +0.202 A 
BRANCH  22  23
ATOM      2  O   UNL     1      19.315   7.542  21.370  0.00  0.00    -0.453 OA
ATOM      3  O   UNL     1      18.261   5.816  20.060  0.00  0.00    -0.453 OA
ATOM     23  C   UNL     1      16.124   9.249  20.763  0.00  0.00    +0.026 A 
ATOM     27  C   UNL     1      17.418   9.074  21.261  0.00  0.00    +0.061 A 
ATOM     28  C   UNL     1      15.510   8.242  19.998  0.00  0.00    +0.015 A 
ATOM     29  C   UNL     1      18.059   7.887  20.974  0.00  0.00    +0.167 A 
ATOM     30  C   UNL     1      17.458   6.902  20.226  0.00  0.00    +0.166 A 
ATOM     31  C   UNL     1      16.182   7.049  19.722  0.00  0.00    +0.050 A 
ATOM     33  C   UNL     1      19.436   6.228  20.788  0.00  0.00    +0.466 C 
ENDBRANCH  22  23
ENDBRANCH  11  17
BRANCH   6  16
ATOM     16  C   UNL     1      11.311  11.792  22.104  0.00  0.00    +0.120 C 
BRANCH  16  18
ATOM     18  C   UNL     1      11.337  10.319  21.793  0.00  0.00    -0.033 A 
ATOM     20  C   UNL     1      10.977   9.392  22.771  0.00  0.00    +0.006 A 
ATOM     21  C   UNL     1      11.720   9.881  20.525  0.00  0.00    +0.006 A 
ATOM     24  C   UNL     1      11.001   8.028  22.483  0.00  0.00    +0.015 A 
ATOM     25  C   UNL     1      11.744   8.516  20.236  0.00  0.00    +0.015 A 
ATOM     26  C   UNL     1      11.385   7.589  21.216  0.00  0.00    +0.059 A 
BRANCH  26  32
ATOM      5  O   UNL     1      11.001   5.270  21.660  0.00  0.00    -0.245 OA
ATOM     32  C   UNL     1      11.408   6.168  20.914  0.00  0.00    +0.337 C 
BRANCH  32   4
ATOM      4  O   UNL     1      11.940   5.903  19.689  0.00  0.00    -0.477 OA
ATOM     35  H   UNL     1      11.952   6.700  19.116  0.00  0.00    +0.295 HD
ENDBRANCH  32   4
ENDBRANCH  26  32
ENDBRANCH  16  18
ENDBRANCH   6  16
TORSDOF 6
ENDMDL
MODEL 3
REMARK VINA RESULT:      -7.9     32.544     33.881
REMARK  Name = 26761900
REMARK  6 active torsions:
REMARK  status: ('A' for Active; 'I' for Inactive)
REMARK    1  A    between atoms: O_4  and  C_32
REMARK    2  A    between atoms: N_6  and  C_16
REMARK    3  A    between atoms: C_11  and  C_17
REMARK    4  A    between atoms: C_16  and  C_18
REMARK    5  A    between atoms: C_22  and  C_23
REMARK    6  A    between atoms: C_26  and  C_32
REMARK                            x       y       z     vdW  Elec       q    Type
REMARK                         _______ _______ _______ _____ _____    ______ ____
ROOT
ATOM      6  N   UNL     1     -14.339   5.332  33.216  0.00  0.00    -0.281 NA
ATOM      7  N   UNL     1     -13.030   8.639  34.406  0.00  0.00    -0.347 N 
ATOM      8  N   UNL     1     -14.128   9.477  32.648  0.00  0.00    -0.240 NA
ATOM     11  C   UNL     1     -15.550   5.934  32.559  0.00  0.00    +0.152 C 
ATOM     12  C   UNL     1     -15.246   7.326  31.900  0.00  0.00    +0.086 C 
ATOM     13  C   UNL     1     -13.796   6.200  34.302  0.00  0.00    +0.140 C 
ATOM     14  C   UNL     1     -13.722   7.605  33.852  0.00  0.00    +0.053 A 
ATOM     15  C   UNL     1     -14.390   8.143  32.784  0.00  0.00    +0.065 A 
ATOM     19  C   UNL     1     -13.306   9.747  33.643  0.00  0.00    +0.197 A 
ATOM     34  H   UNL     1     -12.432   8.605  35.221  0.00  0.00    +0.167 HD
ENDROOT
BRANCH  11  17
ATOM      1  O   UNL     1     -17.379   4.480  31.808  0.00  0.00    -0.336 OA
ATOM      9  N   UNL     1     -15.739   4.729  30.303  0.00  0.00    -0.190 NA
ATOM     10  N   UNL     1     -17.753   3.717  30.694  0.00  0.00    -0.056 NA
ATOM     17  C   UNL     1     -16.182   5.042  31.494  0.00  0.00    +0.245 A 
ATOM     22  C   UNL     1     -16.737   3.915  29.850  0.00  0.00    +0.202 A 
BRANCH  22  23
ATOM      2  O   UNL     1     -16.259   4.112  24.992  0.00  0.00    -0.453 OA
ATOM      3  O   UNL     1     -16.519   1.727  24.766  0.00  0.00    -0.453 OA
ATOM     23  C   UNL     1     -16.686   3.315  28.548  0.00  0.00    +0.026 A 
ATOM     27  C   UNL     1     -16.485   4.119  27.422  0.00  0.00    +0.061 A 
ATOM     28  C   UNL     1     -16.839   1.924  28.416  0.00  0.00    +0.015 A 
ATOM     29  C   UNL     1     -16.443   3.496  26.192  0.00  0.00    +0.167 A 
ATOM     30  C   UNL     1     -16.592   2.135  26.063  0.00  0.00    +0.166 A 
ATOM     31  C   UNL     1     -16.792   1.320  27.158  0.00  0.00    +0.050 A 
ATOM     33  C   UNL     1     -16.308   2.986  24.093  0.00  0.00    +0.466 C 
ENDBRANCH  22  23
ENDBRANCH  11  17
BRANCH   6  16
ATOM     16  C   UNL     1     -14.615   4.006  33.787  0.00  0.00    +0.120 C 
BRANCH  16  18
ATOM     18  C   UNL     1     -14.380   2.906  32.786  0.00  0.00    -0.033 A 
ATOM     20  C   UNL     1     -13.417   3.062  31.790  0.00  0.00    +0.006 A 
ATOM     21  C   UNL     1     -15.127   1.730  32.855  0.00  0.00    +0.006 A 
ATOM     24  C   UNL     1     -13.199   2.043  30.862  0.00  0.00    +0.015 A 
ATOM     25  C   UNL     1     -14.911   0.711  31.928  0.00  0.00    +0.015 A 
ATOM     26  C   UNL     1     -13.947   0.867  30.931  0.00  0.00    +0.059 A 
BRANCH  26  32
ATOM      5  O   UNL     1     -14.510  -0.539  29.080  0.00  0.00    -0.245 OA
ATOM     32  C   UNL     1     -13.720  -0.196  29.966  0.00  0.00    +0.337 C 
BRANCH  32   4
ATOM      4  O   UNL     1     -12.512  -0.802  30.132  0.00  0.00    -0.477 OA
ATOM     35  H   UNL     1     -12.370  -1.086  31.060  0.00  0.00    +0.295 HD
ENDBRANCH  32   4
ENDBRANCH  26  32
ENDBRANCH  16  18
ENDBRANCH   6  16
TORSDOF 6
ENDMDL
MODEL 4
REMARK VINA RESULT:      -7.6     14.210     17.402
REMARK  Name = 26761900
REMARK  6 active torsions:
REMARK  status: ('A' for Active; 'I' for Inactive)
REMARK    1  A    between atoms: O_4  and  C_32
REMARK    2  A    between atoms: N_6  and  C_16
REMARK    3  A    between atoms: C_11  and  C_17
REMARK    4  A    between atoms: C_16  and  C_18
REMARK    5  A    between atoms: C_22  and  C_23
REMARK    6  A    between atoms: C_26  and  C_32
REMARK                            x       y       z     vdW  Elec       q    Type
REMARK                         _______ _______ _______ _____ _____    ______ ____
ROOT
ATOM      6  N   UNL     1       9.620   7.266   6.274  0.00  0.00    -0.281 NA
ATOM      7  N   UNL     1       8.725   5.869   9.637  0.00  0.00    -0.347 N 
ATOM      8  N   UNL     1       9.732   4.011   8.908  0.00  0.00    -0.240 NA
ATOM     11  C   UNL     1      10.816   6.370   6.108  0.00  0.00    +0.152 C 
ATOM     12  C   UNL     1      10.580   4.937   6.704  0.00  0.00    +0.086 C 
ATOM     13  C   UNL     1       9.256   7.463   7.707  0.00  0.00    +0.140 C 
ATOM     14  C   UNL     1       9.268   6.173   8.426  0.00  0.00    +0.053 A 
ATOM     15  C   UNL     1       9.884   5.023   8.004  0.00  0.00    +0.065 A 
ATOM     19  C   UNL     1       9.030   4.553   9.885  0.00  0.00    +0.197 A 
ATOM     34  H   UNL     1       8.201   6.488  10.243  0.00  0.00    +0.167 HD
ENDROOT
BRANCH  11  17
ATOM      1  O   UNL     1      12.426   6.825   4.312  0.00  0.00    -0.336 OA
ATOM      9  N   UNL     1      10.699   5.544   3.683  0.00  0.00    -0.190 NA
ATOM     10  N   UNL     1      12.630   6.533   2.957  0.00  0.00    -0.056 NA
ATOM     17  C   UNL     1      11.268   6.204   4.660  0.00  0.00    +0.245 A 
ATOM     22  C   UNL     1      11.571   5.774   2.659  0.00  0.00    +0.202 A 
BRANCH  22  23
ATOM      2  O   UNL     1      12.693   2.797  -1.048  0.00  0.00    -0.453 OA
ATOM      3  O   UNL     1      10.848   3.591  -2.379  0.00  0.00    -0.453 OA
ATOM     23  C   UNL     1      11.355   5.231   1.349  0.00  0.00    +0.026 A 
ATOM     27  C   UNL     1      12.215   4.245   0.858  0.00  0.00    +0.061 A 
ATOM     28  C   UNL     1      10.279   5.695   0.572  0.00  0.00    +0.015 A 
ATOM     29  C   UNL     1      11.966   3.752  -0.407  0.00  0.00    +0.167 A 
ATOM     30  C   UNL     1      10.913   4.206  -1.167  0.00  0.00    +0.166 A 
ATOM     31  C   UNL     1      10.051   5.178  -0.705  0.00  0.00    +0.050 A 
ATOM     33  C   UNL     1      11.979   2.699  -2.297  0.00  0.00    +0.466 C 
ENDBRANCH  22  23
ENDBRANCH  11  17
BRANCH   6  16
ATOM     16  C   UNL     1       9.825   8.589   5.669  0.00  0.00    +0.120 C 
BRANCH  16  18
ATOM     18  C   UNL     1       8.725   8.939   4.701  0.00  0.00    -0.033 A 
ATOM     20  C   UNL     1       7.612   9.654   5.139  0.00  0.00    +0.006 A 
ATOM     21  C   UNL     1       8.822   8.547   3.366  0.00  0.00    +0.006 A 
ATOM     24  C   UNL     1       6.593   9.979   4.242  0.00  0.00    +0.015 A 
ATOM     25  C   UNL     1       7.804   8.871   2.469  0.00  0.00    +0.015 A 
ATOM     26  C   UNL     1       6.689   9.586   2.907  0.00  0.00    +0.059 A 
BRANCH  26  32
ATOM      5  O   UNL     1       5.790  10.216   0.782  0.00  0.00    -0.245 OA
ATOM     32  C   UNL     1       5.629   9.925   1.972  0.00  0.00    +0.337 C 
BRANCH  32   4
ATOM      4  O   UNL     1       4.395   9.891   2.548  0.00  0.00    -0.477 OA
ATOM     35  H   UNL     1       3.841  10.651   2.268  0.00  0.00    +0.295 HD
ENDBRANCH  32   4
ENDBRANCH  26  32
ENDBRANCH  16  18
ENDBRANCH   6  16
TORSDOF 6
ENDMDL
MODEL 5
REMARK VINA RESULT:      -7.6     27.300     32.089
REMARK  Name = 26761900
REMARK  6 active torsions:
REMARK  status: ('A' for Active; 'I' for Inactive)
REMARK    1  A    between atoms: O_4  and  C_32
REMARK    2  A    between atoms: N_6  and  C_16
REMARK    3  A    between atoms: C_11  and  C_17
REMARK    4  A    between atoms: C_16  and  C_18
REMARK    5  A    between atoms: C_22  and  C_23
REMARK    6  A    between atoms: C_26  and  C_32
REMARK                            x       y       z     vdW  Elec       q    Type
REMARK                         _______ _______ _______ _____ _____    ______ ____
ROOT
ATOM      6  N   UNL     1      -5.829 -10.811  15.810  0.00  0.00    -0.281 NA
ATOM      7  N   UNL     1      -2.438 -10.273  14.302  0.00  0.00    -0.347 N 
ATOM      8  N   UNL     1      -1.679 -10.680  16.365  0.00  0.00    -0.240 NA
ATOM     11  C   UNL     1      -5.315 -11.721  16.890  0.00  0.00    +0.152 C 
ATOM     12  C   UNL     1      -3.904 -11.285  17.422  0.00  0.00    +0.086 C 
ATOM     13  C   UNL     1      -4.926 -10.776  14.623  0.00  0.00    +0.140 C 
ATOM     14  C   UNL     1      -3.518 -10.633  15.048  0.00  0.00    +0.053 A 
ATOM     15  C   UNL     1      -3.028 -10.884  16.303  0.00  0.00    +0.065 A 
ATOM     19  C   UNL     1      -1.351 -10.314  15.141  0.00  0.00    +0.197 A 
ATOM     34  H   UNL     1      -2.430 -10.025  13.321  0.00  0.00    +0.167 HD
ENDROOT
BRANCH  11  17
ATOM      1  O   UNL     1      -5.924 -11.110  19.188  0.00  0.00    -0.336 OA
ATOM      9  N   UNL     1      -7.335 -12.562  18.230  0.00  0.00    -0.190 NA
ATOM     10  N   UNL     1      -6.910 -11.384  20.144  0.00  0.00    -0.056 NA
ATOM     17  C   UNL     1      -6.249 -11.844  18.091  0.00  0.00    +0.245 A 
ATOM     22  C   UNL     1      -7.705 -12.247  19.504  0.00  0.00    +0.202 A 
BRANCH  22  23
ATOM      2  O   UNL     1     -12.412 -12.123  20.809  0.00  0.00    -0.453 OA
ATOM      3  O   UNL     1     -12.300 -14.314  21.804  0.00  0.00    -0.453 OA
ATOM     23  C   UNL     1      -8.877 -12.812  20.110  0.00  0.00    +0.026 A 
ATOM     27  C   UNL     1     -10.072 -12.089  20.115  0.00  0.00    +0.061 A 
ATOM     28  C   UNL     1      -8.811 -14.090  20.691  0.00  0.00    +0.015 A 
ATOM     29  C   UNL     1     -11.171 -12.674  20.707  0.00  0.00    +0.167 A 
ATOM     30  C   UNL     1     -11.107 -13.925  21.276  0.00  0.00    +0.166 A 
ATOM     31  C   UNL     1      -9.940 -14.660  21.285  0.00  0.00    +0.050 A 
ATOM     33  C   UNL     1     -13.122 -13.167  21.504  0.00  0.00    +0.466 C 
ENDBRANCH  22  23
ENDBRANCH  11  17
BRANCH   6  16
ATOM     16  C   UNL     1      -7.172 -11.191  15.351  0.00  0.00    +0.120 C 
BRANCH  16  18
ATOM     18  C   UNL     1      -8.159 -10.065  15.513  0.00  0.00    -0.033 A 
ATOM     20  C   UNL     1      -9.043  -9.758  14.479  0.00  0.00    +0.006 A 
ATOM     21  C   UNL     1      -8.190  -9.330  16.697  0.00  0.00    +0.006 A 
ATOM     24  C   UNL     1      -9.958  -8.716  14.629  0.00  0.00    +0.015 A 
ATOM     25  C   UNL     1      -9.103  -8.288  16.848  0.00  0.00    +0.015 A 
ATOM     26  C   UNL     1      -9.988  -7.980  15.813  0.00  0.00    +0.059 A 
BRANCH  26  32
ATOM      5  O   UNL     1     -12.112  -7.018  16.347  0.00  0.00    -0.245 OA
ATOM     32  C   UNL     1     -10.941  -6.894  15.971  0.00  0.00    +0.337 C 
BRANCH  32   4
ATOM      4  O   UNL     1     -10.408  -5.682  15.654  0.00  0.00    -0.477 OA
ATOM     35  H   UNL     1     -10.233  -5.140  16.453  0.00  0.00    +0.295 HD
ENDBRANCH  32   4
ENDBRANCH  26  32
ENDBRANCH  16  18
ENDBRANCH   6  16
TORSDOF 6
ENDMDL
MODEL 6
REMARK VINA RESULT:      -7.4     27.400     29.825
REMARK  Name = 26761900
REMARK  6 active torsions:
REMARK  status: ('A' for Active; 'I' for Inactive)
REMARK    1  A    between atoms: O_4  and  C_32
REMARK    2  A    between atoms: N_6  and  C_16
REMARK    3  A    between atoms: C_11  and  C_17
REMARK    4  A    between atoms: C_16  and  C_18
REMARK    5  A    between atoms: C_22  and  C_23
REMARK    6  A    between atoms: C_26  and  C_32
REMARK                            x       y       z     vdW  Elec       q    Type
REMARK                         _______ _______ _______ _____ _____    ______ ____
ROOT
ATOM      6  N   UNL     1      -7.825 -11.528  18.090  0.00  0.00    -0.281 NA
ATOM      7  N   UNL     1     -10.419 -10.377  20.541  0.00  0.00    -0.347 N 
ATOM      8  N   UNL     1     -11.468  -9.566  18.741  0.00  0.00    -0.240 NA
ATOM     11  C   UNL     1      -8.800 -11.632  16.952  0.00  0.00    +0.152 C 
ATOM     12  C   UNL     1      -9.889 -10.501  16.989  0.00  0.00    +0.086 C 
ATOM     13  C   UNL     1      -8.493 -11.634  19.420  0.00  0.00    +0.140 C 
ATOM     14  C   UNL     1      -9.705 -10.790  19.458  0.00  0.00    +0.053 A 
ATOM     15  C   UNL     1     -10.369 -10.288  18.369  0.00  0.00    +0.065 A 
ATOM     19  C   UNL     1     -11.473  -9.641  20.058  0.00  0.00    +0.197 A 
ATOM     34  H   UNL     1     -10.220 -10.574  21.514  0.00  0.00    +0.167 HD
ENDROOT
BRANCH  11  17
ATOM      1  O   UNL     1      -8.190 -12.760  14.859  0.00  0.00    -0.336 OA
ATOM      9  N   UNL     1      -7.539 -10.620  14.961  0.00  0.00    -0.190 NA
ATOM     10  N   UNL     1      -7.536 -12.494  13.650  0.00  0.00    -0.056 NA
ATOM     17  C   UNL     1      -8.147 -11.604  15.573  0.00  0.00    +0.245 A 
ATOM     22  C   UNL     1      -7.182 -11.213  13.785  0.00  0.00    +0.202 A 
BRANCH  22  23
ATOM      2  O   UNL     1      -3.174 -10.183  11.189  0.00  0.00    -0.453 OA
ATOM      3  O   UNL     1      -4.324  -8.520   9.879  0.00  0.00    -0.453 OA
ATOM     23  C   UNL     1      -6.472 -10.496  12.766  0.00  0.00    +0.026 A 
ATOM     27  C   UNL     1      -5.120 -10.769  12.540  0.00  0.00    +0.061 A 
ATOM     28  C   UNL     1      -7.143  -9.524  12.002  0.00  0.00    +0.015 A 
ATOM     29  C   UNL     1      -4.480 -10.055  11.548  0.00  0.00    +0.167 A 
ATOM     30  C   UNL     1      -5.137  -9.105  10.800  0.00  0.00    +0.166 A 
ATOM     31  C   UNL     1      -6.470  -8.816  11.004  0.00  0.00    +0.050 A 
ATOM     33  C   UNL     1      -3.082  -9.208  10.131  0.00  0.00    +0.466 C 
ENDBRANCH  22  23
ENDBRANCH  11  17
BRANCH   6  16
ATOM     16  C   UNL     1      -6.777 -12.556  18.023  0.00  0.00    +0.120 C 
BRANCH  16  18
ATOM     18  C   UNL     1      -5.537 -12.049  17.336  0.00  0.00    -0.033 A 
ATOM     20  C   UNL     1      -4.890 -12.842  16.388  0.00  0.00    +0.006 A 
ATOM     21  C   UNL     1      -5.036 -10.785  17.646  0.00  0.00    +0.006 A 
ATOM     24  C   UNL     1      -3.741 -12.372  15.751  0.00  0.00    +0.015 A 
ATOM     25  C   UNL     1      -3.887 -10.314  17.010  0.00  0.00    +0.015 A 
ATOM     26  C   UNL     1      -3.240 -11.108  16.062  0.00  0.00    +0.059 A 
BRANCH  26  32
ATOM      5  O   UNL     1      -1.994 -10.182  14.243  0.00  0.00    -0.245 OA
ATOM     32  C   UNL     1      -2.044 -10.616  15.398  0.00  0.00    +0.337 C 
BRANCH  32   4
ATOM      4  O   UNL     1      -0.941 -10.681  16.194  0.00  0.00    -0.477 OA
ATOM     35  H   UNL     1      -0.111 -10.590  15.678  0.00  0.00    +0.295 HD
ENDBRANCH  32   4
ENDBRANCH  26  32
ENDBRANCH  16  18
ENDBRANCH   6  16
TORSDOF 6
ENDMDL
MODEL 7
REMARK VINA RESULT:      -7.4     12.083     15.133
REMARK  Name = 26761900
REMARK  6 active torsions:
REMARK  status: ('A' for Active; 'I' for Inactive)
REMARK    1  A    between atoms: O_4  and  C_32
REMARK    2  A    between atoms: N_6  and  C_16
REMARK    3  A    between atoms: C_11  and  C_17
REMARK    4  A    between atoms: C_16  and  C_18
REMARK    5  A    between atoms: C_22  and  C_23
REMARK    6  A    between atoms: C_26  and  C_32
REMARK                            x       y       z     vdW  Elec       q    Type
REMARK                         _______ _______ _______ _____ _____    ______ ____
ROOT
ATOM      6  N   UNL     1      11.893   6.396   4.712  0.00  0.00    -0.281 NA
ATOM      7  N   UNL     1       9.455   4.781   7.058  0.00  0.00    -0.347 N 
ATOM      8  N   UNL     1      10.799   5.558   8.667  0.00  0.00    -0.240 NA
ATOM     11  C   UNL     1      12.322   7.435   5.710  0.00  0.00    +0.152 C 
ATOM     12  C   UNL     1      12.374   6.873   7.176  0.00  0.00    +0.086 C 
ATOM     13  C   UNL     1      10.532   5.858   5.003  0.00  0.00    +0.140 C 
ATOM     14  C   UNL     1      10.398   5.544   6.440  0.00  0.00    +0.053 A 
ATOM     15  C   UNL     1      11.203   6.014   7.445  0.00  0.00    +0.065 A 
ATOM     19  C   UNL     1       9.740   4.819   8.402  0.00  0.00    +0.197 A 
ATOM     34  H   UNL     1       8.690   4.284   6.621  0.00  0.00    +0.167 HD
ENDROOT
BRANCH  11  17
ATOM      1  O   UNL     1      13.661   9.352   4.967  0.00  0.00    -0.336 OA
ATOM      9  N   UNL     1      14.875   7.547   5.499  0.00  0.00    -0.190 NA
ATOM     10  N   UNL     1      14.999   9.706   4.754  0.00  0.00    -0.056 NA
ATOM     17  C   UNL     1      13.677   8.066   5.404  0.00  0.00    +0.245 A 
ATOM     22  C   UNL     1      15.653   8.590   5.091  0.00  0.00    +0.202 A 
BRANCH  22  23
ATOM      2  O   UNL     1      20.108   8.718   7.094  0.00  0.00    -0.453 OA
ATOM      3  O   UNL     1      21.178   8.209   4.996  0.00  0.00    -0.453 OA
ATOM     23  C   UNL     1      17.083   8.485   5.030  0.00  0.00    +0.026 A 
ATOM     27  C   UNL     1      17.841   8.676   6.188  0.00  0.00    +0.061 A 
ATOM     28  C   UNL     1      17.707   8.189   3.806  0.00  0.00    +0.015 A 
ATOM     29  C   UNL     1      19.212   8.564   6.080  0.00  0.00    +0.167 A 
ATOM     30  C   UNL     1      19.823   8.274   4.882  0.00  0.00    +0.166 A 
ATOM     31  C   UNL     1      19.098   8.081   3.726  0.00  0.00    +0.050 A 
ATOM     33  C   UNL     1      21.351   8.491   6.400  0.00  0.00    +0.466 C 
ENDBRANCH  22  23
ENDBRANCH  11  17
BRANCH   6  16
ATOM     16  C   UNL     1      11.895   6.911   3.335  0.00  0.00    +0.120 C 
BRANCH  16  18
ATOM     18  C   UNL     1      12.884   6.180   2.466  0.00  0.00    -0.033 A 
ATOM     20  C   UNL     1      14.063   6.811   2.068  0.00  0.00    +0.006 A 
ATOM     21  C   UNL     1      12.622   4.873   2.059  0.00  0.00    +0.006 A 
ATOM     24  C   UNL     1      14.979   6.135   1.263  0.00  0.00    +0.015 A 
ATOM     25  C   UNL     1      13.538   4.196   1.253  0.00  0.00    +0.015 A 
ATOM     26  C   UNL     1      14.717   4.827   0.855  0.00  0.00    +0.059 A 
BRANCH  26  32
ATOM      5  O   UNL     1      15.723   4.181  -1.217  0.00  0.00    -0.245 OA
ATOM     32  C   UNL     1      15.672   4.121   0.016  0.00  0.00    +0.337 C 
BRANCH  32   4
ATOM      4  O   UNL     1      16.537   3.359   0.740  0.00  0.00    -0.477 OA
ATOM     35  H   UNL     1      17.423   3.314   0.321  0.00  0.00    +0.295 HD
ENDBRANCH  32   4
ENDBRANCH  26  32
ENDBRANCH  16  18
ENDBRANCH   6  16
TORSDOF 6
ENDMDL
MODEL 8
REMARK VINA RESULT:      -7.4     14.436     16.882
REMARK  Name = 26761900
REMARK  6 active torsions:
REMARK  status: ('A' for Active; 'I' for Inactive)
REMARK    1  A    between atoms: O_4  and  C_32
REMARK    2  A    between atoms: N_6  and  C_16
REMARK    3  A    between atoms: C_11  and  C_17
REMARK    4  A    between atoms: C_16  and  C_18
REMARK    5  A    between atoms: C_22  and  C_23
REMARK    6  A    between atoms: C_26  and  C_32
REMARK                            x       y       z     vdW  Elec       q    Type
REMARK                         _______ _______ _______ _____ _____    ______ ____
ROOT
ATOM      6  N   UNL     1       9.985   5.553   4.719  0.00  0.00    -0.281 NA
ATOM      7  N   UNL     1      10.090   3.924   8.094  0.00  0.00    -0.347 N 
ATOM      8  N   UNL     1       9.325   5.888   8.841  0.00  0.00    -0.240 NA
ATOM     11  C   UNL     1       8.882   6.501   5.098  0.00  0.00    +0.152 C 
ATOM     12  C   UNL     1       9.002   6.997   6.583  0.00  0.00    +0.086 C 
ATOM     13  C   UNL     1       9.995   4.328   5.570  0.00  0.00    +0.140 C 
ATOM     14  C   UNL     1       9.842   4.687   6.994  0.00  0.00    +0.053 A 
ATOM     15  C   UNL     1       9.368   5.879   7.476  0.00  0.00    +0.065 A 
ATOM     19  C   UNL     1       9.764   4.692   9.185  0.00  0.00    +0.197 A 
ATOM     34  H   UNL     1      10.442   2.975   8.112  0.00  0.00    +0.167 HD
ENDROOT
BRANCH  11  17
ATOM      1  O   UNL     1       9.909   8.496   4.104  0.00  0.00    -0.336 OA
ATOM      9  N   UNL     1       7.777   8.175   3.500  0.00  0.00    -0.190 NA
ATOM     10  N   UNL     1       9.585   9.551   3.242  0.00  0.00    -0.056 NA
ATOM     17  C   UNL     1       8.789   7.733   4.202  0.00  0.00    +0.245 A 
ATOM     22  C   UNL     1       8.313   9.292   2.928  0.00  0.00    +0.202 A 
BRANCH  22  23
ATOM      2  O   UNL     1       4.114  10.870   0.992  0.00  0.00    -0.453 OA
ATOM      3  O   UNL     1       5.244  12.458  -0.424  0.00  0.00    -0.453 OA
ATOM     23  C   UNL     1       7.549  10.127   2.047  0.00  0.00    +0.026 A 
ATOM     27  C   UNL     1       6.156  10.014   2.019  0.00  0.00    +0.061 A 
ATOM     28  C   UNL     1       8.209  11.054   1.221  0.00  0.00    +0.015 A 
ATOM     29  C   UNL     1       5.465  10.839   1.157  0.00  0.00    +0.167 A 
ATOM     30  C   UNL     1       6.110  11.746   0.348  0.00  0.00    +0.166 A 
ATOM     31  C   UNL     1       7.483  11.877   0.357  0.00  0.00    +0.050 A 
ATOM     33  C   UNL     1       3.981  11.897  -0.010  0.00  0.00    +0.466 C 
ENDBRANCH  22  23
ENDBRANCH  11  17
BRANCH   6  16
ATOM     16  C   UNL     1       9.899   5.131   3.313  0.00  0.00    +0.120 C 
BRANCH  16  18
ATOM     18  C   UNL     1      11.258   4.842   2.731  0.00  0.00    -0.033 A 
ATOM     20  C   UNL     1      11.564   3.560   2.278  0.00  0.00    +0.006 A 
ATOM     21  C   UNL     1      12.209   5.858   2.646  0.00  0.00    +0.006 A 
ATOM     24  C   UNL     1      12.822   3.292   1.738  0.00  0.00    +0.015 A 
ATOM     25  C   UNL     1      13.468   5.591   2.107  0.00  0.00    +0.015 A 
ATOM     26  C   UNL     1      13.775   4.308   1.653  0.00  0.00    +0.059 A 
BRANCH  26  32
ATOM      5  O   UNL     1      15.570   4.581   0.096  0.00  0.00    -0.245 OA
ATOM     32  C   UNL     1      15.086   4.030   1.090  0.00  0.00    +0.337 C 
BRANCH  32   4
ATOM      4  O   UNL     1      15.759   3.071   1.784  0.00  0.00    -0.477 OA
ATOM     35  H   UNL     1      16.062   2.343   1.201  0.00  0.00    +0.295 HD
ENDBRANCH  32   4
ENDBRANCH  26  32
ENDBRANCH  16  18
ENDBRANCH   6  16
TORSDOF 6
ENDMDL
MODEL 9
REMARK VINA RESULT:      -7.3     26.843     30.668
REMARK  Name = 26761900
REMARK  6 active torsions:
REMARK  status: ('A' for Active; 'I' for Inactive)
REMARK    1  A    between atoms: O_4  and  C_32
REMARK    2  A    between atoms: N_6  and  C_16
REMARK    3  A    between atoms: C_11  and  C_17
REMARK    4  A    between atoms: C_16  and  C_18
REMARK    5  A    between atoms: C_22  and  C_23
REMARK    6  A    between atoms: C_26  and  C_32
REMARK                            x       y       z     vdW  Elec       q    Type
REMARK                         _______ _______ _______ _____ _____    ______ ____
ROOT
ATOM      6  N   UNL     1      -8.474 -10.547  18.302  0.00  0.00    -0.281 NA
ATOM      7  N   UNL     1     -11.164 -12.237  20.295  0.00  0.00    -0.347 N 
ATOM      8  N   UNL     1      -9.613 -13.802  20.680  0.00  0.00    -0.240 NA
ATOM     11  C   UNL     1      -7.358 -11.154  19.105  0.00  0.00    +0.152 C 
ATOM     12  C   UNL     1      -7.670 -12.627  19.551  0.00  0.00    +0.086 C 
ATOM     13  C   UNL     1      -9.755 -10.491  19.066  0.00  0.00    +0.140 C 
ATOM     14  C   UNL     1     -10.004 -11.775  19.752  0.00  0.00    +0.053 A 
ATOM     15  C   UNL     1      -9.070 -12.745  20.006  0.00  0.00    +0.065 A 
ATOM     19  C   UNL     1     -10.878 -13.465  20.842  0.00  0.00    +0.197 A 
ATOM     34  H   UNL     1     -12.062 -11.772  20.301  0.00  0.00    +0.167 HD
ENDROOT
BRANCH  11  17
ATOM      1  O   UNL     1      -4.935 -11.546  19.120  0.00  0.00    -0.336 OA
ATOM      9  N   UNL     1      -5.730 -10.843  17.147  0.00  0.00    -0.190 NA
ATOM     10  N   UNL     1      -3.832 -11.470  18.259  0.00  0.00    -0.056 NA
ATOM     17  C   UNL     1      -6.011 -11.160  18.385  0.00  0.00    +0.245 A 
ATOM     22  C   UNL     1      -4.382 -11.050  17.116  0.00  0.00    +0.202 A 
BRANCH  22  23
ATOM      2  O   UNL     1      -3.912 -10.530  12.282  0.00  0.00    -0.453 OA
ATOM      3  O   UNL     1      -1.531 -10.194  12.445  0.00  0.00    -0.453 OA
ATOM     23  C   UNL     1      -3.612 -10.827  15.926  0.00  0.00    +0.026 A 
ATOM     27  C   UNL     1      -4.250 -10.804  14.683  0.00  0.00    +0.061 A 
ATOM     28  C   UNL     1      -2.223 -10.631  16.022  0.00  0.00    +0.015 A 
ATOM     29  C   UNL     1      -3.469 -10.584  13.568  0.00  0.00    +0.167 A 
ATOM     30  C   UNL     1      -2.110 -10.393  13.661  0.00  0.00    +0.166 A 
ATOM     31  C   UNL     1      -1.456 -10.411  14.875  0.00  0.00    +0.050 A 
ATOM     33  C   UNL     1      -2.679 -10.283  11.576  0.00  0.00    +0.466 C 
ENDBRANCH  22  23
ENDBRANCH  11  17
BRANCH   6  16
ATOM     16  C   UNL     1      -8.157  -9.188  17.842  0.00  0.00    +0.120 C 
BRANCH  16  18
ATOM     18  C   UNL     1      -9.179  -8.676  16.862  0.00  0.00    -0.033 A 
ATOM     20  C   UNL     1      -9.262  -9.232  15.586  0.00  0.00    +0.006 A 
ATOM     21  C   UNL     1     -10.042  -7.644  17.230  0.00  0.00    +0.006 A 
ATOM     24  C   UNL     1     -10.209  -8.758  14.678  0.00  0.00    +0.015 A 
ATOM     25  C   UNL     1     -10.989  -7.169  16.322  0.00  0.00    +0.015 A 
ATOM     26  C   UNL     1     -11.072  -7.726  15.046  0.00  0.00    +0.059 A 
BRANCH  26  32
ATOM      5  O   UNL     1     -12.756  -7.934  13.360  0.00  0.00    -0.245 OA
ATOM     32  C   UNL     1     -12.059  -7.232  14.100  0.00  0.00    +0.337 C 
BRANCH  32   4
ATOM      4  O   UNL     1     -12.150  -5.873  14.103  0.00  0.00    -0.477 OA
ATOM     35  H   UNL     1     -11.972  -5.493  13.216  0.00  0.00    +0.295 HD
ENDBRANCH  32   4
ENDBRANCH  26  32
ENDBRANCH  16  18
ENDBRANCH   6  16
TORSDOF 6
ENDMDL
MODEL 10
REMARK VINA RESULT:      -7.3     27.899     29.581
REMARK  Name = 26761900
REMARK  6 active torsions:
REMARK  status: ('A' for Active; 'I' for Inactive)
REMARK    1  A    between atoms: O_4  and  C_32
REMARK    2  A    between atoms: N_6  and  C_16
REMARK    3  A    between atoms: C_11  and  C_17
REMARK    4  A    between atoms: C_16  and  C_18
REMARK    5  A    between atoms: C_22  and  C_23
REMARK    6  A    between atoms: C_26  and  C_32
REMARK                            x       y       z     vdW  Elec       q    Type
REMARK                         _______ _______ _______ _____ _____    ______ ____
ROOT
ATOM      6  N   UNL     1      -3.236 -11.971  13.734  0.00  0.00    -0.281 NA
ATOM      7  N   UNL     1      -1.832 -15.429  14.099  0.00  0.00    -0.347 N 
ATOM      8  N   UNL     1      -2.291 -15.626  11.919  0.00  0.00    -0.240 NA
ATOM     11  C   UNL     1      -2.877 -11.869  12.278  0.00  0.00    +0.152 C 
ATOM     12  C   UNL     1      -3.042 -13.236  11.522  0.00  0.00    +0.086 C 
ATOM     13  C   UNL     1      -2.383 -12.957  14.460  0.00  0.00    +0.140 C 
ATOM     14  C   UNL     1      -2.260 -14.206  13.681  0.00  0.00    +0.053 A 
ATOM     15  C   UNL     1      -2.527 -14.349  12.345  0.00  0.00    +0.065 A 
ATOM     19  C   UNL     1      -1.869 -16.253  13.001  0.00  0.00    +0.197 A 
ATOM     34  H   UNL     1      -1.540 -15.686  15.033  0.00  0.00    +0.167 HD
ENDROOT
BRANCH  11  17
ATOM      1  O   UNL     1      -2.960  -9.826  10.922  0.00  0.00    -0.336 OA
ATOM      9  N   UNL     1      -4.970 -10.718  11.345  0.00  0.00    -0.190 NA
ATOM     10  N   UNL     1      -3.896  -8.992  10.297  0.00  0.00    -0.056 NA
ATOM     17  C   UNL     1      -3.676 -10.816  11.516  0.00  0.00    +0.245 A 
ATOM     22  C   UNL     1      -5.057  -9.584  10.590  0.00  0.00    +0.202 A 
BRANCH  22  23
ATOM      2  O   UNL     1      -7.826  -6.621   7.867  0.00  0.00    -0.453 OA
ATOM      3  O   UNL     1      -9.867  -7.514   8.786  0.00  0.00    -0.453 OA
ATOM     23  C   UNL     1      -6.320  -9.070  10.146  0.00  0.00    +0.026 A 
ATOM     27  C   UNL     1      -6.357  -8.059   9.183  0.00  0.00    +0.061 A 
ATOM     28  C   UNL     1      -7.511  -9.591  10.683  0.00  0.00    +0.015 A 
ATOM     29  C   UNL     1      -7.595  -7.597   8.787  0.00  0.00    +0.167 A 
ATOM     30  C   UNL     1      -8.760  -8.107   9.312  0.00  0.00    +0.166 A 
ATOM     31  C   UNL     1      -8.751  -9.105  10.263  0.00  0.00    +0.050 A 
ATOM     33  C   UNL     1      -9.267  -6.573   7.871  0.00  0.00    +0.466 C 
ENDBRANCH  22  23
ENDBRANCH  11  17
BRANCH   6  16
ATOM     16  C   UNL     1      -3.130 -10.679  14.427  0.00  0.00    +0.120 C 
BRANCH  16  18
ATOM     18  C   UNL     1      -4.094 -10.581  15.580  0.00  0.00    -0.033 A 
ATOM     20  C   UNL     1      -5.388 -10.105  15.369  0.00  0.00    +0.006 A 
ATOM     21  C   UNL     1      -3.693 -10.968  16.858  0.00  0.00    +0.006 A 
ATOM     24  C   UNL     1      -6.281 -10.014  16.437  0.00  0.00    +0.015 A 
ATOM     25  C   UNL     1      -4.585 -10.877  17.927  0.00  0.00    +0.015 A 
ATOM     26  C   UNL     1      -5.880 -10.400  17.716  0.00  0.00    +0.059 A 
BRANCH  26  32
ATOM      5  O   UNL     1      -6.591 -10.699  19.980  0.00  0.00    -0.245 OA
ATOM     32  C   UNL     1      -6.810 -10.307  18.829  0.00  0.00    +0.337 C 
BRANCH  32   4
ATOM      4  O   UNL     1      -7.990  -9.727  18.475  0.00  0.00    -0.477 OA
ATOM     35  H   UNL     1      -8.475  -9.380  19.255  0.00  0.00    +0.295 HD
ENDBRANCH  32   4
ENDBRANCH  26  32
ENDBRANCH  16  18
ENDBRANCH   6  16
TORSDOF 6
ENDMDL
