MODEL 1
REMARK VINA RESULT:      -6.5      0.000      0.000
REMARK  Name = 44716869
REMARK  13 active torsions:
REMARK  status: ('A' for Active; 'I' for Inactive)
REMARK    1  A    between atoms: O_2  and  C_15
REMARK    2  A    between atoms: O_2  and  C_24
REMARK    3  A    between atoms: O_3  and  C_16
REMARK    4  A    between atoms: O_4  and  C_20
REMARK    5  A    between atoms: N_7  and  C_25
REMARK    6  A    between atoms: N_8  and  C_26
REMARK    7  A    between atoms: C_9  and  C_19
REMARK    8  A    between atoms: C_11  and  C_20
REMARK    9  A    between atoms: C_11  and  C_21
REMARK   10  A    between atoms: C_12  and  C_22
REMARK   11  A    between atoms: C_22  and  C_23
REMARK   12  A    between atoms: C_25  and  C_27
REMARK   13  A    between atoms: C_26  and  C_28
REMARK                            x       y       z     vdW  Elec       q    Type
REMARK                         _______ _______ _______ _____ _____    ______ ____
ROOT
ATOM      9  C   UNL     1     -12.470   7.977  19.697  0.00  0.00    -0.023 C 
ATOM     10  C   UNL     1     -14.035   7.945  19.900  0.00  0.00    +0.007 C 
ATOM     11  C   UNL     1     -14.556   7.480  21.314  0.00  0.00    +0.031 C 
ATOM     12  C   UNL     1     -12.210   8.155  18.144  0.00  0.00    +0.032 C 
ATOM     13  C   UNL     1     -11.888   6.614  20.159  0.00  0.00    +0.011 C 
ATOM     14  C   UNL     1     -14.686   9.242  19.369  0.00  0.00    +0.007 C 
ATOM     15  C   UNL     1     -13.842   6.150  21.700  0.00  0.00    +0.186 C 
ATOM     16  C   UNL     1     -12.914   9.392  17.539  0.00  0.00    +0.119 C 
ATOM     17  C   UNL     1     -12.324   6.203  21.560  0.00  0.00    +0.046 C 
ATOM     18  C   UNL     1     -14.402   9.435  17.879  0.00  0.00    +0.032 C 
ATOM     19  C   UNL     1     -11.764   9.097  20.499  0.00  0.00    +0.012 C 
ATOM     21  C   UNL     1     -16.081   7.179  21.220  0.00  0.00    +0.017 C 
ENDROOT
BRANCH  16   3
ATOM      3  O   UNL     1     -12.287  10.596  17.971  0.00  0.00    -0.391 OA
ATOM     32  H   UNL     1     -12.986  11.246  18.154  0.00  0.00    +0.210 HD
ENDBRANCH  16   3
BRANCH  15   2
ATOM      2  O   UNL     1     -14.125   5.766  23.045  0.00  0.00    -0.446 OA
BRANCH   2  24
ATOM      6  O   UNL     1     -15.381   4.005  22.275  0.00  0.00    -0.226 OA
ATOM      8  N   UNL     1     -15.028   4.352  24.542  0.00  0.00    -0.281 N 
ATOM     24  C   UNL     1     -14.893   4.644  23.202  0.00  0.00    +0.401 C 
ATOM     35  H   UNL     1     -14.567   4.959  25.212  0.00  0.00    +0.152 HD
BRANCH   8  26
ATOM     26  C   UNL     1     -15.780   3.226  25.046  0.00  0.00    +0.104 C 
ATOM     28  C   UNL     1     -16.184   3.429  26.492  0.00  0.00    +0.024 C 
ENDBRANCH   8  26
ENDBRANCH   2  24
ENDBRANCH  15   2
BRANCH  11  20
ATOM     20  C   UNL     1     -14.406   8.542  22.421  0.00  0.00    +0.166 C 
BRANCH  20   4
ATOM      4  O   UNL     1     -15.254   8.178  23.489  0.00  0.00    -0.394 OA
ATOM     33  H   UNL     1     -14.883   7.376  23.893  0.00  0.00    +0.209 HD
ENDBRANCH  20   4
ENDBRANCH  11  20
BRANCH  12  22
ATOM     22  C   UNL     1     -10.729   8.145  17.731  0.00  0.00    +0.102 C 
BRANCH  22  23
ATOM      5  O   UNL     1     -10.260   9.742  15.976  0.00  0.00    -0.276 OA
ATOM      7  N   UNL     1     -10.724   7.533  15.424  0.00  0.00    -0.311 N 
ATOM     23  C   UNL     1     -10.539   8.592  16.301  0.00  0.00    +0.214 C 
ATOM     34  H   UNL     1     -10.937   6.611  15.795  0.00  0.00    +0.149 HD
BRANCH   7  25
ATOM     25  C   UNL     1     -10.607   7.666  13.990  0.00  0.00    +0.146 C 
BRANCH  25  27
ATOM      1  S   UNL     1     -12.051   9.466  12.444  0.00  0.00    -0.100 S 
ATOM     27  C   UNL     1     -11.920   8.020  13.351  0.00  0.00    +0.007 A 
ATOM     29  C   UNL     1     -13.106   7.321  13.385  0.00  0.00    +0.013 A 
ATOM     30  C   UNL     1     -14.137   7.981  12.655  0.00  0.00    +0.008 A 
ATOM     31  C   UNL     1     -13.699   9.160  12.093  0.00  0.00    +0.045 A 
ENDBRANCH  25  27
ENDBRANCH   7  25
ENDBRANCH  22  23
ENDBRANCH  12  22
TORSDOF 10
ENDMDL
MODEL 2
REMARK VINA RESULT:      -6.4     25.423     27.832
REMARK  Name = 44716869
REMARK  13 active torsions:
REMARK  status: ('A' for Active; 'I' for Inactive)
REMARK    1  A    between atoms: O_2  and  C_15
REMARK    2  A    between atoms: O_2  and  C_24
REMARK    3  A    between atoms: O_3  and  C_16
REMARK    4  A    between atoms: O_4  and  C_20
REMARK    5  A    between atoms: N_7  and  C_25
REMARK    6  A    between atoms: N_8  and  C_26
REMARK    7  A    between atoms: C_9  and  C_19
REMARK    8  A    between atoms: C_11  and  C_20
REMARK    9  A    between atoms: C_11  and  C_21
REMARK   10  A    between atoms: C_12  and  C_22
REMARK   11  A    between atoms: C_22  and  C_23
REMARK   12  A    between atoms: C_25  and  C_27
REMARK   13  A    between atoms: C_26  and  C_28
REMARK                            x       y       z     vdW  Elec       q    Type
REMARK                         _______ _______ _______ _____ _____    ______ ____
ROOT
ATOM      9  C   UNL     1      14.109   9.337  19.753  0.00  0.00    -0.023 C 
ATOM     10  C   UNL     1      12.940   9.047  18.733  0.00  0.00    +0.007 C 
ATOM     11  C   UNL     1      13.248   9.315  17.210  0.00  0.00    +0.031 C 
ATOM     12  C   UNL     1      13.473   9.308  21.205  0.00  0.00    +0.032 C 
ATOM     13  C   UNL     1      14.666  10.758  19.470  0.00  0.00    +0.011 C 
ATOM     14  C   UNL     1      12.279   7.682  19.026  0.00  0.00    +0.007 C 
ATOM     15  C   UNL     1      13.875  10.734  17.065  0.00  0.00    +0.186 C 
ATOM     16  C   UNL     1      12.719   7.994  21.520  0.00  0.00    +0.119 C 
ATOM     17  C   UNL     1      15.043  10.991  18.011  0.00  0.00    +0.046 C 
ATOM     18  C   UNL     1      11.700   7.638  20.441  0.00  0.00    +0.032 C 
ATOM     19  C   UNL     1      15.282   8.333  19.653  0.00  0.00    +0.012 C 
ATOM     21  C   UNL     1      11.910   9.315  16.413  0.00  0.00    +0.017 C 
ENDROOT
BRANCH  16   3
ATOM      3  O   UNL     1      13.631   6.914  21.695  0.00  0.00    -0.391 OA
ATOM     32  H   UNL     1      13.964   6.953  22.607  0.00  0.00    +0.210 HD
ENDBRANCH  16   3
BRANCH  15   2
ATOM      2  O   UNL     1      14.349  10.973  15.740  0.00  0.00    -0.446 OA
BRANCH   2  24
ATOM      6  O   UNL     1      14.356  13.261  15.546  0.00  0.00    -0.226 OA
ATOM      8  N   UNL     1      13.101  11.921  14.127  0.00  0.00    -0.281 N 
ATOM     24  C   UNL     1      13.970  12.159  15.170  0.00  0.00    +0.401 C 
ATOM     35  H   UNL     1      12.865  10.957  13.912  0.00  0.00    +0.152 HD
BRANCH   8  26
ATOM     26  C   UNL     1      12.517  12.964  13.317  0.00  0.00    +0.104 C 
ATOM     28  C   UNL     1      12.897  12.814  11.858  0.00  0.00    +0.024 C 
ENDBRANCH   8  26
ENDBRANCH   2  24
ENDBRANCH  15   2
BRANCH  11  20
ATOM     20  C   UNL     1      14.130   8.239  16.547  0.00  0.00    +0.166 C 
BRANCH  20   4
ATOM      4  O   UNL     1      13.945   8.325  15.150  0.00  0.00    -0.394 OA
ATOM     33  H   UNL     1      13.567   9.201  14.962  0.00  0.00    +0.209 HD
ENDBRANCH  20   4
ENDBRANCH  11  20
BRANCH  12  22
ATOM     22  C   UNL     1      14.450   9.634  22.345  0.00  0.00    +0.102 C 
BRANCH  22  23
ATOM      5  O   UNL     1      14.711  11.809  23.373  0.00  0.00    -0.276 OA
ATOM      7  N   UNL     1      12.694  10.675  23.584  0.00  0.00    -0.311 N 
ATOM     23  C   UNL     1      14.001  10.833  23.146  0.00  0.00    +0.214 C 
ATOM     34  H   UNL     1      12.184   9.833  23.328  0.00  0.00    +0.149 HD
BRANCH   7  25
ATOM     25  C   UNL     1      12.001  11.664  24.377  0.00  0.00    +0.146 C 
BRANCH  25  27
ATOM      1  S   UNL     1      10.383  13.919  24.264  0.00  0.00    -0.100 S 
ATOM     27  C   UNL     1      11.254  12.646  23.520  0.00  0.00    +0.007 A 
ATOM     29  C   UNL     1      11.154  12.684  22.147  0.00  0.00    +0.013 A 
ATOM     30  C   UNL     1      10.352  13.774  21.699  0.00  0.00    +0.008 A 
ATOM     31  C   UNL     1       9.869  14.526  22.747  0.00  0.00    +0.045 A 
ENDBRANCH  25  27
ENDBRANCH   7  25
ENDBRANCH  22  23
ENDBRANCH  12  22
TORSDOF 10
ENDMDL
MODEL 3
REMARK VINA RESULT:      -6.4     17.947     19.906
REMARK  Name = 44716869
REMARK  13 active torsions:
REMARK  status: ('A' for Active; 'I' for Inactive)
REMARK    1  A    between atoms: O_2  and  C_15
REMARK    2  A    between atoms: O_2  and  C_24
REMARK    3  A    between atoms: O_3  and  C_16
REMARK    4  A    between atoms: O_4  and  C_20
REMARK    5  A    between atoms: N_7  and  C_25
REMARK    6  A    between atoms: N_8  and  C_26
REMARK    7  A    between atoms: C_9  and  C_19
REMARK    8  A    between atoms: C_11  and  C_20
REMARK    9  A    between atoms: C_11  and  C_21
REMARK   10  A    between atoms: C_12  and  C_22
REMARK   11  A    between atoms: C_22  and  C_23
REMARK   12  A    between atoms: C_25  and  C_27
REMARK   13  A    between atoms: C_26  and  C_28
REMARK                            x       y       z     vdW  Elec       q    Type
REMARK                         _______ _______ _______ _____ _____    ______ ____
ROOT
ATOM      9  C   UNL     1      -7.221 -10.552  17.514  0.00  0.00    -0.023 C 
ATOM     10  C   UNL     1      -6.883 -12.020  17.045  0.00  0.00    +0.007 C 
ATOM     11  C   UNL     1      -5.360 -12.432  17.051  0.00  0.00    +0.031 C 
ATOM     12  C   UNL     1      -8.731 -10.278  17.120  0.00  0.00    +0.032 C 
ATOM     13  C   UNL     1      -6.305  -9.566  16.739  0.00  0.00    +0.011 C 
ATOM     14  C   UNL     1      -7.829 -13.043  17.712  0.00  0.00    +0.007 C 
ATOM     15  C   UNL     1      -4.538 -11.329  16.318  0.00  0.00    +0.186 C 
ATOM     16  C   UNL     1      -9.715 -11.326  17.689  0.00  0.00    +0.119 C 
ATOM     17  C   UNL     1      -4.823  -9.916  16.815  0.00  0.00    +0.046 C 
ATOM     18  C   UNL     1      -9.290 -12.756  17.365  0.00  0.00    +0.032 C 
ATOM     19  C   UNL     1      -7.003 -10.320  19.029  0.00  0.00    +0.012 C 
ATOM     21  C   UNL     1      -5.188 -13.753  16.246  0.00  0.00    +0.017 C 
ENDROOT
BRANCH  16   3
ATOM      3  O   UNL     1      -9.862 -11.175  19.097  0.00  0.00    -0.391 OA
ATOM     32  H   UNL     1      -9.350 -10.394  19.367  0.00  0.00    +0.210 HD
ENDBRANCH  16   3
BRANCH  15   2
ATOM      2  O   UNL     1      -3.132 -11.543  16.445  0.00  0.00    -0.446 OA
BRANCH   2  24
ATOM      6  O   UNL     1      -1.379 -10.181  15.860  0.00  0.00    -0.226 OA
ATOM      8  N   UNL     1      -2.785 -11.110  14.265  0.00  0.00    -0.281 N 
ATOM     24  C   UNL     1      -2.340 -10.877  15.549  0.00  0.00    +0.401 C 
ATOM     35  H   UNL     1      -3.592 -11.714  14.142  0.00  0.00    +0.152 HD
BRANCH   8  26
ATOM     26  C   UNL     1      -2.164 -10.552  13.087  0.00  0.00    +0.104 C 
ATOM     28  C   UNL     1      -3.172 -10.335  11.977  0.00  0.00    +0.024 C 
ENDBRANCH   8  26
ENDBRANCH   2  24
ENDBRANCH  15   2
BRANCH  11  20
ATOM     20  C   UNL     1      -4.791 -12.720  18.454  0.00  0.00    +0.166 C 
BRANCH  20   4
ATOM      4  O   UNL     1      -4.079 -13.936  18.393  0.00  0.00    -0.394 OA
ATOM     33  H   UNL     1      -4.147 -14.266  17.481  0.00  0.00    +0.209 HD
ENDBRANCH  20   4
ENDBRANCH  11  20
BRANCH  12  22
ATOM     22  C   UNL     1      -9.236  -8.861  17.440  0.00  0.00    +0.102 C 
BRANCH  22  23
ATOM      5  O   UNL     1      -9.515  -8.550  15.057  0.00  0.00    -0.276 OA
ATOM      7  N   UNL     1     -10.285  -6.921  16.525  0.00  0.00    -0.311 N 
ATOM     23  C   UNL     1      -9.679  -8.126  16.197  0.00  0.00    +0.214 C 
ATOM     34  H   UNL     1     -10.387  -6.667  17.504  0.00  0.00    +0.149 HD
BRANCH   7  25
ATOM     25  C   UNL     1     -10.805  -6.005  15.537  0.00  0.00    +0.146 C 
BRANCH  25  27
ATOM      1  S   UNL     1     -13.032  -5.403  13.989  0.00  0.00    -0.100 S 
ATOM     27  C   UNL     1     -12.269  -6.226  15.283  0.00  0.00    +0.007 A 
ATOM     29  C   UNL     1     -13.146  -7.035  15.970  0.00  0.00    +0.013 A 
ATOM     30  C   UNL     1     -14.463  -6.980  15.427  0.00  0.00    +0.008 A 
ATOM     31  C   UNL     1     -14.541  -6.130  14.346  0.00  0.00    +0.045 A 
ENDBRANCH  25  27
ENDBRANCH   7  25
ENDBRANCH  22  23
ENDBRANCH  12  22
TORSDOF 10
ENDMDL
MODEL 4
REMARK VINA RESULT:      -6.3     19.112     20.520
REMARK  Name = 44716869
REMARK  13 active torsions:
REMARK  status: ('A' for Active; 'I' for Inactive)
REMARK    1  A    between atoms: O_2  and  C_15
REMARK    2  A    between atoms: O_2  and  C_24
REMARK    3  A    between atoms: O_3  and  C_16
REMARK    4  A    between atoms: O_4  and  C_20
REMARK    5  A    between atoms: N_7  and  C_25
REMARK    6  A    between atoms: N_8  and  C_26
REMARK    7  A    between atoms: C_9  and  C_19
REMARK    8  A    between atoms: C_11  and  C_20
REMARK    9  A    between atoms: C_11  and  C_21
REMARK   10  A    between atoms: C_12  and  C_22
REMARK   11  A    between atoms: C_22  and  C_23
REMARK   12  A    between atoms: C_25  and  C_27
REMARK   13  A    between atoms: C_26  and  C_28
REMARK                            x       y       z     vdW  Elec       q    Type
REMARK                         _______ _______ _______ _____ _____    ______ ____
ROOT
ATOM      9  C   UNL     1      -4.323 -11.524  14.730  0.00  0.00    -0.023 C 
ATOM     10  C   UNL     1      -4.245 -10.896  16.176  0.00  0.00    +0.007 C 
ATOM     11  C   UNL     1      -5.417 -11.257  17.169  0.00  0.00    +0.031 C 
ATOM     12  C   UNL     1      -3.244 -10.775  13.843  0.00  0.00    +0.032 C 
ATOM     13  C   UNL     1      -5.738 -11.250  14.152  0.00  0.00    +0.011 C 
ATOM     14  C   UNL     1      -2.828 -11.053  16.769  0.00  0.00    +0.007 C 
ATOM     15  C   UNL     1      -6.778 -11.018  16.448  0.00  0.00    +0.186 C 
ATOM     16  C   UNL     1      -1.817 -10.824  14.438  0.00  0.00    +0.119 C 
ATOM     17  C   UNL     1      -6.873 -11.677  15.076  0.00  0.00    +0.046 C 
ATOM     18  C   UNL     1      -1.780 -10.364  15.893  0.00  0.00    +0.032 C 
ATOM     19  C   UNL     1      -4.082 -13.053  14.705  0.00  0.00    +0.012 C 
ATOM     21  C   UNL     1      -5.362 -10.295  18.391  0.00  0.00    +0.017 C 
ENDROOT
BRANCH  16   3
ATOM      3  O   UNL     1      -1.267 -12.133  14.333  0.00  0.00    -0.391 OA
ATOM     32  H   UNL     1      -0.980 -12.406  15.220  0.00  0.00    +0.210 HD
ENDBRANCH  16   3
BRANCH  15   2
ATOM      2  O   UNL     1      -7.878 -11.498  17.220  0.00  0.00    -0.446 OA
BRANCH   2  24
ATOM      6  O   UNL     1     -10.133 -11.206  16.900  0.00  0.00    -0.226 OA
ATOM      8  N   UNL     1      -8.739  -9.432  17.442  0.00  0.00    -0.281 N 
ATOM     24  C   UNL     1      -9.024 -10.752  17.163  0.00  0.00    +0.401 C 
ATOM     35  H   UNL     1      -7.776  -9.186  17.651  0.00  0.00    +0.152 HD
BRANCH   8  26
ATOM     26  C   UNL     1      -9.732  -8.384  17.463  0.00  0.00    +0.104 C 
ATOM     28  C   UNL     1      -9.824  -7.677  16.127  0.00  0.00    +0.024 C 
ENDBRANCH   8  26
ENDBRANCH   2  24
ENDBRANCH  15   2
BRANCH  11  20
ATOM     20  C   UNL     1      -5.331 -12.681  17.753  0.00  0.00    +0.166 C 
BRANCH  20   4
ATOM      4  O   UNL     1      -6.055 -12.698  18.964  0.00  0.00    -0.394 OA
ATOM     33  H   UNL     1      -5.989 -11.810  19.353  0.00  0.00    +0.209 HD
ENDBRANCH  20   4
ENDBRANCH  11  20
BRANCH  12  22
ATOM     22  C   UNL     1      -3.209 -11.205  12.368  0.00  0.00    +0.102 C 
BRANCH  22  23
ATOM      5  O   UNL     1      -2.238  -9.547  10.898  0.00  0.00    -0.276 OA
ATOM      7  N   UNL     1      -4.532  -9.547  11.271  0.00  0.00    -0.311 N 
ATOM     23  C   UNL     1      -3.237 -10.019  11.433  0.00  0.00    +0.214 C 
ATOM     34  H   UNL     1      -5.295 -10.019  11.748  0.00  0.00    +0.149 HD
BRANCH   7  25
ATOM     25  C   UNL     1      -4.861  -8.416  10.434  0.00  0.00    +0.146 C 
BRANCH  25  27
ATOM      1  S   UNL     1      -7.134  -8.360   8.840  0.00  0.00    -0.100 S 
ATOM     27  C   UNL     1      -5.521  -8.840   9.154  0.00  0.00    +0.007 A 
ATOM     29  C   UNL     1      -4.999  -9.601   8.131  0.00  0.00    +0.013 A 
ATOM     30  C   UNL     1      -5.937  -9.793   7.075  0.00  0.00    +0.008 A 
ATOM     31  C   UNL     1      -7.139  -9.171   7.331  0.00  0.00    +0.045 A 
ENDBRANCH  25  27
ENDBRANCH   7  25
ENDBRANCH  22  23
ENDBRANCH  12  22
TORSDOF 10
ENDMDL
MODEL 5
REMARK VINA RESULT:      -6.2     18.857     20.642
REMARK  Name = 44716869
REMARK  13 active torsions:
REMARK  status: ('A' for Active; 'I' for Inactive)
REMARK    1  A    between atoms: O_2  and  C_15
REMARK    2  A    between atoms: O_2  and  C_24
REMARK    3  A    between atoms: O_3  and  C_16
REMARK    4  A    between atoms: O_4  and  C_20
REMARK    5  A    between atoms: N_7  and  C_25
REMARK    6  A    between atoms: N_8  and  C_26
REMARK    7  A    between atoms: C_9  and  C_19
REMARK    8  A    between atoms: C_11  and  C_20
REMARK    9  A    between atoms: C_11  and  C_21
REMARK   10  A    between atoms: C_12  and  C_22
REMARK   11  A    between atoms: C_22  and  C_23
REMARK   12  A    between atoms: C_25  and  C_27
REMARK   13  A    between atoms: C_26  and  C_28
REMARK                            x       y       z     vdW  Elec       q    Type
REMARK                         _______ _______ _______ _____ _____    ______ ____
ROOT
ATOM      9  C   UNL     1      -7.205 -10.483  16.995  0.00  0.00    -0.023 C 
ATOM     10  C   UNL     1      -6.665 -11.952  17.200  0.00  0.00    +0.007 C 
ATOM     11  C   UNL     1      -5.138 -12.099  17.567  0.00  0.00    +0.031 C 
ATOM     12  C   UNL     1      -8.639 -10.607  16.331  0.00  0.00    +0.032 C 
ATOM     13  C   UNL     1      -6.253  -9.742  16.017  0.00  0.00    +0.011 C 
ATOM     14  C   UNL     1      -7.623 -12.772  18.091  0.00  0.00    +0.007 C 
ATOM     15  C   UNL     1      -4.296 -11.249  16.569  0.00  0.00    +0.186 C 
ATOM     16  C   UNL     1      -9.616 -11.494  17.139  0.00  0.00    +0.119 C 
ATOM     17  C   UNL     1      -4.784  -9.812  16.418  0.00  0.00    +0.046 C 
ATOM     18  C   UNL     1      -9.019 -12.859  17.471  0.00  0.00    +0.032 C 
ATOM     19  C   UNL     1      -7.281  -9.663  18.305  0.00  0.00    +0.012 C 
ATOM     21  C   UNL     1      -4.712 -13.586  17.387  0.00  0.00    +0.017 C 
ENDROOT
BRANCH  16   3
ATOM      3  O   UNL     1     -10.022 -10.843  18.338  0.00  0.00    -0.391 OA
ATOM     32  H   UNL     1     -10.278 -11.529  18.977  0.00  0.00    +0.210 HD
ENDBRANCH  16   3
BRANCH  15   2
ATOM      2  O   UNL     1      -2.922 -11.187  16.952  0.00  0.00    -0.446 OA
BRANCH   2  24
ATOM      6  O   UNL     1      -1.087 -10.358  15.848  0.00  0.00    -0.226 OA
ATOM      8  N   UNL     1      -2.299 -12.156  15.021  0.00  0.00    -0.281 N 
ATOM     24  C   UNL     1      -2.013 -11.159  15.929  0.00  0.00    +0.401 C 
ATOM     35  H   UNL     1      -3.093 -12.759  15.208  0.00  0.00    +0.152 HD
BRANCH   8  26
ATOM     26  C   UNL     1      -1.526 -12.397  13.825  0.00  0.00    +0.104 C 
ATOM     28  C   UNL     1      -2.091 -11.645  12.637  0.00  0.00    +0.024 C 
ENDBRANCH   8  26
ENDBRANCH   2  24
ENDBRANCH  15   2
BRANCH  11  20
ATOM     20  C   UNL     1      -4.805 -11.743  19.030  0.00  0.00    +0.166 C 
BRANCH  20   4
ATOM      4  O   UNL     1      -3.561 -12.329  19.347  0.00  0.00    -0.394 OA
ATOM     33  H   UNL     1      -3.727 -13.016  20.015  0.00  0.00    +0.209 HD
ENDBRANCH  20   4
ENDBRANCH  11  20
BRANCH  12  22
ATOM     22  C   UNL     1      -9.312  -9.268  15.991  0.00  0.00    +0.102 C 
BRANCH  22  23
ATOM      5  O   UNL     1     -10.758  -8.692  14.138  0.00  0.00    -0.276 OA
ATOM      7  N   UNL     1      -8.732  -9.754  13.726  0.00  0.00    -0.311 N 
ATOM     23  C   UNL     1      -9.708  -9.190  14.536  0.00  0.00    +0.214 C 
ATOM     34  H   UNL     1      -7.888 -10.128  14.153  0.00  0.00    +0.149 HD
BRANCH   7  25
ATOM     25  C   UNL     1      -8.843  -9.824  12.287  0.00  0.00    +0.146 C 
BRANCH  25  27
ATOM      1  S   UNL     1      -7.591  -9.108   9.914  0.00  0.00    -0.100 S 
ATOM     27  C   UNL     1      -7.584  -9.372  11.606  0.00  0.00    +0.007 A 
ATOM     29  C   UNL     1      -6.349  -9.123  12.163  0.00  0.00    +0.013 A 
ATOM     30  C   UNL     1      -5.395  -8.710  11.188  0.00  0.00    +0.008 A 
ATOM     31  C   UNL     1      -5.938  -8.659   9.922  0.00  0.00    +0.045 A 
ENDBRANCH  25  27
ENDBRANCH   7  25
ENDBRANCH  22  23
ENDBRANCH  12  22
TORSDOF 10
ENDMDL
MODEL 6
REMARK VINA RESULT:      -5.9     26.503     32.050
REMARK  Name = 44716869
REMARK  13 active torsions:
REMARK  status: ('A' for Active; 'I' for Inactive)
REMARK    1  A    between atoms: O_2  and  C_15
REMARK    2  A    between atoms: O_2  and  C_24
REMARK    3  A    between atoms: O_3  and  C_16
REMARK    4  A    between atoms: O_4  and  C_20
REMARK    5  A    between atoms: N_7  and  C_25
REMARK    6  A    between atoms: N_8  and  C_26
REMARK    7  A    between atoms: C_9  and  C_19
REMARK    8  A    between atoms: C_11  and  C_20
REMARK    9  A    between atoms: C_11  and  C_21
REMARK   10  A    between atoms: C_12  and  C_22
REMARK   11  A    between atoms: C_22  and  C_23
REMARK   12  A    between atoms: C_25  and  C_27
REMARK   13  A    between atoms: C_26  and  C_28
REMARK                            x       y       z     vdW  Elec       q    Type
REMARK                         _______ _______ _______ _____ _____    ______ ____
ROOT
ATOM      9  C   UNL     1      11.350   5.008   0.057  0.00  0.00    -0.023 C 
ATOM     10  C   UNL     1      11.982   3.725  -0.612  0.00  0.00    +0.007 C 
ATOM     11  C   UNL     1      11.975   3.672  -2.188  0.00  0.00    +0.031 C 
ATOM     12  C   UNL     1      11.181   4.689   1.600  0.00  0.00    +0.032 C 
ATOM     13  C   UNL     1       9.951   5.250  -0.571  0.00  0.00    +0.011 C 
ATOM     14  C   UNL     1      13.339   3.376   0.039  0.00  0.00    +0.007 C 
ATOM     15  C   UNL     1      10.541   4.010  -2.697  0.00  0.00    +0.186 C 
ATOM     16  C   UNL     1      12.496   4.247   2.284  0.00  0.00    +0.119 C 
ATOM     17  C   UNL     1       9.958   5.283  -2.095  0.00  0.00    +0.046 C 
ATOM     18  C   UNL     1      13.183   3.107   1.536  0.00  0.00    +0.032 C 
ATOM     19  C   UNL     1      12.195   6.290  -0.145  0.00  0.00    +0.012 C 
ATOM     21  C   UNL     1      12.304   2.222  -2.650  0.00  0.00    +0.017 C 
ENDROOT
BRANCH  16   3
ATOM      3  O   UNL     1      13.394   5.344   2.419  0.00  0.00    -0.391 OA
ATOM     32  H   UNL     1      13.548   5.712   1.533  0.00  0.00    +0.210 HD
ENDBRANCH  16   3
BRANCH  15   2
ATOM      2  O   UNL     1      10.504   4.162  -4.116  0.00  0.00    -0.446 OA
BRANCH   2  24
ATOM      6  O   UNL     1       9.235   2.260  -4.328  0.00  0.00    -0.226 OA
ATOM      8  N   UNL     1      10.344   3.194  -6.139  0.00  0.00    -0.281 N 
ATOM     24  C   UNL     1       9.958   3.121  -4.818  0.00  0.00    +0.401 C 
ATOM     35  H   UNL     1      10.943   3.964  -6.420  0.00  0.00    +0.152 HD
BRANCH   8  26
ATOM     26  C   UNL     1       9.937   2.243  -7.147  0.00  0.00    +0.104 C 
ATOM     28  C   UNL     1       8.922   2.841  -8.099  0.00  0.00    +0.024 C 
ENDBRANCH   8  26
ENDBRANCH   2  24
ENDBRANCH  15   2
BRANCH  11  20
ATOM     20  C   UNL     1      13.035   4.573  -2.853  0.00  0.00    +0.166 C 
BRANCH  20   4
ATOM      4  O   UNL     1      13.636   3.839  -3.897  0.00  0.00    -0.394 OA
ATOM     33  H   UNL     1      13.620   4.399  -4.691  0.00  0.00    +0.209 HD
ENDBRANCH  20   4
ENDBRANCH  11  20
BRANCH  12  22
ATOM     22  C   UNL     1      10.516   5.806   2.421  0.00  0.00    +0.102 C 
BRANCH  22  23
ATOM      5  O   UNL     1       9.956   4.628   4.459  0.00  0.00    -0.276 OA
ATOM      7  N   UNL     1      11.428   6.425   4.539  0.00  0.00    -0.311 N 
ATOM     23  C   UNL     1      10.580   5.528   3.904  0.00  0.00    +0.214 C 
ATOM     34  H   UNL     1      11.912   7.127   3.986  0.00  0.00    +0.149 HD
BRANCH   7  25
ATOM     25  C   UNL     1      11.680   6.401   5.962  0.00  0.00    +0.146 C 
BRANCH  25  27
ATOM      1  S   UNL     1      10.991   8.862   7.048  0.00  0.00    -0.100 S 
ATOM     27  C   UNL     1      10.672   7.212   6.724  0.00  0.00    +0.007 A 
ATOM     29  C   UNL     1       9.457   6.810   7.234  0.00  0.00    +0.013 A 
ATOM     30  C   UNL     1       8.779   7.871   7.900  0.00  0.00    +0.008 A 
ATOM     31  C   UNL     1       9.501   9.044   7.874  0.00  0.00    +0.045 A 
ENDBRANCH  25  27
ENDBRANCH   7  25
ENDBRANCH  22  23
ENDBRANCH  12  22
TORSDOF 10
ENDMDL
MODEL 7
REMARK VINA RESULT:      -5.8      2.302      2.989
REMARK  Name = 44716869
REMARK  13 active torsions:
REMARK  status: ('A' for Active; 'I' for Inactive)
REMARK    1  A    between atoms: O_2  and  C_15
REMARK    2  A    between atoms: O_2  and  C_24
REMARK    3  A    between atoms: O_3  and  C_16
REMARK    4  A    between atoms: O_4  and  C_20
REMARK    5  A    between atoms: N_7  and  C_25
REMARK    6  A    between atoms: N_8  and  C_26
REMARK    7  A    between atoms: C_9  and  C_19
REMARK    8  A    between atoms: C_11  and  C_20
REMARK    9  A    between atoms: C_11  and  C_21
REMARK   10  A    between atoms: C_12  and  C_22
REMARK   11  A    between atoms: C_22  and  C_23
REMARK   12  A    between atoms: C_25  and  C_27
REMARK   13  A    between atoms: C_26  and  C_28
REMARK                            x       y       z     vdW  Elec       q    Type
REMARK                         _______ _______ _______ _____ _____    ______ ____
ROOT
ATOM      9  C   UNL     1     -11.599   9.155  18.676  0.00  0.00    -0.023 C 
ATOM     10  C   UNL     1     -12.868   9.829  19.329  0.00  0.00    +0.007 C 
ATOM     11  C   UNL     1     -13.412   9.174  20.657  0.00  0.00    +0.031 C 
ATOM     12  C   UNL     1     -11.446   9.770  17.223  0.00  0.00    +0.032 C 
ATOM     13  C   UNL     1     -11.858   7.629  18.559  0.00  0.00    +0.011 C 
ATOM     14  C   UNL     1     -12.709  11.364  19.386  0.00  0.00    +0.007 C 
ATOM     15  C   UNL     1     -13.553   7.638  20.440  0.00  0.00    +0.186 C 
ATOM     16  C   UNL     1     -11.372  11.315  17.214  0.00  0.00    +0.119 C 
ATOM     17  C   UNL     1     -12.303   6.980  19.864  0.00  0.00    +0.046 C 
ATOM     18  C   UNL     1     -12.521  11.955  17.988  0.00  0.00    +0.032 C 
ATOM     19  C   UNL     1     -10.300   9.360  19.493  0.00  0.00    +0.012 C 
ATOM     21  C   UNL     1     -14.834   9.735  20.955  0.00  0.00    +0.017 C 
ENDROOT
BRANCH  16   3
ATOM      3  O   UNL     1     -10.128  11.769  17.738  0.00  0.00    -0.391 OA
ATOM     32  H   UNL     1     -10.001  12.688  17.450  0.00  0.00    +0.210 HD
ENDBRANCH  16   3
BRANCH  15   2
ATOM      2  O   UNL     1     -13.864   6.956  21.654  0.00  0.00    -0.446 OA
BRANCH   2  24
ATOM      6  O   UNL     1     -14.321   4.717  21.876  0.00  0.00    -0.226 OA
ATOM      8  N   UNL     1     -15.870   6.195  20.982  0.00  0.00    -0.281 N 
ATOM     24  C   UNL     1     -14.657   5.847  21.536  0.00  0.00    +0.401 C 
ATOM     35  H   UNL     1     -16.027   7.171  20.749  0.00  0.00    +0.152 HD
BRANCH   8  26
ATOM     26  C   UNL     1     -16.934   5.253  20.724  0.00  0.00    +0.104 C 
ATOM     28  C   UNL     1     -17.113   5.008  19.239  0.00  0.00    +0.024 C 
ENDBRANCH   8  26
ENDBRANCH   2  24
ENDBRANCH  15   2
BRANCH  11  20
ATOM     20  C   UNL     1     -12.567   9.491  21.907  0.00  0.00    +0.166 C 
BRANCH  20   4
ATOM      4  O   UNL     1     -13.380  10.208  22.811  0.00  0.00    -0.394 OA
ATOM     33  H   UNL     1     -14.193   9.690  22.941  0.00  0.00    +0.209 HD
ENDBRANCH  20   4
ENDBRANCH  11  20
BRANCH  12  22
ATOM     22  C   UNL     1     -10.290   9.188  16.394  0.00  0.00    +0.102 C 
BRANCH  22  23
ATOM      5  O   UNL     1     -10.053   7.905  14.356  0.00  0.00    -0.276 OA
ATOM      7  N   UNL     1     -12.165   8.586  15.045  0.00  0.00    -0.311 N 
ATOM     23  C   UNL     1     -10.786   8.484  15.153  0.00  0.00    +0.214 C 
ATOM     34  H   UNL     1     -12.685   9.075  15.768  0.00  0.00    +0.149 HD
BRANCH   7  25
ATOM     25  C   UNL     1     -12.916   8.008  13.953  0.00  0.00    +0.146 C 
BRANCH  25  27
ATOM      1  S   UNL     1     -15.223   6.593  13.328  0.00  0.00    -0.100 S 
ATOM     27  C   UNL     1     -14.274   7.540  14.393  0.00  0.00    +0.007 A 
ATOM     29  C   UNL     1     -14.913   7.768  15.591  0.00  0.00    +0.013 A 
ATOM     30  C   UNL     1     -16.200   7.157  15.636  0.00  0.00    +0.008 A 
ATOM     31  C   UNL     1     -16.495   6.486  14.470  0.00  0.00    +0.045 A 
ENDBRANCH  25  27
ENDBRANCH   7  25
ENDBRANCH  22  23
ENDBRANCH  12  22
TORSDOF 10
ENDMDL
MODEL 8
REMARK VINA RESULT:      -5.7     27.617     32.162
REMARK  Name = 44716869
REMARK  13 active torsions:
REMARK  status: ('A' for Active; 'I' for Inactive)
REMARK    1  A    between atoms: O_2  and  C_15
REMARK    2  A    between atoms: O_2  and  C_24
REMARK    3  A    between atoms: O_3  and  C_16
REMARK    4  A    between atoms: O_4  and  C_20
REMARK    5  A    between atoms: N_7  and  C_25
REMARK    6  A    between atoms: N_8  and  C_26
REMARK    7  A    between atoms: C_9  and  C_19
REMARK    8  A    between atoms: C_11  and  C_20
REMARK    9  A    between atoms: C_11  and  C_21
REMARK   10  A    between atoms: C_12  and  C_22
REMARK   11  A    between atoms: C_22  and  C_23
REMARK   12  A    between atoms: C_25  and  C_27
REMARK   13  A    between atoms: C_26  and  C_28
REMARK                            x       y       z     vdW  Elec       q    Type
REMARK                         _______ _______ _______ _____ _____    ______ ____
ROOT
ATOM      9  C   UNL     1      13.358   6.619   2.237  0.00  0.00    -0.023 C 
ATOM     10  C   UNL     1      12.886   5.115   2.145  0.00  0.00    +0.007 C 
ATOM     11  C   UNL     1      11.368   4.830   2.464  0.00  0.00    +0.031 C 
ATOM     12  C   UNL     1      14.943   6.608   2.196  0.00  0.00    +0.032 C 
ATOM     13  C   UNL     1      12.887   7.199   3.597  0.00  0.00    +0.011 C 
ATOM     14  C   UNL     1      13.407   4.452   0.851  0.00  0.00    +0.007 C 
ATOM     15  C   UNL     1      10.996   5.529   3.807  0.00  0.00    +0.186 C 
ATOM     16  C   UNL     1      15.521   5.875   0.963  0.00  0.00    +0.119 C 
ATOM     17  C   UNL     1      11.401   6.998   3.869  0.00  0.00    +0.046 C 
ATOM     18  C   UNL     1      14.935   4.477   0.792  0.00  0.00    +0.032 C 
ATOM     19  C   UNL     1      12.791   7.516   1.110  0.00  0.00    +0.012 C 
ATOM     21  C   UNL     1      11.169   3.299   2.666  0.00  0.00    +0.017 C 
ENDROOT
BRANCH  16   3
ATOM      3  O   UNL     1      15.311   6.634  -0.224  0.00  0.00    -0.391 OA
ATOM     32  H   UNL     1      16.037   6.431  -0.838  0.00  0.00    +0.210 HD
ENDBRANCH  16   3
BRANCH  15   2
ATOM      2  O   UNL     1       9.594   5.469   4.066  0.00  0.00    -0.446 OA
BRANCH   2  24
ATOM      6  O   UNL     1       8.259   6.170   5.797  0.00  0.00    -0.226 OA
ATOM      8  N   UNL     1      10.087   4.786   6.151  0.00  0.00    -0.281 N 
ATOM     24  C   UNL     1       9.222   5.534   5.382  0.00  0.00    +0.401 C 
ATOM     35  H   UNL     1      10.845   4.300   5.682  0.00  0.00    +0.152 HD
BRANCH   8  26
ATOM     26  C   UNL     1       9.971   4.647   7.584  0.00  0.00    +0.104 C 
ATOM     28  C   UNL     1      10.597   5.821   8.309  0.00  0.00    +0.024 C 
ENDBRANCH   8  26
ENDBRANCH   2  24
ENDBRANCH  15   2
BRANCH  11  20
ATOM     20  C   UNL     1      10.400   5.233   1.333  0.00  0.00    +0.166 C 
BRANCH  20   4
ATOM      4  O   UNL     1       9.874   4.050   0.771  0.00  0.00    -0.394 OA
ATOM     33  H   UNL     1       9.915   3.361   1.456  0.00  0.00    +0.209 HD
ENDBRANCH  20   4
ENDBRANCH  11  20
BRANCH  12  22
ATOM     22  C   UNL     1      15.602   7.989   2.340  0.00  0.00    +0.102 C 
BRANCH  22  23
ATOM      5  O   UNL     1      15.871   8.265   4.728  0.00  0.00    -0.276 OA
ATOM      7  N   UNL     1      17.750   8.019   3.383  0.00  0.00    -0.311 N 
ATOM     23  C   UNL     1      16.386   8.108   3.625  0.00  0.00    +0.214 C 
ATOM     34  H   UNL     1      18.076   7.873   2.432  0.00  0.00    +0.149 HD
BRANCH   7  25
ATOM     25  C   UNL     1      18.744   8.104   4.427  0.00  0.00    +0.146 C 
BRANCH  25  27
ATOM      1  S   UNL     1      20.617   7.734   2.410  0.00  0.00    -0.100 S 
ATOM     27  C   UNL     1      20.051   7.495   4.008  0.00  0.00    +0.007 A 
ATOM     29  C   UNL     1      20.918   6.726   4.754  0.00  0.00    +0.013 A 
ATOM     30  C   UNL     1      22.062   6.328   4.003  0.00  0.00    +0.008 A 
ATOM     31  C   UNL     1      22.026   6.808   2.711  0.00  0.00    +0.045 A 
ENDBRANCH  25  27
ENDBRANCH   7  25
ENDBRANCH  22  23
ENDBRANCH  12  22
TORSDOF 10
ENDMDL
MODEL 9
REMARK VINA RESULT:      -5.7     26.769     31.321
REMARK  Name = 44716869
REMARK  13 active torsions:
REMARK  status: ('A' for Active; 'I' for Inactive)
REMARK    1  A    between atoms: O_2  and  C_15
REMARK    2  A    between atoms: O_2  and  C_24
REMARK    3  A    between atoms: O_3  and  C_16
REMARK    4  A    between atoms: O_4  and  C_20
REMARK    5  A    between atoms: N_7  and  C_25
REMARK    6  A    between atoms: N_8  and  C_26
REMARK    7  A    between atoms: C_9  and  C_19
REMARK    8  A    between atoms: C_11  and  C_20
REMARK    9  A    between atoms: C_11  and  C_21
REMARK   10  A    between atoms: C_12  and  C_22
REMARK   11  A    between atoms: C_22  and  C_23
REMARK   12  A    between atoms: C_25  and  C_27
REMARK   13  A    between atoms: C_26  and  C_28
REMARK                            x       y       z     vdW  Elec       q    Type
REMARK                         _______ _______ _______ _____ _____    ______ ____
ROOT
ATOM      9  C   UNL     1      12.838   4.406   0.128  0.00  0.00    -0.023 C 
ATOM     10  C   UNL     1      13.037   5.949   0.395  0.00  0.00    +0.007 C 
ATOM     11  C   UNL     1      13.054   6.409   1.904  0.00  0.00    +0.031 C 
ATOM     12  C   UNL     1      12.535   4.241  -1.419  0.00  0.00    +0.032 C 
ATOM     13  C   UNL     1      11.609   3.921   0.944  0.00  0.00    +0.011 C 
ATOM     14  C   UNL     1      14.190   6.513  -0.463  0.00  0.00    +0.007 C 
ATOM     15  C   UNL     1      11.821   5.795   2.632  0.00  0.00    +0.186 C 
ATOM     16  C   UNL     1      13.617   4.869  -2.328  0.00  0.00    +0.119 C 
ATOM     17  C   UNL     1      11.666   4.293   2.421  0.00  0.00    +0.046 C 
ATOM     18  C   UNL     1      13.917   6.318  -1.955  0.00  0.00    +0.032 C 
ATOM     19  C   UNL     1      14.057   3.545   0.539  0.00  0.00    +0.012 C 
ATOM     21  C   UNL     1      12.907   7.958   1.965  0.00  0.00    +0.017 C 
ENDROOT
BRANCH  16   3
ATOM      3  O   UNL     1      14.818   4.105  -2.292  0.00  0.00    -0.391 OA
ATOM     32  H   UNL     1      15.524   4.643  -2.689  0.00  0.00    +0.210 HD
ENDBRANCH  16   3
BRANCH  15   2
ATOM      2  O   UNL     1      11.871   6.017   4.041  0.00  0.00    -0.446 OA
BRANCH   2  24
ATOM      6  O   UNL     1       9.668   6.644   4.203  0.00  0.00    -0.226 OA
ATOM      8  N   UNL     1      10.744   5.514   5.921  0.00  0.00    -0.281 N 
ATOM     24  C   UNL     1      10.664   6.108   4.679  0.00  0.00    +0.401 C 
ATOM     35  H   UNL     1      11.629   5.100   6.195  0.00  0.00    +0.152 HD
BRANCH   8  26
ATOM     26  C   UNL     1       9.638   5.440   6.847  0.00  0.00    +0.104 C 
ATOM     28  C   UNL     1       9.903   4.436   7.950  0.00  0.00    +0.024 C 
ENDBRANCH   8  26
ENDBRANCH   2  24
ENDBRANCH  15   2
BRANCH  11  20
ATOM     20  C   UNL     1      14.366   6.084   2.646  0.00  0.00    +0.166 C 
BRANCH  20   4
ATOM      4  O   UNL     1      14.427   6.899   3.797  0.00  0.00    -0.394 OA
ATOM     33  H   UNL     1      15.187   7.495   3.690  0.00  0.00    +0.209 HD
ENDBRANCH  20   4
ENDBRANCH  11  20
BRANCH  12  22
ATOM     22  C   UNL     1      12.246   2.800  -1.870  0.00  0.00    +0.102 C 
BRANCH  22  23
ATOM      5  O   UNL     1      10.285   1.621  -2.654  0.00  0.00    -0.276 OA
ATOM      7  N   UNL     1      10.459   3.913  -2.996  0.00  0.00    -0.311 N 
ATOM     23  C   UNL     1      10.897   2.678  -2.538  0.00  0.00    +0.214 C 
ATOM     34  H   UNL     1      11.036   4.735  -2.837  0.00  0.00    +0.149 HD
BRANCH   7  25
ATOM     25  C   UNL     1       9.200   4.099  -3.680  0.00  0.00    +0.146 C 
BRANCH  25  27
ATOM      1  S   UNL     1       7.199   5.946  -4.229  0.00  0.00    -0.100 S 
ATOM     27  C   UNL     1       8.577   5.427  -3.355  0.00  0.00    +0.007 A 
ATOM     29  C   UNL     1       8.965   6.347  -2.407  0.00  0.00    +0.013 A 
ATOM     30  C   UNL     1       8.120   7.495  -2.397  0.00  0.00    +0.008 A 
ATOM     31  C   UNL     1       7.118   7.407  -3.339  0.00  0.00    +0.045 A 
ENDBRANCH  25  27
ENDBRANCH   7  25
ENDBRANCH  22  23
ENDBRANCH  12  22
TORSDOF 10
ENDMDL
MODEL 10
REMARK VINA RESULT:      -5.7     27.450     31.109
REMARK  Name = 44716869
REMARK  13 active torsions:
REMARK  status: ('A' for Active; 'I' for Inactive)
REMARK    1  A    between atoms: O_2  and  C_15
REMARK    2  A    between atoms: O_2  and  C_24
REMARK    3  A    between atoms: O_3  and  C_16
REMARK    4  A    between atoms: O_4  and  C_20
REMARK    5  A    between atoms: N_7  and  C_25
REMARK    6  A    between atoms: N_8  and  C_26
REMARK    7  A    between atoms: C_9  and  C_19
REMARK    8  A    between atoms: C_11  and  C_20
REMARK    9  A    between atoms: C_11  and  C_21
REMARK   10  A    between atoms: C_12  and  C_22
REMARK   11  A    between atoms: C_22  and  C_23
REMARK   12  A    between atoms: C_25  and  C_27
REMARK   13  A    between atoms: C_26  and  C_28
REMARK                            x       y       z     vdW  Elec       q    Type
REMARK                         _______ _______ _______ _____ _____    ______ ____
ROOT
ATOM      9  C   UNL     1      11.418   6.835   4.160  0.00  0.00    -0.023 C 
ATOM     10  C   UNL     1      12.062   6.642   5.589  0.00  0.00    +0.007 C 
ATOM     11  C   UNL     1      13.199   7.657   5.995  0.00  0.00    +0.031 C 
ATOM     12  C   UNL     1      10.560   5.536   3.862  0.00  0.00    +0.032 C 
ATOM     13  C   UNL     1      12.563   6.941   3.117  0.00  0.00    +0.011 C 
ATOM     14  C   UNL     1      10.970   6.435   6.661  0.00  0.00    +0.007 C 
ATOM     15  C   UNL     1      14.240   7.736   4.838  0.00  0.00    +0.186 C 
ATOM     16  C   UNL     1       9.508   5.230   4.953  0.00  0.00    +0.119 C 
ATOM     17  C   UNL     1      13.620   7.982   3.467  0.00  0.00    +0.046 C 
ATOM     18  C   UNL     1      10.115   5.205   6.353  0.00  0.00    +0.032 C 
ATOM     19  C   UNL     1      10.542   8.106   4.042  0.00  0.00    +0.012 C 
ATOM     21  C   UNL     1      13.940   7.113   7.252  0.00  0.00    +0.017 C 
ENDROOT
BRANCH  16   3
ATOM      3  O   UNL     1       8.440   6.172   4.909  0.00  0.00    -0.391 OA
ATOM     32  H   UNL     1       8.677   6.916   5.487  0.00  0.00    +0.210 HD
ENDBRANCH  16   3
BRANCH  15   2
ATOM      2  O   UNL     1      15.199   8.770   5.057  0.00  0.00    -0.446 OA
BRANCH   2  24
ATOM      6  O   UNL     1      16.978   7.713   4.062  0.00  0.00    -0.226 OA
ATOM      8  N   UNL     1      17.220   8.916   6.031  0.00  0.00    -0.281 N 
ATOM     24  C   UNL     1      16.514   8.401   4.965  0.00  0.00    +0.401 C 
ATOM     35  H   UNL     1      16.717   9.478   6.711  0.00  0.00    +0.152 HD
BRANCH   8  26
ATOM     26  C   UNL     1      18.636   8.710   6.230  0.00  0.00    +0.104 C 
ATOM     28  C   UNL     1      19.435   9.943   5.861  0.00  0.00    +0.024 C 
ENDBRANCH   8  26
ENDBRANCH   2  24
ENDBRANCH  15   2
BRANCH  11  20
ATOM     20  C   UNL     1      12.684   9.056   6.386  0.00  0.00    +0.166 C 
BRANCH  20   4
ATOM      4  O   UNL     1      13.640   9.648   7.239  0.00  0.00    -0.394 OA
ATOM     33  H   UNL     1      13.744  10.573   6.959  0.00  0.00    +0.209 HD
ENDBRANCH  20   4
ENDBRANCH  11  20
BRANCH  12  22
ATOM     22  C   UNL     1       9.898   5.504   2.475  0.00  0.00    +0.102 C 
BRANCH  22  23
ATOM      5  O   UNL     1       9.984   4.065   0.531  0.00  0.00    -0.276 OA
ATOM      7  N   UNL     1      11.631   3.893   2.162  0.00  0.00    -0.311 N 
ATOM     23  C   UNL     1      10.479   4.421   1.597  0.00  0.00    +0.214 C 
ATOM     34  H   UNL     1      11.969   4.268   3.044  0.00  0.00    +0.149 HD
BRANCH   7  25
ATOM     25  C   UNL     1      12.400   2.836   1.544  0.00  0.00    +0.146 C 
BRANCH  25  27
ATOM      1  S   UNL     1      13.481   3.771  -0.838  0.00  0.00    -0.100 S 
ATOM     27  C   UNL     1      13.605   3.368   0.822  0.00  0.00    +0.007 A 
ATOM     29  C   UNL     1      14.870   3.596   1.317  0.00  0.00    +0.013 A 
ATOM     30  C   UNL     1      15.750   4.108   0.320  0.00  0.00    +0.008 A 
ATOM     31  C   UNL     1      15.124   4.251  -0.899  0.00  0.00    +0.045 A 
ENDBRANCH  25  27
ENDBRANCH   7  25
ENDBRANCH  22  23
ENDBRANCH  12  22
TORSDOF 10
ENDMDL
