REMARK  Name = 75537140
REMARK  6 active torsions:
REMARK  status: ('A' for Active; 'I' for Inactive)
REMARK    1  A    between atoms: O_2  and  C_21
REMARK    2  A    between atoms: O_2  and  C_23
REMARK    3  A    between atoms: N_4  and  C_9
REMARK    4  A    between atoms: N_6  and  C_19
REMARK    5  A    between atoms: C_19  and  C_21
REMARK    6  A    between atoms: C_20  and  C_22
REMARK                            x       y       z     vdW  Elec       q    Type
REMARK                         _______ _______ _______ _____ _____    ______ ____
ROOT
ATOM      1  O   UNL     1      -4.159  -1.931   0.002  0.00  0.00    -0.252 OA
ATOM      4  N   UNL     1       0.718  -0.545  -0.241  0.00  0.00    -0.296 NA
ATOM      5  N   UNL     1      -2.018  -1.123  -0.534  0.00  0.00    -0.278 N 
ATOM      6  N   UNL     1      -3.791   0.182  -0.981  0.00  0.00    -0.281 N 
ATOM      8  C   UNL     1      -1.463   0.018  -1.232  0.00  0.00    +0.109 C 
ATOM     10  C   UNL     1      -0.239   0.552  -0.488  0.00  0.00    +0.108 C 
ATOM     11  C   UNL     1       0.100  -1.611   0.574  0.00  0.00    +0.104 C 
ATOM     12  C   UNL     1      -1.139  -2.193  -0.112  0.00  0.00    +0.125 C 
ATOM     13  C   UNL     1      -2.635   0.993  -1.323  0.00  0.00    +0.133 C 
ATOM     16  C   UNL     1      -3.416  -1.069  -0.451  0.00  0.00    +0.305 C 
ENDROOT
BRANCH   4   9
ATOM      3  O   UNL     1       6.526   1.407  -0.756  0.00  0.00    -0.276 OA
ATOM      7  N   UNL     1       4.776   0.432   0.421  0.00  0.00    -0.302 N 
ATOM      9  C   UNL     1       1.919  -0.034   0.416  0.00  0.00    +0.060 C 
ATOM     14  C   UNL     1       2.555   1.071  -0.437  0.00  0.00    +0.038 C 
ATOM     15  C   UNL     1       2.919  -1.175   0.647  0.00  0.00    +0.038 C 
ATOM     17  C   UNL     1       3.865   1.554   0.185  0.00  0.00    +0.109 C 
ATOM     18  C   UNL     1       4.222  -0.648   1.247  0.00  0.00    +0.109 C 
ATOM     20  C   UNL     1       6.072   0.471  -0.094  0.00  0.00    +0.212 C 
ATOM     22  C   UNL     1       6.947  -0.723   0.191  0.00  0.00    +0.109 C 
ENDBRANCH   4   9
BRANCH   6  19
ATOM     19  C   UNL     1      -5.139   0.701  -1.052  0.00  0.00    +0.137 C 
BRANCH  19  21
ATOM     21  C   UNL     1      -5.484   1.527   0.174  0.00  0.00    +0.178 C 
BRANCH  21   2
ATOM      2  O   UNL     1      -5.408   0.707   1.333  0.00  0.00    -0.381 OA
ATOM     23  C   UNL     1      -5.728   1.437   2.510  0.00  0.00    +0.194 C 
ENDBRANCH  21   2
ENDBRANCH  19  21
ENDBRANCH   6  19
TORSDOF 4
