MODEL 1
REMARK VINA RESULT:      -6.4      0.000      0.000
REMARK  Name = 7134581
REMARK  13 active torsions:
REMARK  status: ('A' for Active; 'I' for Inactive)
REMARK    1  A    between atoms: S_1  and  C_31
REMARK    2  A    between atoms: S_1  and  C_33
REMARK    3  A    between atoms: O_6  and  C_32
REMARK    4  A    between atoms: N_9  and  C_22
REMARK    5  A    between atoms: N_10  and  C_19
REMARK    6  A    between atoms: C_12  and  C_15
REMARK    7  A    between atoms: C_15  and  C_22
REMARK    8  A    between atoms: C_16  and  C_25
REMARK    9  A    between atoms: C_22  and  C_27
REMARK   10  A    between atoms: C_26  and  C_28
REMARK   11  A    between atoms: C_28  and  C_30
REMARK   12  A    between atoms: C_29  and  C_31
REMARK   13  A    between atoms: C_30  and  C_32
REMARK                            x       y       z     vdW  Elec       q    Type
REMARK                         _______ _______ _______ _____ _____    ______ ____
ROOT
ATOM      3  O   UNL     1      12.101   6.507  19.027  0.00  0.00    -0.276 OA
ATOM      8  N   UNL     1      13.967   7.125  20.276  0.00  0.00    -0.290 N 
ATOM     16  C   UNL     1      14.558   7.592  21.541  0.00  0.00    +0.164 C 
ATOM     19  C   UNL     1      16.875   7.187  20.535  0.00  0.00    +0.077 C 
ATOM     20  C   UNL     1      15.978   7.072  21.771  0.00  0.00    +0.054 C 
ATOM     23  C   UNL     1      16.187   6.562  19.323  0.00  0.00    +0.041 C 
ATOM     24  C   UNL     1      14.823   7.196  19.085  0.00  0.00    +0.110 C 
ATOM     26  C   UNL     1      12.622   6.769  20.115  0.00  0.00    +0.217 C 
ENDROOT
BRANCH  16  25
ATOM      2  O   UNL     1      14.150   9.713  20.520  0.00  0.00    -0.274 OA
ATOM      9  N   UNL     1      14.908   9.649  22.720  0.00  0.00    -0.302 N 
ATOM     25  C   UNL     1      14.502   9.092  21.519  0.00  0.00    +0.234 C 
ATOM     34  H   UNL     1      15.262   9.038  23.452  0.00  0.00    +0.150 HD
BRANCH   9  22
ATOM     22  C   UNL     1      14.968  11.073  22.950  0.00  0.00    +0.159 C 
BRANCH  22  27
ATOM      4  O   UNL     1      16.754  12.713  22.784  0.00  0.00    -0.274 OA
ATOM     11  N   UNL     1      17.297  10.485  22.647  0.00  0.00    -0.328 N 
ATOM     27  C   UNL     1      16.413  11.532  22.799  0.00  0.00    +0.231 C 
ATOM     36  H   UNL     1      18.290  10.656  22.527  0.00  0.00    +0.145 HD
ATOM     37  H   UNL     1      16.999   9.515  22.640  0.00  0.00    +0.145 HD
ENDBRANCH  22  27
BRANCH  22  15
ATOM     15  C   UNL     1      14.359  11.469  24.299  0.00  0.00    +0.035 C 
BRANCH  15  12
ATOM     12  C   UNL     1      12.856  11.743  24.251  0.00  0.00    -0.009 C 
ATOM     13  C   UNL     1      12.486  12.508  22.974  0.00  0.00    +0.003 C 
ATOM     14  C   UNL     1      12.406  12.513  25.500  0.00  0.00    +0.003 C 
ATOM     17  C   UNL     1      10.996  12.841  22.927  0.00  0.00    +0.000 C 
ATOM     18  C   UNL     1      10.917  12.846  25.449  0.00  0.00    +0.000 C 
ATOM     21  C   UNL     1      10.551  13.599  24.174  0.00  0.00    +0.000 C 
ENDBRANCH  15  12
ENDBRANCH  22  15
ENDBRANCH   9  22
ENDBRANCH  16  25
BRANCH  19  10
ATOM      5  O   UNL     1      19.125   8.297  21.977  0.00  0.00    -0.275 OA
ATOM     10  N   UNL     1      18.155   6.564  20.770  0.00  0.00    -0.312 N 
ATOM     29  C   UNL     1      19.179   7.175  21.476  0.00  0.00    +0.223 C 
ATOM     35  H   UNL     1      18.326   5.661  20.338  0.00  0.00    +0.149 HD
BRANCH  29  31
ATOM     31  C   UNL     1      20.424   6.324  21.568  0.00  0.00    +0.164 C 
BRANCH  31   1
ATOM      1  S   UNL     1      20.277   4.942  20.412  0.00  0.00    -0.155 S 
ATOM     33  C   UNL     1      21.558   3.872  21.107  0.00  0.00    +0.085 C 
ENDBRANCH  31   1
ENDBRANCH  29  31
ENDBRANCH  19  10
BRANCH  26  28
ATOM     28  C   UNL     1      11.784   6.698  21.368  0.00  0.00    +0.107 C 
BRANCH  28  30
ATOM     30  C   UNL     1      10.608   7.646  21.252  0.00  0.00    +0.129 C 
BRANCH  30  32
ATOM      7  O   UNL     1      10.918   9.203  23.074  0.00  0.00    -0.251 OA
ATOM     32  C   UNL     1      10.925   8.986  21.869  0.00  0.00    +0.305 C 
BRANCH  32   6
ATOM      6  O   UNL     1      11.197   9.937  20.942  0.00  0.00    -0.481 OA
ATOM     38  H   UNL     1      12.011   9.732  20.435  0.00  0.00    +0.295 HD
ENDBRANCH  32   6
ENDBRANCH  30  32
ENDBRANCH  28  30
ENDBRANCH  26  28
TORSDOF 12
ENDMDL
MODEL 2
REMARK VINA RESULT:      -6.3      2.391      3.950
REMARK  Name = 7134581
REMARK  13 active torsions:
REMARK  status: ('A' for Active; 'I' for Inactive)
REMARK    1  A    between atoms: S_1  and  C_31
REMARK    2  A    between atoms: S_1  and  C_33
REMARK    3  A    between atoms: O_6  and  C_32
REMARK    4  A    between atoms: N_9  and  C_22
REMARK    5  A    between atoms: N_10  and  C_19
REMARK    6  A    between atoms: C_12  and  C_15
REMARK    7  A    between atoms: C_15  and  C_22
REMARK    8  A    between atoms: C_16  and  C_25
REMARK    9  A    between atoms: C_22  and  C_27
REMARK   10  A    between atoms: C_26  and  C_28
REMARK   11  A    between atoms: C_28  and  C_30
REMARK   12  A    between atoms: C_29  and  C_31
REMARK   13  A    between atoms: C_30  and  C_32
REMARK                            x       y       z     vdW  Elec       q    Type
REMARK                         _______ _______ _______ _____ _____    ______ ____
ROOT
ATOM      3  O   UNL     1      12.438   6.808  18.391  0.00  0.00    -0.276 OA
ATOM      8  N   UNL     1      14.412   7.006  19.611  0.00  0.00    -0.290 N 
ATOM     16  C   UNL     1      15.104   7.280  20.881  0.00  0.00    +0.164 C 
ATOM     19  C   UNL     1      17.289   6.539  19.776  0.00  0.00    +0.077 C 
ATOM     20  C   UNL     1      16.414   6.504  21.032  0.00  0.00    +0.054 C 
ATOM     23  C   UNL     1      16.474   6.124  18.552  0.00  0.00    +0.041 C 
ATOM     24  C   UNL     1      15.239   7.003  18.399  0.00  0.00    +0.110 C 
ATOM     26  C   UNL     1      13.022   6.903  19.474  0.00  0.00    +0.217 C 
ENDROOT
BRANCH  16  25
ATOM      2  O   UNL     1      16.438   9.257  21.011  0.00  0.00    -0.274 OA
ATOM      9  N   UNL     1      14.120   9.464  20.960  0.00  0.00    -0.302 N 
ATOM     25  C   UNL     1      15.315   8.764  20.950  0.00  0.00    +0.234 C 
ATOM     34  H   UNL     1      13.246   8.946  20.993  0.00  0.00    +0.150 HD
BRANCH   9  22
ATOM     22  C   UNL     1      14.048  10.904  21.046  0.00  0.00    +0.159 C 
BRANCH  22  27
ATOM      4  O   UNL     1      12.489  12.255  22.330  0.00  0.00    -0.274 OA
ATOM     11  N   UNL     1      13.450  10.431  23.343  0.00  0.00    -0.328 N 
ATOM     27  C   UNL     1      13.235  11.280  22.278  0.00  0.00    +0.231 C 
ATOM     36  H   UNL     1      12.975  10.577  24.228  0.00  0.00    +0.145 HD
ATOM     37  H   UNL     1      14.085   9.641  23.294  0.00  0.00    +0.145 HD
ENDBRANCH  22  27
BRANCH  22  15
ATOM     15  C   UNL     1      13.503  11.534  19.761  0.00  0.00    +0.035 C 
BRANCH  15  12
ATOM     12  C   UNL     1      14.084  10.942  18.477  0.00  0.00    -0.009 C 
ATOM     13  C   UNL     1      14.707  12.042  17.608  0.00  0.00    +0.003 C 
ATOM     14  C   UNL     1      13.007  10.174  17.699  0.00  0.00    +0.003 C 
ATOM     17  C   UNL     1      15.249  11.483  16.294  0.00  0.00    +0.000 C 
ATOM     18  C   UNL     1      13.551   9.619  16.385  0.00  0.00    +0.000 C 
ATOM     21  C   UNL     1      14.178  10.713  15.527  0.00  0.00    +0.000 C 
ENDBRANCH  15  12
ENDBRANCH  22  15
ENDBRANCH   9  22
ENDBRANCH  16  25
BRANCH  19  10
ATOM      5  O   UNL     1      19.824   7.226  20.992  0.00  0.00    -0.275 OA
ATOM     10  N   UNL     1      18.443   5.687  19.930  0.00  0.00    -0.312 N 
ATOM     29  C   UNL     1      19.622   6.104  20.529  0.00  0.00    +0.223 C 
ATOM     35  H   UNL     1      18.402   4.759  19.520  0.00  0.00    +0.149 HD
BRANCH  29  31
ATOM     31  C   UNL     1      20.686   5.032  20.553  0.00  0.00    +0.164 C 
BRANCH  31   1
ATOM      1  S   UNL     1      22.313   5.821  20.541  0.00  0.00    -0.155 S 
ATOM     33  C   UNL     1      23.301   4.407  21.083  0.00  0.00    +0.085 C 
ENDBRANCH  31   1
ENDBRANCH  29  31
ENDBRANCH  19  10
BRANCH  26  28
ATOM     28  C   UNL     1      12.213   6.900  20.747  0.00  0.00    +0.107 C 
BRANCH  28  30
ATOM     30  C   UNL     1      11.175   8.003  20.698  0.00  0.00    +0.129 C 
BRANCH  30  32
ATOM      7  O   UNL     1      10.701   8.964  22.864  0.00  0.00    -0.251 OA
ATOM     32  C   UNL     1      10.443   8.123  22.012  0.00  0.00    +0.305 C 
BRANCH  32   6
ATOM      6  O   UNL     1       9.481   7.180  22.163  0.00  0.00    -0.481 OA
ATOM     38  H   UNL     1       8.750   7.492  22.737  0.00  0.00    +0.295 HD
ENDBRANCH  32   6
ENDBRANCH  30  32
ENDBRANCH  28  30
ENDBRANCH  26  28
TORSDOF 12
ENDMDL
MODEL 3
REMARK VINA RESULT:      -6.0     26.975     30.096
REMARK  Name = 7134581
REMARK  13 active torsions:
REMARK  status: ('A' for Active; 'I' for Inactive)
REMARK    1  A    between atoms: S_1  and  C_31
REMARK    2  A    between atoms: S_1  and  C_33
REMARK    3  A    between atoms: O_6  and  C_32
REMARK    4  A    between atoms: N_9  and  C_22
REMARK    5  A    between atoms: N_10  and  C_19
REMARK    6  A    between atoms: C_12  and  C_15
REMARK    7  A    between atoms: C_15  and  C_22
REMARK    8  A    between atoms: C_16  and  C_25
REMARK    9  A    between atoms: C_22  and  C_27
REMARK   10  A    between atoms: C_26  and  C_28
REMARK   11  A    between atoms: C_28  and  C_30
REMARK   12  A    between atoms: C_29  and  C_31
REMARK   13  A    between atoms: C_30  and  C_32
REMARK                            x       y       z     vdW  Elec       q    Type
REMARK                         _______ _______ _______ _____ _____    ______ ____
ROOT
ATOM      3  O   UNL     1      -2.788 -12.338  11.525  0.00  0.00    -0.276 OA
ATOM      8  N   UNL     1      -4.560 -10.856  11.827  0.00  0.00    -0.290 N 
ATOM     16  C   UNL     1      -5.187  -9.754  12.574  0.00  0.00    +0.164 C 
ATOM     19  C   UNL     1      -6.985  -9.631  10.758  0.00  0.00    +0.077 C 
ATOM     20  C   UNL     1      -6.060  -8.853  11.698  0.00  0.00    +0.054 C 
ATOM     23  C   UNL     1      -6.185 -10.661   9.963  0.00  0.00    +0.041 C 
ATOM     24  C   UNL     1      -5.422 -11.594  10.896  0.00  0.00    +0.110 C 
ATOM     26  C   UNL     1      -3.262 -11.331  12.057  0.00  0.00    +0.217 C 
ENDROOT
BRANCH  16  25
ATOM      2  O   UNL     1      -5.776 -11.537  14.051  0.00  0.00    -0.274 OA
ATOM      9  N   UNL     1      -6.899  -9.506  14.232  0.00  0.00    -0.302 N 
ATOM     25  C   UNL     1      -5.965 -10.377  13.696  0.00  0.00    +0.234 C 
ATOM     34  H   UNL     1      -7.028  -8.594  13.801  0.00  0.00    +0.150 HD
BRANCH   9  22
ATOM     22  C   UNL     1      -7.792  -9.869  15.308  0.00  0.00    +0.159 C 
BRANCH  22  27
ATOM      4  O   UNL     1      -9.855  -8.716  15.875  0.00  0.00    -0.274 OA
ATOM     11  N   UNL     1      -9.572  -9.458  13.720  0.00  0.00    -0.328 N 
ATOM     27  C   UNL     1      -9.166  -9.275  15.025  0.00  0.00    +0.231 C 
ATOM     36  H   UNL     1     -10.474  -9.117  13.403  0.00  0.00    +0.145 HD
ATOM     37  H   UNL     1      -9.002  -9.940  13.032  0.00  0.00    +0.145 HD
ENDBRANCH  22  27
BRANCH  22  15
ATOM     15  C   UNL     1      -7.242  -9.464  16.679  0.00  0.00    +0.035 C 
BRANCH  15  12
ATOM     12  C   UNL     1      -6.541 -10.594  17.432  0.00  0.00    -0.009 C 
ATOM     13  C   UNL     1      -6.967 -10.609  18.905  0.00  0.00    +0.003 C 
ATOM     14  C   UNL     1      -5.017 -10.467  17.304  0.00  0.00    +0.003 C 
ATOM     17  C   UNL     1      -6.240 -11.697  19.692  0.00  0.00    +0.000 C 
ATOM     18  C   UNL     1      -4.294 -11.555  18.093  0.00  0.00    +0.000 C 
ATOM     21  C   UNL     1      -4.726 -11.572  19.556  0.00  0.00    +0.000 C 
ENDBRANCH  15  12
ENDBRANCH  22  15
ENDBRANCH   9  22
ENDBRANCH  16  25
BRANCH  19  10
ATOM      5  O   UNL     1      -9.844  -9.225  10.574  0.00  0.00    -0.275 OA
ATOM     10  N   UNL     1      -7.684  -8.735   9.869  0.00  0.00    -0.312 N 
ATOM     29  C   UNL     1      -9.065  -8.606   9.851  0.00  0.00    +0.223 C 
ATOM     35  H   UNL     1      -7.134  -8.227   9.184  0.00  0.00    +0.149 HD
BRANCH  29  31
ATOM     31  C   UNL     1      -9.553  -7.618   8.819  0.00  0.00    +0.164 C 
BRANCH  31   1
ATOM      1  S   UNL     1      -8.125  -6.827   8.042  0.00  0.00    -0.155 S 
ATOM     33  C   UNL     1      -8.521  -7.192   6.316  0.00  0.00    +0.085 C 
ENDBRANCH  31   1
ENDBRANCH  29  31
ENDBRANCH  19  10
BRANCH  26  28
ATOM     28  C   UNL     1      -2.408 -10.535  13.013  0.00  0.00    +0.107 C 
BRANCH  28  30
ATOM     30  C   UNL     1      -2.190 -11.327  14.287  0.00  0.00    +0.129 C 
BRANCH  30  32
ATOM      7  O   UNL     1      -0.914  -9.432  15.075  0.00  0.00    -0.251 OA
ATOM     32  C   UNL     1      -1.426 -10.520  15.307  0.00  0.00    +0.305 C 
BRANCH  32   6
ATOM      6  O   UNL     1      -1.343 -11.141  16.509  0.00  0.00    -0.481 OA
ATOM     38  H   UNL     1      -1.025 -10.537  17.213  0.00  0.00    +0.295 HD
ENDBRANCH  32   6
ENDBRANCH  30  32
ENDBRANCH  28  30
ENDBRANCH  26  28
TORSDOF 12
ENDMDL
MODEL 4
REMARK VINA RESULT:      -5.9     25.908     28.160
REMARK  Name = 7134581
REMARK  13 active torsions:
REMARK  status: ('A' for Active; 'I' for Inactive)
REMARK    1  A    between atoms: S_1  and  C_31
REMARK    2  A    between atoms: S_1  and  C_33
REMARK    3  A    between atoms: O_6  and  C_32
REMARK    4  A    between atoms: N_9  and  C_22
REMARK    5  A    between atoms: N_10  and  C_19
REMARK    6  A    between atoms: C_12  and  C_15
REMARK    7  A    between atoms: C_15  and  C_22
REMARK    8  A    between atoms: C_16  and  C_25
REMARK    9  A    between atoms: C_22  and  C_27
REMARK   10  A    between atoms: C_26  and  C_28
REMARK   11  A    between atoms: C_28  and  C_30
REMARK   12  A    between atoms: C_29  and  C_31
REMARK   13  A    between atoms: C_30  and  C_32
REMARK                            x       y       z     vdW  Elec       q    Type
REMARK                         _______ _______ _______ _____ _____    ______ ____
ROOT
ATOM      3  O   UNL     1     -15.997   5.148  20.957  0.00  0.00    -0.276 OA
ATOM      8  N   UNL     1     -14.332   6.770  20.819  0.00  0.00    -0.290 N 
ATOM     16  C   UNL     1     -13.173   7.462  21.407  0.00  0.00    +0.164 C 
ATOM     19  C   UNL     1     -12.840   8.666  19.174  0.00  0.00    +0.077 C 
ATOM     20  C   UNL     1     -12.175   7.961  20.360  0.00  0.00    +0.054 C 
ATOM     23  C   UNL     1     -13.946   7.789  18.591  0.00  0.00    +0.041 C 
ATOM     24  C   UNL     1     -14.963   7.414  19.660  0.00  0.00    +0.110 C 
ATOM     26  C   UNL     1     -14.948   5.643  21.377  0.00  0.00    +0.217 C 
ENDROOT
BRANCH  16  25
ATOM      2  O   UNL     1     -14.837   8.531  22.747  0.00  0.00    -0.274 OA
ATOM      9  N   UNL     1     -12.823   9.633  22.360  0.00  0.00    -0.302 N 
ATOM     25  C   UNL     1     -13.715   8.580  22.249  0.00  0.00    +0.234 C 
ATOM     34  H   UNL     1     -11.954   9.600  21.833  0.00  0.00    +0.150 HD
BRANCH   9  22
ATOM     22  C   UNL     1     -13.112  10.840  23.097  0.00  0.00    +0.159 C 
BRANCH  22  27
ATOM      4  O   UNL     1     -14.656  12.470  22.167  0.00  0.00    -0.274 OA
ATOM     11  N   UNL     1     -12.618  12.184  21.146  0.00  0.00    -0.328 N 
ATOM     27  C   UNL     1     -13.560  11.917  22.117  0.00  0.00    +0.231 C 
ATOM     36  H   UNL     1     -12.797  12.876  20.425  0.00  0.00    +0.145 HD
ATOM     37  H   UNL     1     -11.725  11.705  21.104  0.00  0.00    +0.145 HD
ENDBRANCH  22  27
BRANCH  22  15
ATOM     15  C   UNL     1     -11.933  11.284  23.968  0.00  0.00    +0.035 C 
BRANCH  15  12
ATOM     12  C   UNL     1     -12.123  11.022  25.462  0.00  0.00    -0.009 C 
ATOM     13  C   UNL     1     -12.561  12.303  26.185  0.00  0.00    +0.003 C 
ATOM     14  C   UNL     1     -10.838  10.456  26.081  0.00  0.00    +0.003 C 
ATOM     17  C   UNL     1     -12.707  12.080  27.688  0.00  0.00    +0.000 C 
ATOM     18  C   UNL     1     -10.987  10.236  27.585  0.00  0.00    +0.000 C 
ATOM     21  C   UNL     1     -11.431  11.509  28.299  0.00  0.00    +0.000 C 
ENDBRANCH  15  12
ENDBRANCH  22  15
ENDBRANCH   9  22
ENDBRANCH  16  25
BRANCH  19  10
ATOM      5  O   UNL     1     -10.903  10.816  19.243  0.00  0.00    -0.275 OA
ATOM     10  N   UNL     1     -11.866   8.997  18.163  0.00  0.00    -0.312 N 
ATOM     29  C   UNL     1     -10.973  10.051  18.282  0.00  0.00    +0.223 C 
ATOM     35  H   UNL     1     -11.887   8.466  17.297  0.00  0.00    +0.149 HD
BRANCH  29  31
ATOM     31  C   UNL     1     -10.069  10.200  17.081  0.00  0.00    +0.164 C 
BRANCH  31   1
ATOM      1  S   UNL     1     -11.087  10.310  15.591  0.00  0.00    -0.155 S 
ATOM     33  C   UNL     1     -10.708   8.689  14.886  0.00  0.00    +0.085 C 
ENDBRANCH  31   1
ENDBRANCH  29  31
ENDBRANCH  19  10
BRANCH  26  28
ATOM     28  C   UNL     1     -14.258   5.009  22.559  0.00  0.00    +0.107 C 
BRANCH  28  30
ATOM     30  C   UNL     1     -15.176   5.037  23.765  0.00  0.00    +0.129 C 
BRANCH  30  32
ATOM      7  O   UNL     1     -15.633   3.250  25.325  0.00  0.00    -0.251 OA
ATOM     32  C   UNL     1     -15.592   3.644  24.167  0.00  0.00    +0.305 C 
BRANCH  32   6
ATOM      6  O   UNL     1     -15.894   2.861  23.102  0.00  0.00    -0.481 OA
ATOM     38  H   UNL     1     -16.453   3.332  22.448  0.00  0.00    +0.295 HD
ENDBRANCH  32   6
ENDBRANCH  30  32
ENDBRANCH  28  30
ENDBRANCH  26  28
TORSDOF 12
ENDMDL
MODEL 5
REMARK VINA RESULT:      -5.9     15.186     18.191
REMARK  Name = 7134581
REMARK  13 active torsions:
REMARK  status: ('A' for Active; 'I' for Inactive)
REMARK    1  A    between atoms: S_1  and  C_31
REMARK    2  A    between atoms: S_1  and  C_33
REMARK    3  A    between atoms: O_6  and  C_32
REMARK    4  A    between atoms: N_9  and  C_22
REMARK    5  A    between atoms: N_10  and  C_19
REMARK    6  A    between atoms: C_12  and  C_15
REMARK    7  A    between atoms: C_15  and  C_22
REMARK    8  A    between atoms: C_16  and  C_25
REMARK    9  A    between atoms: C_22  and  C_27
REMARK   10  A    between atoms: C_26  and  C_28
REMARK   11  A    between atoms: C_28  and  C_30
REMARK   12  A    between atoms: C_29  and  C_31
REMARK   13  A    between atoms: C_30  and  C_32
REMARK                            x       y       z     vdW  Elec       q    Type
REMARK                         _______ _______ _______ _____ _____    ______ ____
ROOT
ATOM      3  O   UNL     1       8.580   7.451   8.077  0.00  0.00    -0.276 OA
ATOM      8  N   UNL     1       9.869   6.871   6.226  0.00  0.00    -0.290 N 
ATOM     16  C   UNL     1      11.047   6.201   5.652  0.00  0.00    +0.164 C 
ATOM     19  C   UNL     1      10.098   6.669   3.322  0.00  0.00    +0.077 C 
ATOM     20  C   UNL     1      10.806   5.667   4.238  0.00  0.00    +0.054 C 
ATOM     23  C   UNL     1       8.833   7.198   3.996  0.00  0.00    +0.041 C 
ATOM     24  C   UNL     1       9.156   7.811   5.352  0.00  0.00    +0.110 C 
ATOM     26  C   UNL     1       9.486   6.784   7.571  0.00  0.00    +0.217 C 
ENDROOT
BRANCH  16  25
ATOM      2  O   UNL     1      12.148   8.170   6.436  0.00  0.00    -0.274 OA
ATOM      9  N   UNL     1      13.190   6.868   4.812  0.00  0.00    -0.302 N 
ATOM     25  C   UNL     1      12.175   7.190   5.697  0.00  0.00    +0.234 C 
ATOM     34  H   UNL     1      13.066   6.077   4.186  0.00  0.00    +0.150 HD
BRANCH   9  22
ATOM     22  C   UNL     1      14.379   7.672   4.646  0.00  0.00    +0.159 C 
BRANCH  22  27
ATOM      4  O   UNL     1      15.022   8.257   2.377  0.00  0.00    -0.274 OA
ATOM     11  N   UNL     1      15.376   6.104   3.095  0.00  0.00    -0.328 N 
ATOM     27  C   UNL     1      14.959   7.408   3.263  0.00  0.00    +0.231 C 
ATOM     36  H   UNL     1      15.774   5.795   2.215  0.00  0.00    +0.145 HD
ATOM     37  H   UNL     1      15.299   5.407   3.829  0.00  0.00    +0.145 HD
ENDBRANCH  22  27
BRANCH  22  15
ATOM     15  C   UNL     1      15.395   7.443   5.769  0.00  0.00    +0.035 C 
BRANCH  15  12
ATOM     12  C   UNL     1      16.104   8.712   6.241  0.00  0.00    -0.009 C 
ATOM     13  C   UNL     1      15.245   9.950   5.958  0.00  0.00    +0.003 C 
ATOM     14  C   UNL     1      17.483   8.840   5.578  0.00  0.00    +0.003 C 
ATOM     17  C   UNL     1      15.955  11.237   6.373  0.00  0.00    +0.000 C 
ATOM     18  C   UNL     1      18.189  10.128   5.993  0.00  0.00    +0.000 C 
ATOM     21  C   UNL     1      17.328  11.357   5.718  0.00  0.00    +0.000 C 
ENDBRANCH  15  12
ENDBRANCH  22  15
ENDBRANCH   9  22
ENDBRANCH  16  25
BRANCH  19  10
ATOM      5  O   UNL     1      11.648   6.814   0.882  0.00  0.00    -0.275 OA
ATOM     10  N   UNL     1       9.782   6.067   2.050  0.00  0.00    -0.312 N 
ATOM     29  C   UNL     1      10.588   6.190   0.929  0.00  0.00    +0.223 C 
ATOM     35  H   UNL     1       8.892   5.585   1.965  0.00  0.00    +0.149 HD
BRANCH  29  31
ATOM     31  C   UNL     1      10.030   5.483  -0.283  0.00  0.00    +0.164 C 
BRANCH  31   1
ATOM      1  S   UNL     1      11.207   4.219  -0.819  0.00  0.00    -0.155 S 
ATOM     33  C   UNL     1      11.868   5.067  -2.273  0.00  0.00    +0.085 C 
ENDBRANCH  31   1
ENDBRANCH  29  31
ENDBRANCH  19  10
BRANCH  26  28
ATOM     28  C   UNL     1      10.240   5.797   8.428  0.00  0.00    +0.107 C 
BRANCH  28  30
ATOM     30  C   UNL     1       9.333   4.639   8.794  0.00  0.00    +0.129 C 
BRANCH  30  32
ATOM      7  O   UNL     1       8.038   4.501  10.829  0.00  0.00    -0.251 OA
ATOM     32  C   UNL     1       9.134   4.553  10.287  0.00  0.00    +0.305 C 
BRANCH  32   6
ATOM      6  O   UNL     1      10.305   4.562  10.971  0.00  0.00    -0.481 OA
ATOM     38  H   UNL     1      11.079   4.575  10.371  0.00  0.00    +0.295 HD
ENDBRANCH  32   6
ENDBRANCH  30  32
ENDBRANCH  28  30
ENDBRANCH  26  28
TORSDOF 12
ENDMDL
MODEL 6
REMARK VINA RESULT:      -5.7      1.633      3.774
REMARK  Name = 7134581
REMARK  13 active torsions:
REMARK  status: ('A' for Active; 'I' for Inactive)
REMARK    1  A    between atoms: S_1  and  C_31
REMARK    2  A    between atoms: S_1  and  C_33
REMARK    3  A    between atoms: O_6  and  C_32
REMARK    4  A    between atoms: N_9  and  C_22
REMARK    5  A    between atoms: N_10  and  C_19
REMARK    6  A    between atoms: C_12  and  C_15
REMARK    7  A    between atoms: C_15  and  C_22
REMARK    8  A    between atoms: C_16  and  C_25
REMARK    9  A    between atoms: C_22  and  C_27
REMARK   10  A    between atoms: C_26  and  C_28
REMARK   11  A    between atoms: C_28  and  C_30
REMARK   12  A    between atoms: C_29  and  C_31
REMARK   13  A    between atoms: C_30  and  C_32
REMARK                            x       y       z     vdW  Elec       q    Type
REMARK                         _______ _______ _______ _____ _____    ______ ____
ROOT
ATOM      3  O   UNL     1      12.303   6.904  18.533  0.00  0.00    -0.276 OA
ATOM      8  N   UNL     1      14.021   7.306  20.054  0.00  0.00    -0.290 N 
ATOM     16  C   UNL     1      14.465   7.650  21.414  0.00  0.00    +0.164 C 
ATOM     19  C   UNL     1      16.866   7.141  20.690  0.00  0.00    +0.077 C 
ATOM     20  C   UNL     1      15.806   7.015  21.788  0.00  0.00    +0.054 C 
ATOM     23  C   UNL     1      16.308   6.644  19.358  0.00  0.00    +0.041 C 
ATOM     24  C   UNL     1      15.031   7.389  18.992  0.00  0.00    +0.110 C 
ATOM     26  C   UNL     1      12.690   7.059  19.695  0.00  0.00    +0.217 C 
ENDROOT
BRANCH  16  25
ATOM      2  O   UNL     1      14.213   9.856  20.533  0.00  0.00    -0.274 OA
ATOM      9  N   UNL     1      14.932   9.596  22.732  0.00  0.00    -0.302 N 
ATOM     25  C   UNL     1      14.508   9.148  21.492  0.00  0.00    +0.234 C 
ATOM     34  H   UNL     1      15.233   8.917  23.426  0.00  0.00    +0.150 HD
BRANCH   9  22
ATOM     22  C   UNL     1      15.081  10.995  23.058  0.00  0.00    +0.159 C 
BRANCH  22  27
ATOM      4  O   UNL     1      13.318  12.582  22.531  0.00  0.00    -0.274 OA
ATOM     11  N   UNL     1      12.923  11.006  24.154  0.00  0.00    -0.328 N 
ATOM     27  C   UNL     1      13.697  11.617  23.191  0.00  0.00    +0.231 C 
ATOM     36  H   UNL     1      11.982  11.331  24.348  0.00  0.00    +0.145 HD
ATOM     37  H   UNL     1      13.256  10.223  24.707  0.00  0.00    +0.145 HD
ENDBRANCH  22  27
BRANCH  22  15
ATOM     15  C   UNL     1      15.969  11.733  22.051  0.00  0.00    +0.035 C 
BRANCH  15  12
ATOM     12  C   UNL     1      17.425  11.272  22.044  0.00  0.00    -0.009 C 
ATOM     13  C   UNL     1      18.200  11.907  23.206  0.00  0.00    +0.003 C 
ATOM     14  C   UNL     1      18.091  11.598  20.700  0.00  0.00    +0.003 C 
ATOM     17  C   UNL     1      19.673  11.503  23.190  0.00  0.00    +0.000 C 
ATOM     18  C   UNL     1      19.563  11.195  20.688  0.00  0.00    +0.000 C 
ATOM     21  C   UNL     1      20.328  11.821  21.850  0.00  0.00    +0.000 C 
ENDBRANCH  15  12
ENDBRANCH  22  15
ENDBRANCH   9  22
ENDBRANCH  16  25
BRANCH  19  10
ATOM      5  O   UNL     1      19.085   8.090  22.287  0.00  0.00    -0.275 OA
ATOM     10  N   UNL     1      18.060   6.414  21.043  0.00  0.00    -0.312 N 
ATOM     29  C   UNL     1      19.077   6.953  21.817  0.00  0.00    +0.223 C 
ATOM     35  H   UNL     1      18.182   5.487  20.648  0.00  0.00    +0.149 HD
BRANCH  29  31
ATOM     31  C   UNL     1      20.227   5.997  22.031  0.00  0.00    +0.164 C 
BRANCH  31   1
ATOM      1  S   UNL     1      21.258   5.979  20.546  0.00  0.00    -0.155 S 
ATOM     33  C   UNL     1      22.704   6.838  21.211  0.00  0.00    +0.085 C 
ENDBRANCH  31   1
ENDBRANCH  29  31
ENDBRANCH  19  10
BRANCH  26  28
ATOM     28  C   UNL     1      11.689   6.971  20.820  0.00  0.00    +0.107 C 
BRANCH  28  30
ATOM     30  C   UNL     1      10.726   8.139  20.743  0.00  0.00    +0.129 C 
BRANCH  30  32
ATOM      7  O   UNL     1      10.961  10.342  21.707  0.00  0.00    -0.251 OA
ATOM     32  C   UNL     1      10.977   9.127  21.856  0.00  0.00    +0.305 C 
BRANCH  32   6
ATOM      6  O   UNL     1      11.249   8.523  23.039  0.00  0.00    -0.481 OA
ATOM     38  H   UNL     1      11.481   9.172  23.736  0.00  0.00    +0.295 HD
ENDBRANCH  32   6
ENDBRANCH  30  32
ENDBRANCH  28  30
ENDBRANCH  26  28
TORSDOF 12
ENDMDL
MODEL 7
REMARK VINA RESULT:      -5.6     27.094     30.016
REMARK  Name = 7134581
REMARK  13 active torsions:
REMARK  status: ('A' for Active; 'I' for Inactive)
REMARK    1  A    between atoms: S_1  and  C_31
REMARK    2  A    between atoms: S_1  and  C_33
REMARK    3  A    between atoms: O_6  and  C_32
REMARK    4  A    between atoms: N_9  and  C_22
REMARK    5  A    between atoms: N_10  and  C_19
REMARK    6  A    between atoms: C_12  and  C_15
REMARK    7  A    between atoms: C_15  and  C_22
REMARK    8  A    between atoms: C_16  and  C_25
REMARK    9  A    between atoms: C_22  and  C_27
REMARK   10  A    between atoms: C_26  and  C_28
REMARK   11  A    between atoms: C_28  and  C_30
REMARK   12  A    between atoms: C_29  and  C_31
REMARK   13  A    between atoms: C_30  and  C_32
REMARK                            x       y       z     vdW  Elec       q    Type
REMARK                         _______ _______ _______ _____ _____    ______ ____
ROOT
ATOM      3  O   UNL     1      -6.367 -13.273  10.853  0.00  0.00    -0.276 OA
ATOM      8  N   UNL     1      -6.357 -11.738  12.604  0.00  0.00    -0.290 N 
ATOM     16  C   UNL     1      -5.750 -10.582  13.283  0.00  0.00    +0.164 C 
ATOM     19  C   UNL     1      -7.771 -10.522  14.851  0.00  0.00    +0.077 C 
ATOM     20  C   UNL     1      -6.771  -9.712  14.021  0.00  0.00    +0.054 C 
ATOM     23  C   UNL     1      -8.408 -11.613  13.993  0.00  0.00    +0.041 C 
ATOM     24  C   UNL     1      -7.343 -12.507  13.372  0.00  0.00    +0.110 C 
ATOM     26  C   UNL     1      -5.949 -12.227  11.357  0.00  0.00    +0.217 C 
ENDROOT
BRANCH  16  25
ATOM      2  O   UNL     1      -4.319 -12.289  14.145  0.00  0.00    -0.274 OA
ATOM      9  N   UNL     1      -4.250 -10.170  15.106  0.00  0.00    -0.302 N 
ATOM     25  C   UNL     1      -4.697 -11.122  14.205  0.00  0.00    +0.234 C 
ATOM     34  H   UNL     1      -4.697  -9.257  15.120  0.00  0.00    +0.150 HD
BRANCH   9  22
ATOM     22  C   UNL     1      -3.254 -10.444  16.116  0.00  0.00    +0.159 C 
BRANCH  22  27
ATOM      4  O   UNL     1      -1.420 -11.768  15.229  0.00  0.00    -0.274 OA
ATOM     11  N   UNL     1      -1.284  -9.479  15.093  0.00  0.00    -0.328 N 
ATOM     27  C   UNL     1      -1.911 -10.660  15.432  0.00  0.00    +0.231 C 
ATOM     36  H   UNL     1      -0.377  -9.484  14.638  0.00  0.00    +0.145 HD
ATOM     37  H   UNL     1      -1.691  -8.569  15.284  0.00  0.00    +0.145 HD
ENDBRANCH  22  27
BRANCH  22  15
ATOM     15  C   UNL     1      -3.653 -11.612  17.022  0.00  0.00    +0.035 C 
BRANCH  15  12
ATOM     12  C   UNL     1      -5.019 -11.452  17.687  0.00  0.00    -0.009 C 
ATOM     13  C   UNL     1      -4.868 -11.303  19.206  0.00  0.00    +0.003 C 
ATOM     14  C   UNL     1      -5.933 -12.636  17.342  0.00  0.00    +0.003 C 
ATOM     17  C   UNL     1      -6.224 -11.193  19.900  0.00  0.00    +0.000 C 
ATOM     18  C   UNL     1      -7.287 -12.524  18.040  0.00  0.00    +0.000 C 
ATOM     21  C   UNL     1      -7.132 -12.367  19.549  0.00  0.00    +0.000 C 
ENDBRANCH  15  12
ENDBRANCH  22  15
ENDBRANCH   9  22
ENDBRANCH  16  25
BRANCH  19  10
ATOM      5  O   UNL     1      -7.648  -9.084  17.360  0.00  0.00    -0.275 OA
ATOM     10  N   UNL     1      -8.783  -9.663  15.415  0.00  0.00    -0.312 N 
ATOM     29  C   UNL     1      -8.636  -9.012  16.630  0.00  0.00    +0.223 C 
ATOM     35  H   UNL     1      -9.667  -9.589  14.922  0.00  0.00    +0.149 HD
BRANCH  29  31
ATOM     31  C   UNL     1      -9.843  -8.186  17.009  0.00  0.00    +0.164 C 
BRANCH  31   1
ATOM      1  S   UNL     1     -10.821  -7.861  15.524  0.00  0.00    -0.155 S 
ATOM     33  C   UNL     1     -10.897  -6.058  15.641  0.00  0.00    +0.085 C 
ENDBRANCH  31   1
ENDBRANCH  29  31
ENDBRANCH  19  10
BRANCH  26  28
ATOM     28  C   UNL     1      -4.942 -11.397  10.599  0.00  0.00    +0.107 C 
BRANCH  28  30
ATOM     30  C   UNL     1      -3.588 -12.076  10.634  0.00  0.00    +0.129 C 
BRANCH  30  32
ATOM      7  O   UNL     1      -2.464 -10.063  11.355  0.00  0.00    -0.251 OA
ATOM     32  C   UNL     1      -2.598 -11.276  11.444  0.00  0.00    +0.305 C 
BRANCH  32   6
ATOM      6  O   UNL     1      -1.851 -12.051  12.268  0.00  0.00    -0.481 OA
ATOM     38  H   UNL     1      -1.980 -13.006  12.090  0.00  0.00    +0.295 HD
ENDBRANCH  32   6
ENDBRANCH  30  32
ENDBRANCH  28  30
ENDBRANCH  26  28
TORSDOF 12
ENDMDL
MODEL 8
REMARK VINA RESULT:      -5.5     17.159     20.786
REMARK  Name = 7134581
REMARK  13 active torsions:
REMARK  status: ('A' for Active; 'I' for Inactive)
REMARK    1  A    between atoms: S_1  and  C_31
REMARK    2  A    between atoms: S_1  and  C_33
REMARK    3  A    between atoms: O_6  and  C_32
REMARK    4  A    between atoms: N_9  and  C_22
REMARK    5  A    between atoms: N_10  and  C_19
REMARK    6  A    between atoms: C_12  and  C_15
REMARK    7  A    between atoms: C_15  and  C_22
REMARK    8  A    between atoms: C_16  and  C_25
REMARK    9  A    between atoms: C_22  and  C_27
REMARK   10  A    between atoms: C_26  and  C_28
REMARK   11  A    between atoms: C_28  and  C_30
REMARK   12  A    between atoms: C_29  and  C_31
REMARK   13  A    between atoms: C_30  and  C_32
REMARK                            x       y       z     vdW  Elec       q    Type
REMARK                         _______ _______ _______ _____ _____    ______ ____
ROOT
ATOM      3  O   UNL     1      11.396   8.603   7.773  0.00  0.00    -0.276 OA
ATOM      8  N   UNL     1       9.994   8.108   5.981  0.00  0.00    -0.290 N 
ATOM     16  C   UNL     1       9.373   7.121   5.083  0.00  0.00    +0.164 C 
ATOM     19  C   UNL     1       7.926   9.000   4.123  0.00  0.00    +0.077 C 
ATOM     20  C   UNL     1       7.987   7.543   4.591  0.00  0.00    +0.054 C 
ATOM     23  C   UNL     1       8.498   9.924   5.197  0.00  0.00    +0.041 C 
ATOM     24  C   UNL     1       9.917   9.514   5.567  0.00  0.00    +0.110 C 
ATOM     26  C   UNL     1      10.767   7.781   7.102  0.00  0.00    +0.217 C 
ENDROOT
BRANCH  16  25
ATOM      2  O   UNL     1      11.548   6.949   4.111  0.00  0.00    -0.274 OA
ATOM      9  N   UNL     1       9.680   6.668   2.750  0.00  0.00    -0.302 N 
ATOM     25  C   UNL     1      10.332   6.900   3.950  0.00  0.00    +0.234 C 
ATOM     34  H   UNL     1       8.666   6.735   2.718  0.00  0.00    +0.150 HD
BRANCH   9  22
ATOM     22  C   UNL     1      10.375   6.448   1.503  0.00  0.00    +0.159 C 
BRANCH  22  27
ATOM      4  O   UNL     1      10.330   8.803   0.905  0.00  0.00    -0.274 OA
ATOM     11  N   UNL     1       9.592   7.268  -0.635  0.00  0.00    -0.328 N 
ATOM     27  C   UNL     1      10.119   7.636   0.585  0.00  0.00    +0.231 C 
ATOM     36  H   UNL     1       9.367   7.966  -1.336  0.00  0.00    +0.145 HD
ATOM     37  H   UNL     1       9.403   6.301  -0.880  0.00  0.00    +0.145 HD
ENDBRANCH  22  27
BRANCH  22  15
ATOM     15  C   UNL     1      10.002   5.109   0.860  0.00  0.00    +0.035 C 
BRANCH  15  12
ATOM     12  C   UNL     1      11.174   4.142   0.700  0.00  0.00    -0.009 C 
ATOM     13  C   UNL     1      12.240   4.401   1.774  0.00  0.00    +0.003 C 
ATOM     14  C   UNL     1      11.778   4.249  -0.706  0.00  0.00    +0.003 C 
ATOM     17  C   UNL     1      13.446   3.481   1.604  0.00  0.00    +0.000 C 
ATOM     18  C   UNL     1      12.986   3.330  -0.872  0.00  0.00    +0.000 C 
ATOM     21  C   UNL     1      14.039   3.584   0.202  0.00  0.00    +0.000 C 
ENDBRANCH  15  12
ENDBRANCH  22  15
ENDBRANCH   9  22
ENDBRANCH  16  25
BRANCH  19  10
ATOM      5  O   UNL     1       7.061  10.712   1.956  0.00  0.00    -0.275 OA
ATOM     10  N   UNL     1       6.573   9.378   3.795  0.00  0.00    -0.312 N 
ATOM     29  C   UNL     1       6.251  10.208   2.732  0.00  0.00    +0.223 C 
ATOM     35  H   UNL     1       5.833   9.068   4.418  0.00  0.00    +0.149 HD
BRANCH  29  31
ATOM     31  C   UNL     1       4.768  10.466   2.611  0.00  0.00    +0.164 C 
BRANCH  31   1
ATOM      1  S   UNL     1       4.384  10.882   0.893  0.00  0.00    -0.155 S 
ATOM     33  C   UNL     1       4.273   9.204   0.229  0.00  0.00    +0.085 C 
ENDBRANCH  31   1
ENDBRANCH  29  31
ENDBRANCH  19  10
BRANCH  26  28
ATOM     28  C   UNL     1      10.808   6.325   7.498  0.00  0.00    +0.107 C 
BRANCH  28  30
ATOM     30  C   UNL     1       9.754   6.051   8.551  0.00  0.00    +0.129 C 
BRANCH  30  32
ATOM      7  O   UNL     1      10.005   4.637  10.494  0.00  0.00    -0.251 OA
ATOM     32  C   UNL     1      10.031   4.757   9.277  0.00  0.00    +0.305 C 
BRANCH  32   6
ATOM      6  O   UNL     1      10.338   3.741   8.433  0.00  0.00    -0.481 OA
ATOM     38  H   UNL     1       9.731   2.979   8.542  0.00  0.00    +0.295 HD
ENDBRANCH  32   6
ENDBRANCH  30  32
ENDBRANCH  28  30
ENDBRANCH  26  28
TORSDOF 12
ENDMDL
MODEL 9
REMARK VINA RESULT:      -5.5     27.997     30.486
REMARK  Name = 7134581
REMARK  13 active torsions:
REMARK  status: ('A' for Active; 'I' for Inactive)
REMARK    1  A    between atoms: S_1  and  C_31
REMARK    2  A    between atoms: S_1  and  C_33
REMARK    3  A    between atoms: O_6  and  C_32
REMARK    4  A    between atoms: N_9  and  C_22
REMARK    5  A    between atoms: N_10  and  C_19
REMARK    6  A    between atoms: C_12  and  C_15
REMARK    7  A    between atoms: C_15  and  C_22
REMARK    8  A    between atoms: C_16  and  C_25
REMARK    9  A    between atoms: C_22  and  C_27
REMARK   10  A    between atoms: C_26  and  C_28
REMARK   11  A    between atoms: C_28  and  C_30
REMARK   12  A    between atoms: C_29  and  C_31
REMARK   13  A    between atoms: C_30  and  C_32
REMARK                            x       y       z     vdW  Elec       q    Type
REMARK                         _______ _______ _______ _____ _____    ______ ____
ROOT
ATOM      3  O   UNL     1      -2.015 -10.790  16.502  0.00  0.00    -0.276 OA
ATOM      8  N   UNL     1      -4.269 -11.371  16.581  0.00  0.00    -0.290 N 
ATOM     16  C   UNL     1      -5.509 -11.767  15.893  0.00  0.00    +0.164 C 
ATOM     19  C   UNL     1      -6.574 -12.173  18.184  0.00  0.00    +0.077 C 
ATOM     20  C   UNL     1      -6.408 -12.667  16.744  0.00  0.00    +0.054 C 
ATOM     23  C   UNL     1      -5.207 -11.910  18.813  0.00  0.00    +0.041 C 
ATOM     24  C   UNL     1      -4.403 -10.926  17.973  0.00  0.00    +0.110 C 
ATOM     26  C   UNL     1      -3.022 -11.250  15.956  0.00  0.00    +0.217 C 
ENDROOT
BRANCH  16  25
ATOM      2  O   UNL     1      -6.263  -9.525  16.225  0.00  0.00    -0.274 OA
ATOM      9  N   UNL     1      -6.759 -10.595  14.218  0.00  0.00    -0.302 N 
ATOM     25  C   UNL     1      -6.203 -10.501  15.483  0.00  0.00    +0.234 C 
ATOM     34  H   UNL     1      -6.721 -11.485  13.727  0.00  0.00    +0.150 HD
BRANCH   9  22
ATOM     22  C   UNL     1      -7.501  -9.522  13.600  0.00  0.00    +0.159 C 
BRANCH  22  27
ATOM      4  O   UNL     1      -9.796 -10.317  13.670  0.00  0.00    -0.274 OA
ATOM     11  N   UNL     1      -9.177  -8.632  15.103  0.00  0.00    -0.328 N 
ATOM     27  C   UNL     1      -8.935  -9.560  14.112  0.00  0.00    +0.231 C 
ATOM     36  H   UNL     1     -10.097  -8.549  15.524  0.00  0.00    +0.145 HD
ATOM     37  H   UNL     1      -8.463  -7.999  15.445  0.00  0.00    +0.145 HD
ENDBRANCH  22  27
BRANCH  22  15
ATOM     15  C   UNL     1      -7.417  -9.564  12.071  0.00  0.00    +0.035 C 
BRANCH  15  12
ATOM     12  C   UNL     1      -6.006  -9.787  11.528  0.00  0.00    -0.009 C 
ATOM     13  C   UNL     1      -5.525  -8.556  10.748  0.00  0.00    +0.003 C 
ATOM     14  C   UNL     1      -5.956 -11.044  10.650  0.00  0.00    +0.003 C 
ATOM     17  C   UNL     1      -4.137  -8.774  10.150  0.00  0.00    +0.000 C 
ATOM     18  C   UNL     1      -4.568 -11.258  10.051  0.00  0.00    +0.000 C 
ATOM     21  C   UNL     1      -4.089 -10.029   9.284  0.00  0.00    +0.000 C 
ENDBRANCH  15  12
ENDBRANCH  22  15
ENDBRANCH   9  22
ENDBRANCH  16  25
BRANCH  19  10
ATOM      5  O   UNL     1      -8.742 -11.614  20.017  0.00  0.00    -0.275 OA
ATOM     10  N   UNL     1      -7.320 -13.125  18.970  0.00  0.00    -0.312 N 
ATOM     29  C   UNL     1      -8.349 -12.764  19.827  0.00  0.00    +0.223 C 
ATOM     35  H   UNL     1      -7.028 -14.097  18.935  0.00  0.00    +0.149 HD
BRANCH  29  31
ATOM     31  C   UNL     1      -8.959 -13.942  20.548  0.00  0.00    +0.164 C 
BRANCH  31   1
ATOM      1  S   UNL     1     -10.229 -14.681  19.495  0.00  0.00    -0.155 S 
ATOM     33  C   UNL     1      -9.402 -16.249  19.137  0.00  0.00    +0.085 C 
ENDBRANCH  31   1
ENDBRANCH  29  31
ENDBRANCH  19  10
BRANCH  26  28
ATOM     28  C   UNL     1      -2.928 -11.731  14.528  0.00  0.00    +0.107 C 
BRANCH  28  30
ATOM     30  C   UNL     1      -2.859 -10.542  13.591  0.00  0.00    +0.129 C 
BRANCH  30  32
ATOM      7  O   UNL     1      -1.385  -9.899  11.788  0.00  0.00    -0.251 OA
ATOM     32  C   UNL     1      -1.879 -10.787  12.471  0.00  0.00    +0.305 C 
BRANCH  32   6
ATOM      6  O   UNL     1      -1.619 -12.105  12.282  0.00  0.00    -0.481 OA
ATOM     38  H   UNL     1      -1.882 -12.644  13.057  0.00  0.00    +0.295 HD
ENDBRANCH  32   6
ENDBRANCH  30  32
ENDBRANCH  28  30
ENDBRANCH  26  28
TORSDOF 12
ENDMDL
MODEL 10
REMARK VINA RESULT:      -5.4     28.769     31.513
REMARK  Name = 7134581
REMARK  13 active torsions:
REMARK  status: ('A' for Active; 'I' for Inactive)
REMARK    1  A    between atoms: S_1  and  C_31
REMARK    2  A    between atoms: S_1  and  C_33
REMARK    3  A    between atoms: O_6  and  C_32
REMARK    4  A    between atoms: N_9  and  C_22
REMARK    5  A    between atoms: N_10  and  C_19
REMARK    6  A    between atoms: C_12  and  C_15
REMARK    7  A    between atoms: C_15  and  C_22
REMARK    8  A    between atoms: C_16  and  C_25
REMARK    9  A    between atoms: C_22  and  C_27
REMARK   10  A    between atoms: C_26  and  C_28
REMARK   11  A    between atoms: C_28  and  C_30
REMARK   12  A    between atoms: C_29  and  C_31
REMARK   13  A    between atoms: C_30  and  C_32
REMARK                            x       y       z     vdW  Elec       q    Type
REMARK                         _______ _______ _______ _____ _____    ______ ____
ROOT
ATOM      3  O   UNL     1      -4.239  -9.892  17.090  0.00  0.00    -0.276 OA
ATOM      8  N   UNL     1      -6.279 -10.883  17.619  0.00  0.00    -0.290 N 
ATOM     16  C   UNL     1      -7.630 -11.311  17.221  0.00  0.00    +0.164 C 
ATOM     19  C   UNL     1      -7.853 -12.491  19.480  0.00  0.00    +0.077 C 
ATOM     20  C   UNL     1      -8.115 -12.553  17.972  0.00  0.00    +0.054 C 
ATOM     23  C   UNL     1      -6.388 -12.151  19.748  0.00  0.00    +0.041 C 
ATOM     24  C   UNL     1      -5.998 -10.850  19.059  0.00  0.00    +0.110 C 
ATOM     26  C   UNL     1      -5.319 -10.373  16.736  0.00  0.00    +0.217 C 
ENDROOT
BRANCH  16  25
ATOM      2  O   UNL     1      -8.163  -8.982  17.230  0.00  0.00    -0.274 OA
ATOM      9  N   UNL     1      -9.791 -10.513  17.882  0.00  0.00    -0.302 N 
ATOM     25  C   UNL     1      -8.539 -10.134  17.430  0.00  0.00    +0.234 C 
ATOM     34  H   UNL     1      -9.964 -11.492  18.095  0.00  0.00    +0.150 HD
BRANCH   9  22
ATOM     22  C   UNL     1     -10.842  -9.568  18.182  0.00  0.00    +0.159 C 
BRANCH  22  27
ATOM      4  O   UNL     1     -12.623  -9.855  19.810  0.00  0.00    -0.274 OA
ATOM     11  N   UNL     1     -10.458 -10.229  20.478  0.00  0.00    -0.328 N 
ATOM     27  C   UNL     1     -11.423  -9.901  19.550  0.00  0.00    +0.231 C 
ATOM     36  H   UNL     1     -10.712 -10.463  21.432  0.00  0.00    +0.145 HD
ATOM     37  H   UNL     1      -9.468 -10.243  20.256  0.00  0.00    +0.145 HD
ENDBRANCH  22  27
BRANCH  22  15
ATOM     15  C   UNL     1     -11.907  -9.517  17.082  0.00  0.00    +0.035 C 
BRANCH  15  12
ATOM     12  C   UNL     1     -11.649  -8.460  16.009  0.00  0.00    -0.009 C 
ATOM     13  C   UNL     1     -11.056  -7.190  16.631  0.00  0.00    +0.003 C 
ATOM     14  C   UNL     1     -12.938  -8.143  15.239  0.00  0.00    +0.003 C 
ATOM     17  C   UNL     1     -10.837  -6.099  15.585  0.00  0.00    +0.000 C 
ATOM     18  C   UNL     1     -12.717  -7.050  14.196  0.00  0.00    +0.000 C 
ATOM     21  C   UNL     1     -12.119  -5.791  14.817  0.00  0.00    +0.000 C 
ENDBRANCH  15  12
ENDBRANCH  22  15
ENDBRANCH   9  22
ENDBRANCH  16  25
BRANCH  19  10
ATOM      5  O   UNL     1     -10.379 -13.165  20.721  0.00  0.00    -0.275 OA
ATOM     10  N   UNL     1      -8.210 -13.737  20.114  0.00  0.00    -0.312 N 
ATOM     29  C   UNL     1      -9.451 -13.972  20.685  0.00  0.00    +0.223 C 
ATOM     35  H   UNL     1      -7.488 -14.447  20.197  0.00  0.00    +0.149 HD
BRANCH  29  31
ATOM     31  C   UNL     1      -9.569 -15.346  21.299  0.00  0.00    +0.164 C 
BRANCH  31   1
ATOM      1  S   UNL     1      -8.903 -15.297  22.979  0.00  0.00    -0.155 S 
ATOM     33  C   UNL     1     -10.464 -15.177  23.885  0.00  0.00    +0.085 C 
ENDBRANCH  31   1
ENDBRANCH  29  31
ENDBRANCH  19  10
BRANCH  26  28
ATOM     28  C   UNL     1      -5.647 -10.439  15.265  0.00  0.00    +0.107 C 
BRANCH  28  30
ATOM     30  C   UNL     1      -4.418 -10.860  14.484  0.00  0.00    +0.129 C 
BRANCH  30  32
ATOM      7  O   UNL     1      -4.852 -13.234  14.604  0.00  0.00    -0.251 OA
ATOM     32  C   UNL     1      -4.070 -12.304  14.751  0.00  0.00    +0.305 C 
BRANCH  32   6
ATOM      6  O   UNL     1      -2.800 -12.461  15.197  0.00  0.00    -0.481 OA
ATOM     38  H   UNL     1      -2.768 -12.618  16.164  0.00  0.00    +0.295 HD
ENDBRANCH  32   6
ENDBRANCH  30  32
ENDBRANCH  28  30
ENDBRANCH  26  28
TORSDOF 12
ENDMDL
