REMARK  Name = 11865702
REMARK  12 active torsions:
REMARK  status: ('A' for Active; 'I' for Inactive)
REMARK    1  A    between atoms: O_1  and  C_11
REMARK    2  A    between atoms: O_2  and  C_12
REMARK    3  A    between atoms: N_6  and  C_10
REMARK    4  A    between atoms: N_7  and  C_16
REMARK    5  A    between atoms: N_7  and  C_22
REMARK    6  A    between atoms: N_8  and  C_23
REMARK    7  A    between atoms: C_15  and  C_19
REMARK    8  A    between atoms: C_16  and  C_17
REMARK    9  A    between atoms: C_16  and  C_18
REMARK   10  A    between atoms: C_17  and  C_20
REMARK   11  A    between atoms: C_17  and  C_21
REMARK   12  A    between atoms: C_23  and  C_24
REMARK                            x       y       z     vdW  Elec       q    Type
REMARK                         _______ _______ _______ _____ _____    ______ ____
ROOT
ATOM     10  C   UNL     1      -0.643   1.065  -0.413  0.00  0.00    +0.127 C 
ATOM     11  C   UNL     1      -0.779   2.445   0.257  0.00  0.00    +0.167 C 
ATOM     12  C   UNL     1       0.377   3.376  -0.132  0.00  0.00    +0.149 C 
ATOM     13  C   UNL     1       1.749   2.760   0.190  0.00  0.00    +0.074 C 
ATOM     14  C   UNL     1       0.756   0.514  -0.363  0.00  0.00    +0.006 C 
ATOM     15  C   UNL     1       1.819   1.284  -0.083  0.00  0.00    +0.015 C 
ENDROOT
BRANCH  10   6
ATOM      3  O   UNL     1      -3.348   0.526  -1.228  0.00  0.00    -0.274 OA
ATOM      6  N   UNL     1      -1.545   0.100   0.167  0.00  0.00    -0.305 N 
ATOM     18  C   UNL     1      -2.839  -0.092  -0.294  0.00  0.00    +0.231 C 
ATOM     25  H   UNL     1      -1.225  -0.429   0.974  0.00  0.00    +0.149 HD
BRANCH  18  16
ATOM     16  C   UNL     1      -3.590  -1.163   0.497  0.00  0.00    +0.143 C 
BRANCH  16   7
ATOM      7  N   UNL     1      -4.991  -0.742   0.563  0.00  0.00    -0.309 NA
ATOM     22  C   UNL     1      -5.175   0.270   1.591  0.00  0.00    +0.101 C 
ATOM     28  H   UNL     1      -5.577  -1.543   0.796  0.00  0.00    +0.122 HD
ENDBRANCH  16   7
BRANCH  16  17
ATOM     17  C   UNL     1      -3.457  -2.578  -0.113  0.00  0.00    +0.009 C 
ATOM     20  C   UNL     1      -2.018  -3.103  -0.162  0.00  0.00    +0.009 C 
ATOM     21  C   UNL     1      -4.083  -2.657  -1.509  0.00  0.00    +0.009 C 
ENDBRANCH  16  17
ENDBRANCH  18  16
ENDBRANCH  10   6
BRANCH  15  19
ATOM      4  O   UNL     1       4.030   1.004  -0.826  0.00  0.00    -0.271 OA
ATOM      8  N   UNL     1       3.226  -0.376   0.872  0.00  0.00    -0.303 N 
ATOM     19  C   UNL     1       3.135   0.639  -0.064  0.00  0.00    +0.240 C 
ATOM     29  H   UNL     1       2.424  -0.596   1.456  0.00  0.00    +0.150 HD
BRANCH   8  23
ATOM     23  C   UNL     1       4.424  -1.159   1.074  0.00  0.00    +0.200 C 
BRANCH  23  24
ATOM      5  O   UNL     1       3.374  -2.966  -0.148  0.00  0.00    -0.274 OA
ATOM      9  N   UNL     1       5.664  -2.766  -0.209  0.00  0.00    -0.328 N 
ATOM     24  C   UNL     1       4.399  -2.371   0.172  0.00  0.00    +0.228 C 
ATOM     30  H   UNL     1       5.798  -3.576  -0.805  0.00  0.00    +0.145 HD
ATOM     31  H   UNL     1       6.502  -2.274   0.084  0.00  0.00    +0.145 HD
ENDBRANCH  23  24
ENDBRANCH   8  23
ENDBRANCH  15  19
BRANCH  11   1
ATOM      1  O   UNL     1      -0.785   2.290   1.678  0.00  0.00    -0.387 OA
ATOM     26  H   UNL     1      -0.902   3.173   2.068  0.00  0.00    +0.210 HD
ENDBRANCH  11   1
BRANCH  12   2
ATOM      2  O   UNL     1       0.299   3.701  -1.518  0.00  0.00    -0.389 OA
ATOM     27  H   UNL     1       1.019   4.325  -1.714  0.00  0.00    +0.210 HD
ENDBRANCH  12   2
TORSDOF 9
