REMARK  Name = 45783418
REMARK  9 active torsions:
REMARK  status: ('A' for Active; 'I' for Inactive)
REMARK    1  A    between atoms: O_2  and  C_22
REMARK    2  A    between atoms: O_2  and  C_26
REMARK    3  A    between atoms: O_3  and  C_27
REMARK    4  A    between atoms: O_3  and  C_28
REMARK    5  A    between atoms: N_4  and  C_9
REMARK    6  A    between atoms: N_5  and  C_19
REMARK    7  A    between atoms: C_10  and  C_18
REMARK    8  A    between atoms: C_20  and  C_21
REMARK    9  A    between atoms: C_26  and  C_27
REMARK                            x       y       z     vdW  Elec       q    Type
REMARK                         _______ _______ _______ _____ _____    ______ ____
ROOT
ATOM      1  O   UNL     1       0.538   2.991  -1.188  0.00  0.00    -0.336 OA
ATOM      6  N   UNL     1       0.756   1.307   0.273  0.00  0.00    -0.190 NA
ATOM      7  N   UNL     1       1.814   2.455  -1.399  0.00  0.00    -0.056 NA
ATOM     18  C   UNL     1      -0.017   2.258  -0.187  0.00  0.00    +0.245 A 
ATOM     20  C   UNL     1       1.869   1.467  -0.501  0.00  0.00    +0.207 A 
ENDROOT
BRANCH  20  21
ATOM      8  N   UNL     1       3.971  -1.522   0.229  0.00  0.00    -0.221 NA
ATOM     21  C   UNL     1       3.019   0.624  -0.351  0.00  0.00    +0.084 A 
ATOM     22  C   UNL     1       2.916  -0.691   0.074  0.00  0.00    +0.226 A 
ATOM     23  C   UNL     1       4.287   1.118  -0.635  0.00  0.00    +0.018 A 
ATOM     24  C   UNL     1       5.397   0.295  -0.487  0.00  0.00    +0.021 A 
ATOM     25  C   UNL     1       5.188  -1.005  -0.056  0.00  0.00    +0.114 A 
BRANCH  22   2
ATOM      2  O   UNL     1       1.687  -1.225   0.366  0.00  0.00    -0.474 OA
BRANCH   2  26
ATOM     26  C   UNL     1       1.665  -2.581   0.795  0.00  0.00    +0.258 C 
BRANCH  26  27
ATOM     27  C   UNL     1       0.233  -2.982   1.092  0.00  0.00    +0.200 C 
BRANCH  27   3
ATOM      3  O   UNL     1       0.208  -4.345   1.502  0.00  0.00    -0.380 OA
ATOM     28  C   UNL     1      -1.110  -4.770   1.815  0.00  0.00    +0.194 C 
ENDBRANCH  27   3
ENDBRANCH  26  27
ENDBRANCH   2  26
ENDBRANCH  22   2
ENDBRANCH  20  21
BRANCH  18  10
ATOM      4  N   UNL     1      -2.175   1.508   0.799  0.00  0.00    -0.288 NA
ATOM     10  C   UNL     1      -1.419   2.644   0.235  0.00  0.00    +0.146 C 
ATOM     11  C   UNL     1      -3.123   2.077   1.757  0.00  0.00    +0.085 C 
ATOM     14  C   UNL     1      -1.433   3.712   1.344  0.00  0.00    +0.030 C 
ATOM     15  C   UNL     1      -2.271   3.112   2.464  0.00  0.00    +0.017 C 
BRANCH   4   9
ATOM      5  N   UNL     1      -3.198  -1.884  -1.549  0.00  0.00    -0.305 NA
ATOM      9  C   UNL     1      -2.842   0.698  -0.218  0.00  0.00    +0.060 C 
ATOM     12  C   UNL     1      -3.595  -0.462   0.438  0.00  0.00    +0.034 C 
ATOM     13  C   UNL     1      -1.833   0.157  -1.236  0.00  0.00    +0.034 C 
ATOM     16  C   UNL     1      -4.217  -1.379  -0.618  0.00  0.00    +0.085 C 
ATOM     17  C   UNL     1      -2.513  -0.780  -2.237  0.00  0.00    +0.085 C 
ATOM     19  C   UNL     1      -3.800  -2.797  -2.520  0.00  0.00    +0.104 C 
ENDBRANCH   4   9
ENDBRANCH  18  10
TORSDOF 7
