MODEL 1
REMARK VINA RESULT:      -7.6      0.000      0.000
REMARK  Name = 71694374
REMARK  7 active torsions:
REMARK  status: ('A' for Active; 'I' for Inactive)
REMARK    1  A    between atoms: N_8  and  C_31
REMARK    2  A    between atoms: N_8  and  C_33
REMARK    3  A    between atoms: N_8  and  C_34
REMARK    4  A    between atoms: C_10  and  C_15
REMARK    5  A    between atoms: C_15  and  C_17
REMARK    6  A    between atoms: C_33  and  C_35
REMARK    7  A    between atoms: C_35  and  C_36
REMARK                            x       y       z     vdW  Elec       q    Type
REMARK                         _______ _______ _______ _____ _____    ______ ____
ROOT
ATOM      2  O   UNL     1      21.366  10.374  22.888  0.00  0.00    -0.274 OA
ATOM      4  O   UNL     1      19.600   5.959  20.533  0.00  0.00    -0.488 OA
ATOM      5  N   UNL     1      22.480   8.349  22.762  0.00  0.00    -0.300 N 
ATOM      7  N   UNL     1      19.359   7.750  22.814  0.00  0.00    -0.304 NA
ATOM     10  C   UNL     1      23.723   6.943  20.532  0.00  0.00    +0.008 C 
ATOM     11  C   UNL     1      22.484   6.399  21.304  0.00  0.00    +0.032 C 
ATOM     12  C   UNL     1      23.774   8.483  20.674  0.00  0.00    +0.023 C 
ATOM     13  C   UNL     1      22.497   6.882  22.767  0.00  0.00    +0.115 C 
ATOM     14  C   UNL     1      23.660   8.945  22.129  0.00  0.00    +0.108 C 
ATOM     16  C   UNL     1      22.314   4.906  21.223  0.00  0.00    -0.023 C 
ATOM     18  C   UNL     1      21.389   9.154  23.086  0.00  0.00    +0.229 C 
ATOM     19  C   UNL     1      21.280   4.202  20.734  0.00  0.00    +0.010 C 
ATOM     20  C   UNL     1      20.182   8.513  23.748  0.00  0.00    +0.178 C 
ATOM     23  C   UNL     1      19.951   4.630  20.166  0.00  0.00    +0.256 C 
ATOM     26  C   UNL     1      18.930   8.481  21.625  0.00  0.00    +0.120 C 
ATOM     27  C   UNL     1      17.975   7.662  20.772  0.00  0.00    +0.010 A 
ATOM     28  C   UNL     1      18.340   6.409  20.228  0.00  0.00    +0.125 A 
ATOM     29  C   UNL     1      16.700   8.181  20.496  0.00  0.00    +0.031 A 
ATOM     30  C   UNL     1      17.429   5.713  19.423  0.00  0.00    +0.048 A 
ATOM     31  C   UNL     1      15.800   7.474  19.700  0.00  0.00    +0.030 A 
ATOM     32  C   UNL     1      16.165   6.244  19.164  0.00  0.00    +0.027 A 
ATOM     41  H   UNL     1      18.540   7.404  23.315  0.00  0.00    +0.123 HD
ENDROOT
BRANCH  31   8
ATOM      8  N   UNL     1      14.522   8.009  19.434  0.00  0.00    -0.333 N 
ATOM     34  C   UNL     1      14.383   9.243  18.688  0.00  0.00    +0.129 C 
BRANCH   8  33
ATOM     33  C   UNL     1      13.330   7.325  19.895  0.00  0.00    +0.111 C 
BRANCH  33  35
ATOM     35  C   UNL     1      13.240   7.353  21.421  0.00  0.00    +0.074 C 
BRANCH  35  36
ATOM      9  N   UNL     1      13.300   9.665  22.188  0.00  0.00    -0.260 NA
ATOM     36  C   UNL     1      12.532   8.577  21.949  0.00  0.00    +0.043 A 
ATOM     37  C   UNL     1      11.164   8.532  22.160  0.00  0.00    +0.023 A 
ATOM     38  C   UNL     1      10.542   9.677  22.646  0.00  0.00    +0.003 A 
ATOM     39  C   UNL     1      12.660  10.759  22.660  0.00  0.00    +0.111 A 
ATOM     40  C   UNL     1      11.297  10.816  22.903  0.00  0.00    +0.020 A 
ENDBRANCH  35  36
ENDBRANCH  33  35
ENDBRANCH   8  33
ENDBRANCH  31   8
BRANCH  10  15
ATOM     15  C   UNL     1      25.062   6.319  20.950  0.00  0.00    +0.100 C 
BRANCH  15  17
ATOM      1  O   UNL     1      25.306   4.382  19.606  0.00  0.00    -0.276 OA
ATOM      3  O   UNL     1      27.793   7.727  16.944  0.00  0.00    -0.377 OA
ATOM      6  N   UNL     1      26.563   6.235  18.994  0.00  0.00    -0.297 N 
ATOM     17  C   UNL     1      25.650   5.551  19.794  0.00  0.00    +0.216 C 
ATOM     21  C   UNL     1      27.179   5.567  17.848  0.00  0.00    +0.136 C 
ATOM     22  C   UNL     1      27.089   7.579  19.261  0.00  0.00    +0.136 C 
ATOM     24  C   UNL     1      27.167   6.480  16.631  0.00  0.00    +0.179 C 
ATOM     25  C   UNL     1      27.086   8.409  17.984  0.00  0.00    +0.179 C 
ENDBRANCH  15  17
ENDBRANCH  10  15
TORSDOF 6
ENDMDL
MODEL 2
REMARK VINA RESULT:      -7.3     30.346     33.653
REMARK  Name = 71694374
REMARK  7 active torsions:
REMARK  status: ('A' for Active; 'I' for Inactive)
REMARK    1  A    between atoms: N_8  and  C_31
REMARK    2  A    between atoms: N_8  and  C_33
REMARK    3  A    between atoms: N_8  and  C_34
REMARK    4  A    between atoms: C_10  and  C_15
REMARK    5  A    between atoms: C_15  and  C_17
REMARK    6  A    between atoms: C_33  and  C_35
REMARK    7  A    between atoms: C_35  and  C_36
REMARK                            x       y       z     vdW  Elec       q    Type
REMARK                         _______ _______ _______ _____ _____    ______ ____
ROOT
ATOM      2  O   UNL     1      -8.820 -11.257  11.629  0.00  0.00    -0.274 OA
ATOM      4  O   UNL     1      -3.770 -10.506  13.076  0.00  0.00    -0.488 OA
ATOM      5  N   UNL     1      -7.085 -10.585  10.252  0.00  0.00    -0.300 N 
ATOM      7  N   UNL     1      -6.495  -9.490  13.177  0.00  0.00    -0.304 NA
ATOM     10  C   UNL     1      -4.749 -11.995   9.229  0.00  0.00    +0.008 C 
ATOM     11  C   UNL     1      -4.660 -10.784  10.206  0.00  0.00    +0.032 C 
ATOM     12  C   UNL     1      -6.125 -12.681   9.397  0.00  0.00    +0.023 C 
ATOM     13  C   UNL     1      -5.852  -9.830  10.003  0.00  0.00    +0.115 C 
ATOM     14  C   UNL     1      -7.291 -11.693   9.316  0.00  0.00    +0.108 C 
ATOM     16  C   UNL     1      -3.350 -10.043  10.150  0.00  0.00    -0.023 C 
ATOM     18  C   UNL     1      -7.898 -10.471  11.379  0.00  0.00    +0.229 C 
ATOM     19  C   UNL     1      -2.457  -9.837  11.132  0.00  0.00    +0.010 C 
ATOM     20  C   UNL     1      -7.669  -9.309  12.329  0.00  0.00    +0.178 C 
ATOM     23  C   UNL     1      -2.465 -10.210  12.593  0.00  0.00    +0.256 C 
ATOM     26  C   UNL     1      -6.457 -10.745  13.925  0.00  0.00    +0.120 C 
ATOM     27  C   UNL     1      -5.274 -10.799  14.878  0.00  0.00    +0.010 A 
ATOM     28  C   UNL     1      -3.939 -10.690  14.425  0.00  0.00    +0.125 A 
ATOM     29  C   UNL     1      -5.517 -10.989  16.248  0.00  0.00    +0.031 A 
ATOM     30  C   UNL     1      -2.887 -10.778  15.346  0.00  0.00    +0.048 A 
ATOM     31  C   UNL     1      -4.461 -11.068  17.154  0.00  0.00    +0.030 A 
ATOM     32  C   UNL     1      -3.151 -10.964  16.703  0.00  0.00    +0.027 A 
ATOM     41  H   UNL     1      -6.442  -8.705  13.826  0.00  0.00    +0.123 HD
ENDROOT
BRANCH  31   8
ATOM      8  N   UNL     1      -4.723 -11.258  18.528  0.00  0.00    -0.333 N 
ATOM     34  C   UNL     1      -3.907 -12.162  19.312  0.00  0.00    +0.129 C 
BRANCH   8  33
ATOM     33  C   UNL     1      -5.806 -10.544  19.174  0.00  0.00    +0.111 C 
BRANCH  33  35
ATOM     35  C   UNL     1      -6.967 -11.485  19.494  0.00  0.00    +0.074 C 
BRANCH  35  36
ATOM      9  N   UNL     1      -9.273 -11.056  20.150  0.00  0.00    -0.260 NA
ATOM     36  C   UNL     1      -8.318 -10.876  19.210  0.00  0.00    +0.043 A 
ATOM     37  C   UNL     1      -8.514 -10.178  18.029  0.00  0.00    +0.023 A 
ATOM     38  C   UNL     1      -9.770  -9.628  17.799  0.00  0.00    +0.003 A 
ATOM     39  C   UNL     1     -10.482 -10.507  19.891  0.00  0.00    +0.111 A 
ATOM     40  C   UNL     1     -10.779  -9.791  18.743  0.00  0.00    +0.020 A 
ENDBRANCH  35  36
ENDBRANCH  33  35
ENDBRANCH   8  33
ENDBRANCH  31   8
BRANCH  10  15
ATOM     15  C   UNL     1      -4.496 -11.649   7.756  0.00  0.00    +0.100 C 
BRANCH  15  17
ATOM      1  O   UNL     1      -3.654 -13.774   7.129  0.00  0.00    -0.276 OA
ATOM      3  O   UNL     1      -7.884 -13.612   4.570  0.00  0.00    -0.377 OA
ATOM      6  N   UNL     1      -5.511 -13.008   5.965  0.00  0.00    -0.297 N 
ATOM     17  C   UNL     1      -4.507 -12.907   6.926  0.00  0.00    +0.216 C 
ATOM     21  C   UNL     1      -5.599 -14.198   5.118  0.00  0.00    +0.136 C 
ATOM     22  C   UNL     1      -6.461 -11.947   5.611  0.00  0.00    +0.136 C 
ATOM     24  C   UNL     1      -7.041 -14.675   5.022  0.00  0.00    +0.179 C 
ATOM     25  C   UNL     1      -7.868 -12.517   5.490  0.00  0.00    +0.179 C 
ENDBRANCH  15  17
ENDBRANCH  10  15
TORSDOF 6
ENDMDL
MODEL 3
REMARK VINA RESULT:      -7.3     28.570     34.546
REMARK  Name = 71694374
REMARK  7 active torsions:
REMARK  status: ('A' for Active; 'I' for Inactive)
REMARK    1  A    between atoms: N_8  and  C_31
REMARK    2  A    between atoms: N_8  and  C_33
REMARK    3  A    between atoms: N_8  and  C_34
REMARK    4  A    between atoms: C_10  and  C_15
REMARK    5  A    between atoms: C_15  and  C_17
REMARK    6  A    between atoms: C_33  and  C_35
REMARK    7  A    between atoms: C_35  and  C_36
REMARK                            x       y       z     vdW  Elec       q    Type
REMARK                         _______ _______ _______ _____ _____    ______ ____
ROOT
ATOM      2  O   UNL     1     -12.073  10.634  30.741  0.00  0.00    -0.274 OA
ATOM      4  O   UNL     1     -12.708   7.867  35.225  0.00  0.00    -0.488 OA
ATOM      5  N   UNL     1     -11.403  11.284  32.859  0.00  0.00    -0.300 N 
ATOM      7  N   UNL     1     -13.995   9.471  33.166  0.00  0.00    -0.304 NA
ATOM     10  C   UNL     1      -9.296  10.310  34.622  0.00  0.00    +0.008 C 
ATOM     11  C   UNL     1     -10.814  10.202  34.958  0.00  0.00    +0.032 C 
ATOM     12  C   UNL     1      -9.122  10.393  33.087  0.00  0.00    +0.023 C 
ATOM     13  C   UNL     1     -11.601  11.357  34.311  0.00  0.00    +0.115 C 
ATOM     14  C   UNL     1     -10.008  11.467  32.449  0.00  0.00    +0.108 C 
ATOM     16  C   UNL     1     -11.112  10.093  36.430  0.00  0.00    -0.023 C 
ATOM     18  C   UNL     1     -12.347  10.854  31.927  0.00  0.00    +0.229 C 
ATOM     19  C   UNL     1     -11.743   9.109  37.091  0.00  0.00    +0.010 C 
ATOM     20  C   UNL     1     -13.787  10.680  32.375  0.00  0.00    +0.178 C 
ATOM     23  C   UNL     1     -12.400   7.838  36.613  0.00  0.00    +0.256 C 
ATOM     26  C   UNL     1     -13.527   8.235  32.542  0.00  0.00    +0.120 C 
ATOM     27  C   UNL     1     -13.896   7.012  33.367  0.00  0.00    +0.010 A 
ATOM     28  C   UNL     1     -13.463   6.847  34.703  0.00  0.00    +0.125 A 
ATOM     29  C   UNL     1     -14.671   6.004  32.771  0.00  0.00    +0.031 A 
ATOM     30  C   UNL     1     -13.807   5.685  35.404  0.00  0.00    +0.048 A 
ATOM     31  C   UNL     1     -15.014   4.855  33.483  0.00  0.00    +0.030 A 
ATOM     32  C   UNL     1     -14.581   4.697  34.794  0.00  0.00    +0.027 A 
ATOM     41  H   UNL     1     -14.990   9.390  33.376  0.00  0.00    +0.123 HD
ENDROOT
BRANCH  31   8
ATOM      8  N   UNL     1     -15.794   3.852  32.870  0.00  0.00    -0.333 N 
ATOM     34  C   UNL     1     -17.145   4.138  32.431  0.00  0.00    +0.129 C 
BRANCH   8  33
ATOM     33  C   UNL     1     -15.252   2.524  32.664  0.00  0.00    +0.111 C 
BRANCH  33  35
ATOM     35  C   UNL     1     -14.330   2.493  31.445  0.00  0.00    +0.074 C 
BRANCH  35  36
ATOM      9  N   UNL     1     -15.646   1.166  29.883  0.00  0.00    -0.260 NA
ATOM     36  C   UNL     1     -15.078   2.366  30.140  0.00  0.00    +0.043 A 
ATOM     37  C   UNL     1     -15.147   3.456  29.288  0.00  0.00    +0.023 A 
ATOM     38  C   UNL     1     -15.845   3.306  28.095  0.00  0.00    +0.003 A 
ATOM     39  C   UNL     1     -16.316   1.058  28.712  0.00  0.00    +0.111 A 
ATOM     40  C   UNL     1     -16.443   2.088  27.794  0.00  0.00    +0.020 A 
ENDBRANCH  35  36
ENDBRANCH  33  35
ENDBRANCH   8  33
ENDBRANCH  31   8
BRANCH  10  15
ATOM     15  C   UNL     1      -8.570  11.474  35.311  0.00  0.00    +0.100 C 
BRANCH  15  17
ATOM      1  O   UNL     1      -6.515  10.362  35.710  0.00  0.00    -0.276 OA
ATOM      3  O   UNL     1      -5.185  13.649  32.262  0.00  0.00    -0.377 OA
ATOM      6  N   UNL     1      -6.427  12.260  34.376  0.00  0.00    -0.297 N 
ATOM     17  C   UNL     1      -7.080  11.309  35.157  0.00  0.00    +0.216 C 
ATOM     21  C   UNL     1      -4.981  12.173  34.170  0.00  0.00    +0.136 C 
ATOM     22  C   UNL     1      -7.043  13.465  33.810  0.00  0.00    +0.136 C 
ATOM     24  C   UNL     1      -4.639  12.404  32.706  0.00  0.00    +0.179 C 
ATOM     25  C   UNL     1      -6.612  13.647  32.360  0.00  0.00    +0.179 C 
ENDBRANCH  15  17
ENDBRANCH  10  15
TORSDOF 6
ENDMDL
MODEL 4
REMARK VINA RESULT:      -7.2     27.025     32.801
REMARK  Name = 71694374
REMARK  7 active torsions:
REMARK  status: ('A' for Active; 'I' for Inactive)
REMARK    1  A    between atoms: N_8  and  C_31
REMARK    2  A    between atoms: N_8  and  C_33
REMARK    3  A    between atoms: N_8  and  C_34
REMARK    4  A    between atoms: C_10  and  C_15
REMARK    5  A    between atoms: C_15  and  C_17
REMARK    6  A    between atoms: C_33  and  C_35
REMARK    7  A    between atoms: C_35  and  C_36
REMARK                            x       y       z     vdW  Elec       q    Type
REMARK                         _______ _______ _______ _____ _____    ______ ____
ROOT
ATOM      2  O   UNL     1      -7.501  12.033  33.655  0.00  0.00    -0.274 OA
ATOM      4  O   UNL     1      -9.922   8.969  37.248  0.00  0.00    -0.488 OA
ATOM      5  N   UNL     1      -6.911  11.804  35.882  0.00  0.00    -0.300 N 
ATOM      7  N   UNL     1     -10.055  11.400  35.655  0.00  0.00    -0.304 NA
ATOM     10  C   UNL     1      -5.731   9.592  37.368  0.00  0.00    +0.008 C 
ATOM     11  C   UNL     1      -7.167  10.136  37.636  0.00  0.00    +0.032 C 
ATOM     12  C   UNL     1      -5.327   9.923  35.912  0.00  0.00    +0.023 C 
ATOM     13  C   UNL     1      -7.254  11.636  37.298  0.00  0.00    +0.115 C 
ATOM     14  C   UNL     1      -5.540  11.398  35.560  0.00  0.00    +0.108 C 
ATOM     16  C   UNL     1      -7.682   9.856  39.022  0.00  0.00    -0.023 C 
ATOM     18  C   UNL     1      -7.808  12.086  34.852  0.00  0.00    +0.229 C 
ATOM     19  C   UNL     1      -8.773   9.164  39.391  0.00  0.00    +0.010 C 
ATOM     20  C   UNL     1      -9.220  12.513  35.212  0.00  0.00    +0.178 C 
ATOM     23  C   UNL     1      -9.856   8.491  38.586  0.00  0.00    +0.256 C 
ATOM     26  C   UNL     1     -10.110  10.263  34.739  0.00  0.00    +0.120 C 
ATOM     27  C   UNL     1     -11.098   9.207  35.208  0.00  0.00    +0.010 A 
ATOM     28  C   UNL     1     -10.974   8.566  36.463  0.00  0.00    +0.125 A 
ATOM     29  C   UNL     1     -12.151   8.841  34.356  0.00  0.00    +0.031 A 
ATOM     30  C   UNL     1     -11.896   7.578  36.829  0.00  0.00    +0.048 A 
ATOM     31  C   UNL     1     -13.067   7.861  34.736  0.00  0.00    +0.030 A 
ATOM     32  C   UNL     1     -12.938   7.232  35.968  0.00  0.00    +0.027 A 
ATOM     41  H   UNL     1     -10.999  11.751  35.818  0.00  0.00    +0.123 HD
ENDROOT
BRANCH  31   8
ATOM      8  N   UNL     1     -14.121   7.505  33.868  0.00  0.00    -0.333 N 
ATOM     34  C   UNL     1     -14.809   8.519  33.095  0.00  0.00    +0.129 C 
BRANCH   8  33
ATOM     33  C   UNL     1     -14.523   6.120  33.732  0.00  0.00    +0.111 C 
BRANCH  33  35
ATOM     35  C   UNL     1     -13.706   5.417  32.648  0.00  0.00    +0.074 C 
BRANCH  35  36
ATOM      9  N   UNL     1     -14.680   3.378  33.558  0.00  0.00    -0.260 NA
ATOM     36  C   UNL     1     -14.033   3.950  32.518  0.00  0.00    +0.043 A 
ATOM     37  C   UNL     1     -13.664   3.272  31.367  0.00  0.00    +0.023 A 
ATOM     38  C   UNL     1     -13.982   1.921  31.277  0.00  0.00    +0.003 A 
ATOM     39  C   UNL     1     -14.971   2.063  33.435  0.00  0.00    +0.111 A 
ATOM     40  C   UNL     1     -14.648   1.298  32.327  0.00  0.00    +0.020 A 
ENDBRANCH  35  36
ENDBRANCH  33  35
ENDBRANCH   8  33
ENDBRANCH  31   8
BRANCH  10  15
ATOM     15  C   UNL     1      -4.664  10.094  38.350  0.00  0.00    +0.100 C 
BRANCH  15  17
ATOM      1  O   UNL     1      -4.321   8.048  39.496  0.00  0.00    -0.276 OA
ATOM      3  O   UNL     1      -0.031   8.539  37.085  0.00  0.00    -0.377 OA
ATOM      6  N   UNL     1      -2.475   8.959  38.423  0.00  0.00    -0.297 N 
ATOM     17  C   UNL     1      -3.812   8.940  38.814  0.00  0.00    +0.216 C 
ATOM     21  C   UNL     1      -1.578   7.875  38.824  0.00  0.00    +0.136 C 
ATOM     22  C   UNL     1      -1.808  10.061  37.721  0.00  0.00    +0.136 C 
ATOM     24  C   UNL     1      -0.730   7.424  37.645  0.00  0.00    +0.179 C 
ATOM     25  C   UNL     1      -0.945   9.520  36.589  0.00  0.00    +0.179 C 
ENDBRANCH  15  17
ENDBRANCH  10  15
TORSDOF 6
ENDMDL
MODEL 5
REMARK VINA RESULT:      -7.1     16.935     21.208
REMARK  Name = 71694374
REMARK  7 active torsions:
REMARK  status: ('A' for Active; 'I' for Inactive)
REMARK    1  A    between atoms: N_8  and  C_31
REMARK    2  A    between atoms: N_8  and  C_33
REMARK    3  A    between atoms: N_8  and  C_34
REMARK    4  A    between atoms: C_10  and  C_15
REMARK    5  A    between atoms: C_15  and  C_17
REMARK    6  A    between atoms: C_33  and  C_35
REMARK    7  A    between atoms: C_35  and  C_36
REMARK                            x       y       z     vdW  Elec       q    Type
REMARK                         _______ _______ _______ _____ _____    ______ ____
ROOT
ATOM      2  O   UNL     1       7.893   5.951   5.383  0.00  0.00    -0.274 OA
ATOM      4  O   UNL     1      12.970   7.138   4.395  0.00  0.00    -0.488 OA
ATOM      5  N   UNL     1       9.375   6.958   6.849  0.00  0.00    -0.300 N 
ATOM      7  N   UNL     1      11.038   5.033   4.943  0.00  0.00    -0.304 NA
ATOM     10  C   UNL     1      10.586   9.609   6.883  0.00  0.00    +0.008 C 
ATOM     11  C   UNL     1      11.404   8.295   6.701  0.00  0.00    +0.032 C 
ATOM     12  C   UNL     1       9.130   9.367   6.420  0.00  0.00    +0.023 C 
ATOM     13  C   UNL     1      10.717   7.119   7.421  0.00  0.00    +0.115 C 
ATOM     14  C   UNL     1       8.508   8.120   7.054  0.00  0.00    +0.108 C 
ATOM     16  C   UNL     1      12.851   8.410   7.101  0.00  0.00    -0.023 C 
ATOM     18  C   UNL     1       8.974   5.940   5.984  0.00  0.00    +0.229 C 
ATOM     19  C   UNL     1      13.949   8.217   6.352  0.00  0.00    +0.010 C 
ATOM     20  C   UNL     1       9.888   4.742   5.794  0.00  0.00    +0.178 C 
ATOM     23  C   UNL     1      14.125   7.783   4.919  0.00  0.00    +0.256 C 
ATOM     26  C   UNL     1      10.714   5.609   3.639  0.00  0.00    +0.120 C 
ATOM     27  C   UNL     1      11.949   5.760   2.766  0.00  0.00    +0.010 A 
ATOM     28  C   UNL     1      13.059   6.541   3.163  0.00  0.00    +0.125 A 
ATOM     29  C   UNL     1      11.975   5.123   1.515  0.00  0.00    +0.031 A 
ATOM     30  C   UNL     1      14.157   6.670   2.303  0.00  0.00    +0.048 A 
ATOM     31  C   UNL     1      13.078   5.253   0.673  0.00  0.00    +0.030 A 
ATOM     32  C   UNL     1      14.164   6.025   1.066  0.00  0.00    +0.027 A 
ATOM     41  H   UNL     1      11.568   4.171   4.811  0.00  0.00    +0.123 HD
ENDROOT
BRANCH  31   8
ATOM      8  N   UNL     1      13.089   4.604  -0.581  0.00  0.00    -0.333 N 
ATOM     34  C   UNL     1      14.157   4.854  -1.527  0.00  0.00    +0.129 C 
BRANCH   8  33
ATOM     33  C   UNL     1      12.036   3.673  -0.934  0.00  0.00    +0.111 C 
BRANCH  33  35
ATOM     35  C   UNL     1      12.477   2.758  -2.076  0.00  0.00    +0.074 C 
BRANCH  35  36
ATOM      9  N   UNL     1      10.229   2.387  -2.940  0.00  0.00    -0.260 NA
ATOM     36  C   UNL     1      11.503   2.739  -3.229  0.00  0.00    +0.043 A 
ATOM     37  C   UNL     1      11.946   3.075  -4.498  0.00  0.00    +0.023 A 
ATOM     38  C   UNL     1      11.023   3.049  -5.538  0.00  0.00    +0.003 A 
ATOM     39  C   UNL     1       9.361   2.373  -3.977  0.00  0.00    +0.111 A 
ATOM     40  C   UNL     1       9.703   2.692  -5.280  0.00  0.00    +0.020 A 
ENDBRANCH  35  36
ENDBRANCH  33  35
ENDBRANCH   8  33
ENDBRANCH  31   8
BRANCH  10  15
ATOM     15  C   UNL     1      10.611  10.186   8.304  0.00  0.00    +0.100 C 
BRANCH  15  17
ATOM      1  O   UNL     1      10.943  12.262   7.208  0.00  0.00    -0.276 OA
ATOM      3  O   UNL     1       8.639  13.706  11.338  0.00  0.00    -0.377 OA
ATOM      6  N   UNL     1      10.164  12.355   9.393  0.00  0.00    -0.297 N 
ATOM     17  C   UNL     1      10.593  11.692   8.244  0.00  0.00    +0.216 C 
ATOM     21  C   UNL     1      10.111  13.816   9.420  0.00  0.00    +0.136 C 
ATOM     22  C   UNL     1       9.862  11.718  10.680  0.00  0.00    +0.136 C 
ATOM     24  C   UNL     1       8.806  14.288  10.043  0.00  0.00    +0.179 C 
ATOM     25  C   UNL     1       8.569  12.280  11.255  0.00  0.00    +0.179 C 
ENDBRANCH  15  17
ENDBRANCH  10  15
TORSDOF 6
ENDMDL
MODEL 6
REMARK VINA RESULT:      -7.1     19.116     22.759
REMARK  Name = 71694374
REMARK  7 active torsions:
REMARK  status: ('A' for Active; 'I' for Inactive)
REMARK    1  A    between atoms: N_8  and  C_31
REMARK    2  A    between atoms: N_8  and  C_33
REMARK    3  A    between atoms: N_8  and  C_34
REMARK    4  A    between atoms: C_10  and  C_15
REMARK    5  A    between atoms: C_15  and  C_17
REMARK    6  A    between atoms: C_33  and  C_35
REMARK    7  A    between atoms: C_35  and  C_36
REMARK                            x       y       z     vdW  Elec       q    Type
REMARK                         _______ _______ _______ _____ _____    ______ ____
ROOT
ATOM      2  O   UNL     1      16.143   4.552  -0.863  0.00  0.00    -0.274 OA
ATOM      4  O   UNL     1      12.260   6.149   2.382  0.00  0.00    -0.488 OA
ATOM      5  N   UNL     1      13.980   3.729  -0.805  0.00  0.00    -0.300 N 
ATOM      7  N   UNL     1      14.751   4.667   2.132  0.00  0.00    -0.304 NA
ATOM     10  C   UNL     1      11.426   4.900  -1.582  0.00  0.00    +0.008 C 
ATOM     11  C   UNL     1      11.784   4.521  -0.114  0.00  0.00    +0.032 C 
ATOM     12  C   UNL     1      12.732   5.156  -2.372  0.00  0.00    +0.023 C 
ATOM     13  C   UNL     1      12.767   3.335  -0.080  0.00  0.00    +0.115 C 
ATOM     14  C   UNL     1      13.746   4.019  -2.222  0.00  0.00    +0.108 C 
ATOM     16  C   UNL     1      10.589   4.266   0.765  0.00  0.00    -0.023 C 
ATOM     18  C   UNL     1      15.209   4.048  -0.229  0.00  0.00    +0.229 C 
ATOM     19  C   UNL     1      10.224   4.897   1.893  0.00  0.00    +0.010 C 
ATOM     20  C   UNL     1      15.429   3.731   1.240  0.00  0.00    +0.178 C 
ATOM     23  C   UNL     1      10.877   6.002   2.683  0.00  0.00    +0.256 C 
ATOM     26  C   UNL     1      15.045   6.077   1.890  0.00  0.00    +0.120 C 
ATOM     27  C   UNL     1      14.406   6.975   2.938  0.00  0.00    +0.010 A 
ATOM     28  C   UNL     1      13.009   7.000   3.155  0.00  0.00    +0.125 A 
ATOM     29  C   UNL     1      15.230   7.822   3.695  0.00  0.00    +0.031 A 
ATOM     30  C   UNL     1      12.473   7.870   4.113  0.00  0.00    +0.048 A 
ATOM     31  C   UNL     1      14.685   8.678   4.651  0.00  0.00    +0.030 A 
ATOM     32  C   UNL     1      13.311   8.702   4.857  0.00  0.00    +0.027 A 
ATOM     41  H   UNL     1      14.995   4.429   3.094  0.00  0.00    +0.123 HD
ENDROOT
BRANCH  31   8
ATOM      8  N   UNL     1      15.527   9.523   5.405  0.00  0.00    -0.333 N 
ATOM     34  C   UNL     1      15.013  10.233   6.558  0.00  0.00    +0.129 C 
BRANCH   8  33
ATOM     33  C   UNL     1      16.921   9.684   5.040  0.00  0.00    +0.111 C 
BRANCH  33  35
ATOM     35  C   UNL     1      17.836   9.352   6.218  0.00  0.00    +0.074 C 
BRANCH  35  36
ATOM      9  N   UNL     1      19.998   8.371   6.763  0.00  0.00    -0.260 NA
ATOM     36  C   UNL     1      19.046   8.543   5.819  0.00  0.00    +0.043 A 
ATOM     37  C   UNL     1      19.123   8.026   4.536  0.00  0.00    +0.023 A 
ATOM     38  C   UNL     1      20.250   7.283   4.200  0.00  0.00    +0.003 A 
ATOM     39  C   UNL     1      21.079   7.644   6.400  0.00  0.00    +0.111 A 
ATOM     40  C   UNL     1      21.251   7.084   5.144  0.00  0.00    +0.020 A 
ENDBRANCH  35  36
ENDBRANCH  33  35
ENDBRANCH   8  33
ENDBRANCH  31   8
BRANCH  10  15
ATOM     15  C   UNL     1      10.548   3.874  -2.312  0.00  0.00    +0.100 C 
BRANCH  15  17
ATOM      1  O   UNL     1       8.994   5.623  -2.696  0.00  0.00    -0.276 OA
ATOM      3  O   UNL     1       9.029   3.372  -7.099  0.00  0.00    -0.377 OA
ATOM      6  N   UNL     1       9.181   4.016  -4.360  0.00  0.00    -0.297 N 
ATOM     17  C   UNL     1       9.503   4.588  -3.132  0.00  0.00    +0.216 C 
ATOM     21  C   UNL     1       8.181   4.645  -5.223  0.00  0.00    +0.136 C 
ATOM     22  C   UNL     1       9.672   2.723  -4.853  0.00  0.00    +0.136 C 
ATOM     24  C   UNL     1       8.672   4.686  -6.662  0.00  0.00    +0.179 C 
ATOM     25  C   UNL     1      10.097   2.841  -6.311  0.00  0.00    +0.179 C 
ENDBRANCH  15  17
ENDBRANCH  10  15
TORSDOF 6
ENDMDL
MODEL 7
REMARK VINA RESULT:      -7.0     16.414     20.760
REMARK  Name = 71694374
REMARK  7 active torsions:
REMARK  status: ('A' for Active; 'I' for Inactive)
REMARK    1  A    between atoms: N_8  and  C_31
REMARK    2  A    between atoms: N_8  and  C_33
REMARK    3  A    between atoms: N_8  and  C_34
REMARK    4  A    between atoms: C_10  and  C_15
REMARK    5  A    between atoms: C_15  and  C_17
REMARK    6  A    between atoms: C_33  and  C_35
REMARK    7  A    between atoms: C_35  and  C_36
REMARK                            x       y       z     vdW  Elec       q    Type
REMARK                         _______ _______ _______ _____ _____    ______ ____
ROOT
ATOM      2  O   UNL     1       8.031   5.919   5.947  0.00  0.00    -0.274 OA
ATOM      4  O   UNL     1      12.261   7.600   3.221  0.00  0.00    -0.488 OA
ATOM      5  N   UNL     1       9.879   7.007   6.819  0.00  0.00    -0.300 N 
ATOM      7  N   UNL     1      10.835   5.309   4.308  0.00  0.00    -0.304 NA
ATOM     10  C   UNL     1      10.818   9.755   6.574  0.00  0.00    +0.008 C 
ATOM     11  C   UNL     1      11.600   8.529   6.015  0.00  0.00    +0.032 C 
ATOM     12  C   UNL     1       9.317   9.397   6.672  0.00  0.00    +0.023 C 
ATOM     13  C   UNL     1      11.321   7.272   6.860  0.00  0.00    +0.115 C 
ATOM     14  C   UNL     1       9.071   8.078   7.409  0.00  0.00    +0.108 C 
ATOM     16  C   UNL     1      13.079   8.763   5.854  0.00  0.00    -0.023 C 
ATOM     18  C   UNL     1       9.256   5.987   6.100  0.00  0.00    +0.229 C 
ATOM     19  C   UNL     1      13.825   8.697   4.739  0.00  0.00    +0.010 C 
ATOM     20  C   UNL     1      10.115   4.885   5.505  0.00  0.00    +0.178 C 
ATOM     23  C   UNL     1      13.479   8.329   3.318  0.00  0.00    +0.256 C 
ATOM     26  C   UNL     1      10.003   5.897   3.260  0.00  0.00    +0.120 C 
ATOM     27  C   UNL     1      10.804   6.190   2.002  0.00  0.00    +0.010 A 
ATOM     28  C   UNL     1      11.922   7.056   2.007  0.00  0.00    +0.125 A 
ATOM     29  C   UNL     1      10.403   5.601   0.792  0.00  0.00    +0.031 A 
ATOM     30  C   UNL     1      12.604   7.314   0.812  0.00  0.00    +0.048 A 
ATOM     31  C   UNL     1      11.095   5.860  -0.390  0.00  0.00    +0.030 A 
ATOM     32  C   UNL     1      12.191   6.715  -0.379  0.00  0.00    +0.027 A 
ATOM     41  H   UNL     1      11.337   4.504   3.932  0.00  0.00    +0.123 HD
ENDROOT
BRANCH  31   8
ATOM      8  N   UNL     1      10.680   5.259  -1.597  0.00  0.00    -0.333 N 
ATOM     34  C   UNL     1       9.354   5.511  -2.125  0.00  0.00    +0.129 C 
BRANCH   8  33
ATOM     33  C   UNL     1      11.578   4.388  -2.329  0.00  0.00    +0.111 C 
BRANCH  33  35
ATOM     35  C   UNL     1      11.972   3.176  -1.486  0.00  0.00    +0.074 C 
BRANCH  35  36
ATOM      9  N   UNL     1      14.281   3.906  -1.223  0.00  0.00    -0.260 NA
ATOM     36  C   UNL     1      13.174   3.431  -0.610  0.00  0.00    +0.043 A 
ATOM     37  C   UNL     1      13.090   3.172   0.749  0.00  0.00    +0.023 A 
ATOM     38  C   UNL     1      14.215   3.419   1.529  0.00  0.00    +0.003 A 
ATOM     39  C   UNL     1      15.355   4.133  -0.432  0.00  0.00    +0.111 A 
ATOM     40  C   UNL     1      15.373   3.909   0.935  0.00  0.00    +0.020 A 
ENDBRANCH  35  36
ENDBRANCH  33  35
ENDBRANCH   8  33
ENDBRANCH  31   8
BRANCH  10  15
ATOM     15  C   UNL     1      11.335  10.284   7.919  0.00  0.00    +0.100 C 
BRANCH  15  17
ATOM      1  O   UNL     1      11.594  12.479   7.063  0.00  0.00    -0.276 OA
ATOM      3  O   UNL     1       8.562  13.281  10.888  0.00  0.00    -0.377 OA
ATOM      6  N   UNL     1      10.497  12.281   9.100  0.00  0.00    -0.297 N 
ATOM     17  C   UNL     1      11.160  11.780   7.982  0.00  0.00    +0.216 C 
ATOM     21  C   UNL     1      10.279  13.721   9.239  0.00  0.00    +0.136 C 
ATOM     22  C   UNL     1      10.081  11.495  10.267  0.00  0.00    +0.136 C 
ATOM     24  C   UNL     1       8.852  14.001   9.687  0.00  0.00    +0.179 C 
ATOM     25  C   UNL     1       8.662  11.870  10.677  0.00  0.00    +0.179 C 
ENDBRANCH  15  17
ENDBRANCH  10  15
TORSDOF 6
ENDMDL
MODEL 8
REMARK VINA RESULT:      -7.0      2.203      2.668
REMARK  Name = 71694374
REMARK  7 active torsions:
REMARK  status: ('A' for Active; 'I' for Inactive)
REMARK    1  A    between atoms: N_8  and  C_31
REMARK    2  A    between atoms: N_8  and  C_33
REMARK    3  A    between atoms: N_8  and  C_34
REMARK    4  A    between atoms: C_10  and  C_15
REMARK    5  A    between atoms: C_15  and  C_17
REMARK    6  A    between atoms: C_33  and  C_35
REMARK    7  A    between atoms: C_35  and  C_36
REMARK                            x       y       z     vdW  Elec       q    Type
REMARK                         _______ _______ _______ _____ _____    ______ ____
ROOT
ATOM      2  O   UNL     1      19.131  12.819  21.241  0.00  0.00    -0.274 OA
ATOM      4  O   UNL     1      18.826   7.540  20.796  0.00  0.00    -0.488 OA
ATOM      5  N   UNL     1      20.824  11.307  21.690  0.00  0.00    -0.300 N 
ATOM      7  N   UNL     1      18.051   9.891  22.326  0.00  0.00    -0.304 NA
ATOM     10  C   UNL     1      22.431   9.606  19.952  0.00  0.00    +0.008 C 
ATOM     11  C   UNL     1      21.431   9.049  21.010  0.00  0.00    +0.032 C 
ATOM     12  C   UNL     1      21.996  11.033  19.545  0.00  0.00    +0.023 C 
ATOM     13  C   UNL     1      21.302  10.017  22.201  0.00  0.00    +0.115 C 
ATOM     14  C   UNL     1      21.752  11.944  20.752  0.00  0.00    +0.108 C 
ATOM     16  C   UNL     1      21.739   7.650  21.472  0.00  0.00    -0.023 C 
ATOM     18  C   UNL     1      19.537  11.820  21.846  0.00  0.00    +0.229 C 
ATOM     19  C   UNL     1      20.975   6.549  21.387  0.00  0.00    +0.010 C 
ATOM     20  C   UNL     1      18.598  11.147  22.830  0.00  0.00    +0.178 C 
ATOM     23  C   UNL     1      19.575   6.333  20.872  0.00  0.00    +0.256 C 
ATOM     26  C   UNL     1      17.405   9.976  21.019  0.00  0.00    +0.120 C 
ATOM     27  C   UNL     1      16.750   8.662  20.625  0.00  0.00    +0.010 A 
ATOM     28  C   UNL     1      17.487   7.460  20.509  0.00  0.00    +0.125 A 
ATOM     29  C   UNL     1      15.375   8.649  20.344  0.00  0.00    +0.031 A 
ATOM     30  C   UNL     1      16.836   6.285  20.112  0.00  0.00    +0.048 A 
ATOM     31  C   UNL     1      14.737   7.471  19.958  0.00  0.00    +0.030 A 
ATOM     32  C   UNL     1      15.467   6.294  19.841  0.00  0.00    +0.027 A 
ATOM     41  H   UNL     1      17.385   9.531  23.012  0.00  0.00    +0.123 HD
ENDROOT
BRANCH  31   8
ATOM      8  N   UNL     1      13.354   7.475  19.681  0.00  0.00    -0.333 N 
ATOM     34  C   UNL     1      12.875   7.739  18.339  0.00  0.00    +0.129 C 
BRANCH   8  33
ATOM     33  C   UNL     1      12.394   7.205  20.733  0.00  0.00    +0.111 C 
BRANCH  33  35
ATOM     35  C   UNL     1      11.166   8.105  20.596  0.00  0.00    +0.074 C 
BRANCH  35  36
ATOM      9  N   UNL     1      10.811   9.367  22.649  0.00  0.00    -0.260 NA
ATOM     36  C   UNL     1      11.283   9.388  21.382  0.00  0.00    +0.043 A 
ATOM     37  C   UNL     1      11.853  10.500  20.785  0.00  0.00    +0.023 A 
ATOM     38  C   UNL     1      11.946  11.667  21.537  0.00  0.00    +0.003 A 
ATOM     39  C   UNL     1      10.919  10.519  23.349  0.00  0.00    +0.111 A 
ATOM     40  C   UNL     1      11.473  11.684  22.844  0.00  0.00    +0.020 A 
ENDBRANCH  35  36
ENDBRANCH  33  35
ENDBRANCH   8  33
ENDBRANCH  31   8
BRANCH  10  15
ATOM     15  C   UNL     1      23.900   9.596  20.394  0.00  0.00    +0.100 C 
BRANCH  15  17
ATOM      1  O   UNL     1      24.770   7.483  19.763  0.00  0.00    -0.276 OA
ATOM      3  O   UNL     1      25.928  10.226  15.814  0.00  0.00    -0.377 OA
ATOM      6  N   UNL     1      25.311   9.279  18.395  0.00  0.00    -0.297 N 
ATOM     17  C   UNL     1      24.698   8.685  19.496  0.00  0.00    +0.216 C 
ATOM     21  C   UNL     1      26.101   8.468  17.469  0.00  0.00    +0.136 C 
ATOM     22  C   UNL     1      25.353  10.719  18.118  0.00  0.00    +0.136 C 
ATOM     24  C   UNL     1      25.760   8.823  16.029  0.00  0.00    +0.179 C 
ATOM     25  C   UNL     1      25.047  10.983  16.649  0.00  0.00    +0.179 C 
ENDBRANCH  15  17
ENDBRANCH  10  15
TORSDOF 6
ENDMDL
MODEL 9
REMARK VINA RESULT:      -7.0     30.218     34.625
REMARK  Name = 71694374
REMARK  7 active torsions:
REMARK  status: ('A' for Active; 'I' for Inactive)
REMARK    1  A    between atoms: N_8  and  C_31
REMARK    2  A    between atoms: N_8  and  C_33
REMARK    3  A    between atoms: N_8  and  C_34
REMARK    4  A    between atoms: C_10  and  C_15
REMARK    5  A    between atoms: C_15  and  C_17
REMARK    6  A    between atoms: C_33  and  C_35
REMARK    7  A    between atoms: C_35  and  C_36
REMARK                            x       y       z     vdW  Elec       q    Type
REMARK                         _______ _______ _______ _____ _____    ______ ____
ROOT
ATOM      2  O   UNL     1      -4.392 -12.073  17.298  0.00  0.00    -0.274 OA
ATOM      4  O   UNL     1      -8.483  -9.659  14.932  0.00  0.00    -0.488 OA
ATOM      5  N   UNL     1      -6.150 -11.002  18.357  0.00  0.00    -0.300 N 
ATOM      7  N   UNL     1      -5.648  -9.547  15.576  0.00  0.00    -0.304 NA
ATOM     10  C   UNL     1      -8.971 -11.684  18.625  0.00  0.00    +0.008 C 
ATOM     11  C   UNL     1      -8.462 -10.431  17.849  0.00  0.00    +0.032 C 
ATOM     12  C   UNL     1      -7.853 -12.752  18.653  0.00  0.00    +0.023 C 
ATOM     13  C   UNL     1      -7.137  -9.921  18.447  0.00  0.00    +0.115 C 
ATOM     14  C   UNL     1      -6.512 -12.191  19.134  0.00  0.00    +0.108 C 
ATOM     16  C   UNL     1      -9.474  -9.323  17.735  0.00  0.00    -0.023 C 
ATOM     18  C   UNL     1      -5.082 -11.060  17.461  0.00  0.00    +0.229 C 
ATOM     19  C   UNL     1      -9.994  -8.769  16.628  0.00  0.00    +0.010 C 
ATOM     20  C   UNL     1      -4.723  -9.813  16.674  0.00  0.00    +0.178 C 
ATOM     23  C   UNL     1      -9.726  -9.007  15.163  0.00  0.00    +0.256 C 
ATOM     26  C   UNL     1      -5.853 -10.662  14.654  0.00  0.00    +0.120 C 
ATOM     27  C   UNL     1      -6.723 -10.265  13.472  0.00  0.00    +0.010 A 
ATOM     28  C   UNL     1      -8.040  -9.778  13.639  0.00  0.00    +0.125 A 
ATOM     29  C   UNL     1      -6.208 -10.411  12.174  0.00  0.00    +0.031 A 
ATOM     30  C   UNL     1      -8.806  -9.457  12.511  0.00  0.00    +0.048 A 
ATOM     31  C   UNL     1      -6.979 -10.081  11.061  0.00  0.00    +0.030 A 
ATOM     32  C   UNL     1      -8.274  -9.606  11.230  0.00  0.00    +0.027 A 
ATOM     41  H   UNL     1      -5.309  -8.735  15.058  0.00  0.00    +0.123 HD
ENDROOT
BRANCH  31   8
ATOM      8  N   UNL     1      -6.446 -10.233   9.763  0.00  0.00    -0.333 N 
ATOM     34  C   UNL     1      -7.195 -10.931   8.739  0.00  0.00    +0.129 C 
BRANCH   8  33
ATOM     33  C   UNL     1      -5.145  -9.684   9.436  0.00  0.00    +0.111 C 
BRANCH  33  35
ATOM     35  C   UNL     1      -4.110 -10.795   9.264  0.00  0.00    +0.074 C 
BRANCH  35  36
ATOM      9  N   UNL     1      -2.668 -10.037  11.075  0.00  0.00    -0.260 NA
ATOM     36  C   UNL     1      -3.331 -11.079  10.525  0.00  0.00    +0.043 A 
ATOM     37  C   UNL     1      -3.332 -12.361  11.050  0.00  0.00    +0.023 A 
ATOM     38  C   UNL     1      -2.606 -12.589  12.214  0.00  0.00    +0.003 A 
ATOM     39  C   UNL     1      -1.973 -10.296  12.206  0.00  0.00    +0.111 A 
ATOM     40  C   UNL     1      -1.911 -11.542  12.809  0.00  0.00    +0.020 A 
ENDBRANCH  35  36
ENDBRANCH  33  35
ENDBRANCH   8  33
ENDBRANCH  31   8
BRANCH  10  15
ATOM     15  C   UNL     1      -9.477 -11.394  20.044  0.00  0.00    +0.100 C 
BRANCH  15  17
ATOM      1  O   UNL     1     -10.472 -13.465  20.629  0.00  0.00    -0.276 OA
ATOM      3  O   UNL     1     -14.334 -10.396  20.993  0.00  0.00    -0.377 OA
ATOM      6  N   UNL     1     -11.913 -11.671  20.319  0.00  0.00    -0.297 N 
ATOM     17  C   UNL     1     -10.659 -12.277  20.356  0.00  0.00    +0.216 C 
ATOM     21  C   UNL     1     -13.114 -12.453  20.613  0.00  0.00    +0.136 C 
ATOM     22  C   UNL     1     -12.183 -10.298  19.877  0.00  0.00    +0.136 C 
ATOM     24  C   UNL     1     -14.034 -11.680  21.547  0.00  0.00    +0.179 C 
ATOM     25  C   UNL     1     -13.146  -9.615  20.839  0.00  0.00    +0.179 C 
ENDBRANCH  15  17
ENDBRANCH  10  15
TORSDOF 6
ENDMDL
MODEL 10
REMARK VINA RESULT:      -7.0     32.075     35.564
REMARK  Name = 71694374
REMARK  7 active torsions:
REMARK  status: ('A' for Active; 'I' for Inactive)
REMARK    1  A    between atoms: N_8  and  C_31
REMARK    2  A    between atoms: N_8  and  C_33
REMARK    3  A    between atoms: N_8  and  C_34
REMARK    4  A    between atoms: C_10  and  C_15
REMARK    5  A    between atoms: C_15  and  C_17
REMARK    6  A    between atoms: C_33  and  C_35
REMARK    7  A    between atoms: C_35  and  C_36
REMARK                            x       y       z     vdW  Elec       q    Type
REMARK                         _______ _______ _______ _____ _____    ______ ____
ROOT
ATOM      2  O   UNL     1       2.878 -16.066   2.383  0.00  0.00    -0.274 OA
ATOM      4  O   UNL     1      -1.624 -13.846   0.664  0.00  0.00    -0.488 OA
ATOM      5  N   UNL     1       2.178 -15.916   0.182  0.00  0.00    -0.300 N 
ATOM      7  N   UNL     1      -0.406 -16.113   2.021  0.00  0.00    -0.304 NA
ATOM     10  C   UNL     1       1.932 -13.650  -1.636  0.00  0.00    +0.008 C 
ATOM     11  C   UNL     1       0.714 -14.483  -1.134  0.00  0.00    +0.032 C 
ATOM     12  C   UNL     1       3.085 -13.772  -0.611  0.00  0.00    +0.023 C 
ATOM     13  C   UNL     1       1.130 -15.938  -0.844  0.00  0.00    +0.115 C 
ATOM     14  C   UNL     1       3.398 -15.225  -0.243  0.00  0.00    +0.108 C 
ATOM     16  C   UNL     1      -0.485 -14.427  -2.042  0.00  0.00    -0.023 C 
ATOM     18  C   UNL     1       2.020 -16.278   1.519  0.00  0.00    +0.229 C 
ATOM     19  C   UNL     1      -1.727 -13.994  -1.769  0.00  0.00    +0.010 C 
ATOM     20  C   UNL     1       0.750 -17.000   1.932  0.00  0.00    +0.178 C 
ATOM     23  C   UNL     1      -2.357 -13.479  -0.500  0.00  0.00    +0.256 C 
ATOM     26  C   UNL     1      -0.221 -14.935   2.865  0.00  0.00    +0.120 C 
ATOM     27  C   UNL     1      -1.505 -14.135   3.008  0.00  0.00    +0.010 A 
ATOM     28  C   UNL     1      -2.181 -13.590   1.892  0.00  0.00    +0.125 A 
ATOM     29  C   UNL     1      -2.021 -13.910   4.295  0.00  0.00    +0.031 A 
ATOM     30  C   UNL     1      -3.344 -12.835   2.087  0.00  0.00    +0.048 A 
ATOM     31  C   UNL     1      -3.184 -13.163   4.475  0.00  0.00    +0.030 A 
ATOM     32  C   UNL     1      -3.842 -12.626   3.374  0.00  0.00    +0.027 A 
ATOM     41  H   UNL     1      -1.202 -16.654   2.362  0.00  0.00    +0.123 HD
ENDROOT
BRANCH  31   8
ATOM      8  N   UNL     1      -3.690 -12.947   5.774  0.00  0.00    -0.333 N 
ATOM     34  C   UNL     1      -3.557 -13.968   6.793  0.00  0.00    +0.129 C 
BRANCH   8  33
ATOM     33  C   UNL     1      -4.342 -11.696   6.109  0.00  0.00    +0.111 C 
BRANCH  33  35
ATOM     35  C   UNL     1      -5.114 -11.817   7.422  0.00  0.00    +0.074 C 
BRANCH  35  36
ATOM      9  N   UNL     1      -3.954 -11.637   9.557  0.00  0.00    -0.260 NA
ATOM     36  C   UNL     1      -4.533 -10.974   8.531  0.00  0.00    +0.043 A 
ATOM     37  C   UNL     1      -4.617  -9.593   8.448  0.00  0.00    +0.023 A 
ATOM     38  C   UNL     1      -4.070  -8.844   9.485  0.00  0.00    +0.003 A 
ATOM     39  C   UNL     1      -3.434 -10.876  10.547  0.00  0.00    +0.111 A 
ATOM     40  C   UNL     1      -3.465  -9.491  10.558  0.00  0.00    +0.020 A 
ENDBRANCH  35  36
ENDBRANCH  33  35
ENDBRANCH   8  33
ENDBRANCH  31   8
BRANCH  10  15
ATOM     15  C   UNL     1       2.421 -14.016  -3.043  0.00  0.00    +0.100 C 
BRANCH  15  17
ATOM      1  O   UNL     1       1.497 -11.920  -3.651  0.00  0.00    -0.276 OA
ATOM      3  O   UNL     1       2.542 -13.840  -8.087  0.00  0.00    -0.377 OA
ATOM      6  N   UNL     1       1.891 -13.420  -5.378  0.00  0.00    -0.297 N 
ATOM     17  C   UNL     1       1.892 -13.020  -4.043  0.00  0.00    +0.216 C 
ATOM     21  C   UNL     1       1.399 -12.513  -6.415  0.00  0.00    +0.136 C 
ATOM     22  C   UNL     1       2.234 -14.761  -5.865  0.00  0.00    +0.136 C 
ATOM     24  C   UNL     1       2.345 -12.507  -7.607  0.00  0.00    +0.179 C 
ATOM     25  C   UNL     1       3.142 -14.663  -7.084  0.00  0.00    +0.179 C 
ENDBRANCH  15  17
ENDBRANCH  10  15
TORSDOF 6
ENDMDL
