REMARK  Name = 26742496
REMARK  11 active torsions:
REMARK  status: ('A' for Active; 'I' for Inactive)
REMARK    1  A    between atoms: N_3  and  C_15
REMARK    2  A    between atoms: N_6  and  C_23
REMARK    3  A    between atoms: N_7  and  C_30
REMARK    4  A    between atoms: N_7  and  C_31
REMARK    5  A    between atoms: N_7  and  C_32
REMARK    6  A    between atoms: C_9  and  C_16
REMARK    7  A    between atoms: C_10  and  C_15
REMARK    8  A    between atoms: C_18  and  C_21
REMARK    9  A    between atoms: C_19  and  C_22
REMARK   10  A    between atoms: C_23  and  C_26
REMARK   11  A    between atoms: C_23  and  C_27
REMARK                            x       y       z     vdW  Elec       q    Type
REMARK                         _______ _______ _______ _____ _____    ______ ____
ROOT
ATOM      2  N   UNL     1      -2.197  -1.630   2.022  0.00  0.00    -0.297 NA
ATOM      8  C   UNL     1      -1.749  -2.642  -0.336  0.00  0.00    +0.002 C 
ATOM      9  C   UNL     1      -0.417  -2.182   0.321  0.00  0.00    +0.055 C 
ATOM     10  C   UNL     1      -3.109  -1.013   1.022  0.00  0.00    +0.074 C 
ATOM     11  C   UNL     1      -2.721  -1.445  -0.408  0.00  0.00    +0.024 C 
ATOM     12  C   UNL     1      -2.379  -3.681   0.616  0.00  0.00    +0.019 C 
ATOM     13  C   UNL     1      -0.784  -1.413   1.623  0.00  0.00    +0.094 C 
ATOM     14  C   UNL     1      -2.456  -3.090   2.034  0.00  0.00    +0.085 C 
ENDROOT
BRANCH   9  16
ATOM      4  N   UNL     1       0.228  -1.188  -1.818  0.00  0.00    -0.237 NA
ATOM      5  N   UNL     1       2.336  -0.062  -2.126  0.00  0.00    -0.232 NA
ATOM     16  C   UNL     1       0.582  -1.421  -0.537  0.00  0.00    +0.050 A 
ATOM     17  C   UNL     1       1.780  -1.012   0.014  0.00  0.00    +0.052 A 
ATOM     18  C   UNL     1       2.626  -0.330  -0.836  0.00  0.00    +0.075 A 
ATOM     19  C   UNL     1       1.139  -0.513  -2.545  0.00  0.00    +0.127 A 
ATOM     22  C   UNL     1       0.784  -0.238  -3.967  0.00  0.00    +0.088 C 
BRANCH  18  21
ATOM     21  C   UNL     1       3.909   0.151  -0.383  0.00  0.00    +0.001 A 
ATOM     24  C   UNL     1       3.981   1.060   0.673  0.00  0.00    +0.012 A 
ATOM     25  C   UNL     1       5.079  -0.295  -1.000  0.00  0.00    +0.012 A 
ATOM     28  C   UNL     1       5.221   1.524   1.111  0.00  0.00    +0.024 A 
ATOM     29  C   UNL     1       6.319   0.169  -0.562  0.00  0.00    +0.024 A 
ATOM     30  C   UNL     1       6.390   1.078   0.494  0.00  0.00    +0.029 A 
BRANCH  30   7
ATOM      7  N   UNL     1       7.644   1.547   0.936  0.00  0.00    -0.336 N 
ATOM     31  C   UNL     1       7.729   2.492   2.032  0.00  0.00    +0.129 C 
ATOM     32  C   UNL     1       8.865   1.085   0.307  0.00  0.00    +0.129 C 
ENDBRANCH  30   7
ENDBRANCH  18  21
ENDBRANCH   9  16
BRANCH  10  15
ATOM     15  C   UNL     1      -3.179   0.509   1.159  0.00  0.00    +0.124 C 
BRANCH  15   3
ATOM      1  O   UNL     1      -5.980   0.956   1.691  0.00  0.00    -0.253 OA
ATOM      3  N   UNL     1      -4.150   1.058   0.263  0.00  0.00    -0.298 N 
ATOM      6  N   UNL     1      -6.219   1.794  -0.460  0.00  0.00    -0.297 N 
ATOM     20  C   UNL     1      -5.497   1.244   0.597  0.00  0.00    +0.300 C 
ATOM     33  H   UNL     1      -3.848   1.321  -0.670  0.00  0.00    +0.150 HD
ATOM     34  H   UNL     1      -5.715   2.067  -1.298  0.00  0.00    +0.150 HD
BRANCH   6  23
ATOM     23  C   UNL     1      -7.631   2.085  -0.375  0.00  0.00    +0.068 C 
ATOM     26  C   UNL     1      -8.289   1.915  -1.738  0.00  0.00    +0.027 C 
ATOM     27  C   UNL     1      -7.855   3.488   0.176  0.00  0.00    +0.027 C 
ENDBRANCH   6  23
ENDBRANCH  15   3
ENDBRANCH  10  15
TORSDOF 6
