MODEL 1
REMARK VINA RESULT:      -7.1      0.000      0.000
REMARK  Name = 51137129
REMARK  8 active torsions:
REMARK  status: ('A' for Active; 'I' for Inactive)
REMARK    1  A    between atoms: S_1  and  C_20
REMARK    2  A    between atoms: S_1  and  C_25
REMARK    3  A    between atoms: O_5  and  C_26
REMARK    4  A    between atoms: O_5  and  C_28
REMARK    5  A    between atoms: N_6  and  C_13
REMARK    6  A    between atoms: C_8  and  C_12
REMARK    7  A    between atoms: C_13  and  C_14
REMARK    8  A    between atoms: C_25  and  C_27
REMARK                            x       y       z     vdW  Elec       q    Type
REMARK                         _______ _______ _______ _____ _____    ______ ____
ROOT
ATOM      6  N   UNL     1      11.717   9.092  21.246  0.00  0.00    -0.297 NA
ATOM      8  C   UNL     1      13.693   8.672  20.055  0.00  0.00    +0.090 C 
ATOM      9  C   UNL     1      12.574   7.751  19.536  0.00  0.00    +0.029 C 
ATOM     10  C   UNL     1      13.171   9.202  21.396  0.00  0.00    +0.097 C 
ATOM     11  C   UNL     1      11.502   7.789  20.618  0.00  0.00    +0.085 C 
ENDROOT
BRANCH   8  12
ATOM      2  O   UNL     1      15.327   7.054  19.246  0.00  0.00    -0.439 OA
ATOM      7  N   UNL     1      16.003   8.257  21.043  0.00  0.00    -0.213 NA
ATOM     12  C   UNL     1      15.051   8.018  20.169  0.00  0.00    +0.201 A 
ATOM     15  C   UNL     1      16.997   7.383  20.677  0.00  0.00    +0.111 A 
ATOM     16  C   UNL     1      16.587   6.644  19.577  0.00  0.00    +0.155 A 
ATOM     17  C   UNL     1      18.271   7.147  21.215  0.00  0.00    +0.058 A 
ATOM     20  C   UNL     1      19.071   6.169  20.607  0.00  0.00    +0.090 A 
ATOM     21  C   UNL     1      17.350   5.668  18.949  0.00  0.00    +0.050 A 
ATOM     22  C   UNL     1      18.618   5.445  19.497  0.00  0.00    +0.030 A 
BRANCH  20   1
ATOM      1  S   UNL     1      20.667   5.849  21.249  0.00  0.00    -0.003 S 
ATOM      3  O   UNL     1      21.622   6.728  20.591  0.00  0.00    -0.169 OA
ATOM      4  O   UNL     1      20.568   5.842  22.701  0.00  0.00    -0.169 OA
BRANCH   1  25
ATOM     25  C   UNL     1      21.031   4.192  20.715  0.00  0.00    +0.168 C 
ATOM     27  C   UNL     1      21.942   3.483  21.690  0.00  0.00    +0.028 C 
ENDBRANCH   1  25
ENDBRANCH  20   1
ENDBRANCH   8  12
BRANCH   6  13
ATOM     13  C   UNL     1      11.018   9.217  22.516  0.00  0.00    +0.119 C 
BRANCH  13  14
ATOM     14  C   UNL     1      11.027  10.634  23.024  0.00  0.00    -0.033 A 
ATOM     18  C   UNL     1      11.037  11.699  22.122  0.00  0.00    +0.008 A 
ATOM     19  C   UNL     1      11.023  10.883  24.396  0.00  0.00    +0.008 A 
ATOM     23  C   UNL     1      11.044  13.011  22.593  0.00  0.00    +0.046 A 
ATOM     24  C   UNL     1      11.029  12.196  24.867  0.00  0.00    +0.046 A 
ATOM     26  C   UNL     1      11.040  13.260  23.966  0.00  0.00    +0.120 A 
BRANCH  26   5
ATOM      5  O   UNL     1      11.046  14.541  24.425  0.00  0.00    -0.495 OA
ATOM     28  C   UNL     1      10.120  15.448  23.829  0.00  0.00    +0.277 C 
ENDBRANCH  26   5
ENDBRANCH  13  14
ENDBRANCH   6  13
TORSDOF 6
ENDMDL
MODEL 2
REMARK VINA RESULT:      -7.0      4.028     11.299
REMARK  Name = 51137129
REMARK  8 active torsions:
REMARK  status: ('A' for Active; 'I' for Inactive)
REMARK    1  A    between atoms: S_1  and  C_20
REMARK    2  A    between atoms: S_1  and  C_25
REMARK    3  A    between atoms: O_5  and  C_26
REMARK    4  A    between atoms: O_5  and  C_28
REMARK    5  A    between atoms: N_6  and  C_13
REMARK    6  A    between atoms: C_8  and  C_12
REMARK    7  A    between atoms: C_13  and  C_14
REMARK    8  A    between atoms: C_25  and  C_27
REMARK                            x       y       z     vdW  Elec       q    Type
REMARK                         _______ _______ _______ _____ _____    ______ ____
ROOT
ATOM      6  N   UNL     1      21.102   5.465  21.135  0.00  0.00    -0.297 NA
ATOM      8  C   UNL     1      19.349   6.955  20.682  0.00  0.00    +0.090 C 
ATOM      9  C   UNL     1      20.176   7.480  21.869  0.00  0.00    +0.029 C 
ATOM     10  C   UNL     1      19.765   5.485  20.537  0.00  0.00    +0.097 C 
ATOM     11  C   UNL     1      20.987   6.280  22.344  0.00  0.00    +0.085 C 
ENDROOT
BRANCH   8  12
ATOM      2  O   UNL     1      17.450   8.161  21.620  0.00  0.00    -0.439 OA
ATOM      7  N   UNL     1      16.892   6.424  20.277  0.00  0.00    -0.213 NA
ATOM     12  C   UNL     1      17.855   7.133  20.822  0.00  0.00    +0.201 A 
ATOM     15  C   UNL     1      15.750   7.026  20.746  0.00  0.00    +0.111 A 
ATOM     16  C   UNL     1      16.087   8.090  21.568  0.00  0.00    +0.155 A 
ATOM     17  C   UNL     1      14.393   6.741  20.529  0.00  0.00    +0.058 A 
ATOM     20  C   UNL     1      13.441   7.554  21.159  0.00  0.00    +0.090 A 
ATOM     21  C   UNL     1      15.173   8.917  22.210  0.00  0.00    +0.050 A 
ATOM     22  C   UNL     1      13.825   8.620  21.983  0.00  0.00    +0.030 A 
BRANCH  20   1
ATOM      1  S   UNL     1      11.740   7.230  20.910  0.00  0.00    -0.003 S 
ATOM      3  O   UNL     1      11.605   6.046  20.076  0.00  0.00    -0.169 OA
ATOM      4  O   UNL     1      11.084   7.281  22.208  0.00  0.00    -0.169 OA
BRANCH   1  25
ATOM     25  C   UNL     1      11.164   8.611  19.950  0.00  0.00    +0.168 C 
ATOM     27  C   UNL     1      11.679   8.553  18.530  0.00  0.00    +0.028 C 
ENDBRANCH   1  25
ENDBRANCH  20   1
ENDBRANCH   8  12
BRANCH   6  13
ATOM     13  C   UNL     1      21.562   4.114  21.420  0.00  0.00    +0.119 C 
BRANCH  13  14
ATOM     14  C   UNL     1      22.976   3.892  20.952  0.00  0.00    -0.033 A 
ATOM     18  C   UNL     1      23.779   4.983  20.616  0.00  0.00    +0.008 A 
ATOM     19  C   UNL     1      23.484   2.597  20.857  0.00  0.00    +0.008 A 
ATOM     23  C   UNL     1      25.088   4.777  20.184  0.00  0.00    +0.046 A 
ATOM     24  C   UNL     1      24.794   2.391  20.425  0.00  0.00    +0.046 A 
ATOM     26  C   UNL     1      25.597   3.481  20.088  0.00  0.00    +0.120 A 
BRANCH  26   5
ATOM      5  O   UNL     1      26.875   3.281  19.668  0.00  0.00    -0.495 OA
ATOM     28  C   UNL     1      27.135   3.455  18.276  0.00  0.00    +0.277 C 
ENDBRANCH  26   5
ENDBRANCH  13  14
ENDBRANCH   6  13
TORSDOF 6
ENDMDL
MODEL 3
REMARK VINA RESULT:      -6.9      4.080     11.438
REMARK  Name = 51137129
REMARK  8 active torsions:
REMARK  status: ('A' for Active; 'I' for Inactive)
REMARK    1  A    between atoms: S_1  and  C_20
REMARK    2  A    between atoms: S_1  and  C_25
REMARK    3  A    between atoms: O_5  and  C_26
REMARK    4  A    between atoms: O_5  and  C_28
REMARK    5  A    between atoms: N_6  and  C_13
REMARK    6  A    between atoms: C_8  and  C_12
REMARK    7  A    between atoms: C_13  and  C_14
REMARK    8  A    between atoms: C_25  and  C_27
REMARK                            x       y       z     vdW  Elec       q    Type
REMARK                         _______ _______ _______ _____ _____    ______ ____
ROOT
ATOM      6  N   UNL     1      21.777   5.351  21.886  0.00  0.00    -0.297 NA
ATOM      8  C   UNL     1      20.175   6.218  20.409  0.00  0.00    +0.090 C 
ATOM      9  C   UNL     1      21.011   7.370  20.994  0.00  0.00    +0.029 C 
ATOM     10  C   UNL     1      20.464   5.022  21.326  0.00  0.00    +0.097 C 
ATOM     11  C   UNL     1      21.700   6.774  22.216  0.00  0.00    +0.085 C 
ENDROOT
BRANCH   8  12
ATOM      2  O   UNL     1      18.151   7.279  21.257  0.00  0.00    -0.439 OA
ATOM      7  N   UNL     1      17.871   6.122  19.329  0.00  0.00    -0.213 NA
ATOM     12  C   UNL     1      18.698   6.512  20.273  0.00  0.00    +0.201 A 
ATOM     15  C   UNL     1      16.672   6.674  19.711  0.00  0.00    +0.111 A 
ATOM     16  C   UNL     1      16.839   7.383  20.891  0.00  0.00    +0.155 A 
ATOM     17  C   UNL     1      15.399   6.627  19.124  0.00  0.00    +0.058 A 
ATOM     20  C   UNL     1      14.353   7.305  19.764  0.00  0.00    +0.090 A 
ATOM     21  C   UNL     1      15.828   8.066  21.555  0.00  0.00    +0.050 A 
ATOM     22  C   UNL     1      14.565   8.010  20.956  0.00  0.00    +0.030 A 
BRANCH  20   1
ATOM      1  S   UNL     1      12.752   7.270  19.061  0.00  0.00    -0.003 S 
ATOM      3  O   UNL     1      12.877   7.287  17.611  0.00  0.00    -0.169 OA
ATOM      4  O   UNL     1      12.004   6.205  19.712  0.00  0.00    -0.169 OA
BRANCH   1  25
ATOM     25  C   UNL     1      12.027   8.821  19.539  0.00  0.00    +0.168 C 
ATOM     27  C   UNL     1      10.901   8.626  20.528  0.00  0.00    +0.028 C 
ENDBRANCH   1  25
ENDBRANCH  20   1
ENDBRANCH   8  12
BRANCH   6  13
ATOM     13  C   UNL     1      22.109   4.532  23.042  0.00  0.00    +0.119 C 
BRANCH  13  14
ATOM     14  C   UNL     1      22.940   3.335  22.661  0.00  0.00    -0.033 A 
ATOM     18  C   UNL     1      23.443   3.219  21.365  0.00  0.00    +0.008 A 
ATOM     19  C   UNL     1      23.207   2.343  23.604  0.00  0.00    +0.008 A 
ATOM     23  C   UNL     1      24.214   2.111  21.013  0.00  0.00    +0.046 A 
ATOM     24  C   UNL     1      23.977   1.235  23.252  0.00  0.00    +0.046 A 
ATOM     26  C   UNL     1      24.481   1.118  21.957  0.00  0.00    +0.120 A 
BRANCH  26   5
ATOM      5  O   UNL     1      25.233   0.038  21.613  0.00  0.00    -0.495 OA
ATOM     28  C   UNL     1      26.182  -0.423  22.573  0.00  0.00    +0.277 C 
ENDBRANCH  26   5
ENDBRANCH  13  14
ENDBRANCH   6  13
TORSDOF 6
ENDMDL
MODEL 4
REMARK VINA RESULT:      -6.9     27.518     30.334
REMARK  Name = 51137129
REMARK  8 active torsions:
REMARK  status: ('A' for Active; 'I' for Inactive)
REMARK    1  A    between atoms: S_1  and  C_20
REMARK    2  A    between atoms: S_1  and  C_25
REMARK    3  A    between atoms: O_5  and  C_26
REMARK    4  A    between atoms: O_5  and  C_28
REMARK    5  A    between atoms: N_6  and  C_13
REMARK    6  A    between atoms: C_8  and  C_12
REMARK    7  A    between atoms: C_13  and  C_14
REMARK    8  A    between atoms: C_25  and  C_27
REMARK                            x       y       z     vdW  Elec       q    Type
REMARK                         _______ _______ _______ _____ _____    ______ ____
ROOT
ATOM      6  N   UNL     1      -2.180 -11.096  13.576  0.00  0.00    -0.297 NA
ATOM      8  C   UNL     1      -3.307 -10.278  15.463  0.00  0.00    +0.090 C 
ATOM      9  C   UNL     1      -1.981 -10.926  15.897  0.00  0.00    +0.029 C 
ATOM     10  C   UNL     1      -3.537 -10.781  14.032  0.00  0.00    +0.097 C 
ATOM     11  C   UNL     1      -1.551 -11.776  14.707  0.00  0.00    +0.085 C 
ENDROOT
BRANCH   8  12
ATOM      2  O   UNL     1      -4.164 -11.008  17.625  0.00  0.00    -0.439 OA
ATOM      7  N   UNL     1      -5.761 -10.413  16.131  0.00  0.00    -0.213 NA
ATOM     12  C   UNL     1      -4.477 -10.554  16.379  0.00  0.00    +0.201 A 
ATOM     15  C   UNL     1      -6.355 -10.806  17.305  0.00  0.00    +0.111 A 
ATOM     16  C   UNL     1      -5.381 -11.171  18.223  0.00  0.00    +0.155 A 
ATOM     17  C   UNL     1      -7.704 -10.884  17.683  0.00  0.00    +0.058 A 
ATOM     20  C   UNL     1      -8.001 -11.330  18.978  0.00  0.00    +0.090 A 
ATOM     21  C   UNL     1      -5.636 -11.618  19.513  0.00  0.00    +0.050 A 
ATOM     22  C   UNL     1      -6.985 -11.690  19.874  0.00  0.00    +0.030 A 
BRANCH  20   1
ATOM      1  S   UNL     1      -9.671 -11.439  19.485  0.00  0.00    -0.003 S 
ATOM      3  O   UNL     1      -9.996 -12.836  19.729  0.00  0.00    -0.169 OA
ATOM      4  O   UNL     1      -9.883 -10.451  20.532  0.00  0.00    -0.169 OA
BRANCH   1  25
ATOM     25  C   UNL     1     -10.599 -10.932  18.055  0.00  0.00    +0.168 C 
ATOM     27  C   UNL     1     -11.176  -9.546  18.232  0.00  0.00    +0.028 C 
ENDBRANCH   1  25
ENDBRANCH  20   1
ENDBRANCH   8  12
BRANCH   6  13
ATOM     13  C   UNL     1      -2.175 -11.908  12.368  0.00  0.00    +0.119 C 
BRANCH  13  14
ATOM     14  C   UNL     1      -2.893 -11.228  11.232  0.00  0.00    -0.033 A 
ATOM     18  C   UNL     1      -3.772 -11.955  10.428  0.00  0.00    +0.008 A 
ATOM     19  C   UNL     1      -2.680  -9.873  10.985  0.00  0.00    +0.008 A 
ATOM     23  C   UNL     1      -4.437 -11.324   9.377  0.00  0.00    +0.046 A 
ATOM     24  C   UNL     1      -3.345  -9.242   9.934  0.00  0.00    +0.046 A 
ATOM     26  C   UNL     1      -4.224  -9.968   9.129  0.00  0.00    +0.120 A 
BRANCH  26   5
ATOM      5  O   UNL     1      -4.873  -9.353   8.104  0.00  0.00    -0.495 OA
ATOM     28  C   UNL     1      -5.499 -10.193   7.135  0.00  0.00    +0.277 C 
ENDBRANCH  26   5
ENDBRANCH  13  14
ENDBRANCH   6  13
TORSDOF 6
ENDMDL
MODEL 5
REMARK VINA RESULT:      -6.7      4.084      5.049
REMARK  Name = 51137129
REMARK  8 active torsions:
REMARK  status: ('A' for Active; 'I' for Inactive)
REMARK    1  A    between atoms: S_1  and  C_20
REMARK    2  A    between atoms: S_1  and  C_25
REMARK    3  A    between atoms: O_5  and  C_26
REMARK    4  A    between atoms: O_5  and  C_28
REMARK    5  A    between atoms: N_6  and  C_13
REMARK    6  A    between atoms: C_8  and  C_12
REMARK    7  A    between atoms: C_13  and  C_14
REMARK    8  A    between atoms: C_25  and  C_27
REMARK                            x       y       z     vdW  Elec       q    Type
REMARK                         _______ _______ _______ _____ _____    ______ ____
ROOT
ATOM      6  N   UNL     1      12.661   8.172  17.250  0.00  0.00    -0.297 NA
ATOM      8  C   UNL     1      14.154   6.810  18.440  0.00  0.00    +0.090 C 
ATOM      9  C   UNL     1      12.942   7.144  19.329  0.00  0.00    +0.029 C 
ATOM     10  C   UNL     1      14.083   7.821  17.289  0.00  0.00    +0.097 C 
ATOM     11  C   UNL     1      12.275   8.335  18.652  0.00  0.00    +0.085 C 
ENDROOT
BRANCH   8  12
ATOM      2  O   UNL     1      15.712   7.886  19.975  0.00  0.00    -0.439 OA
ATOM      7  N   UNL     1      16.458   5.939  19.085  0.00  0.00    -0.213 NA
ATOM     12  C   UNL     1      15.486   6.822  19.153  0.00  0.00    +0.201 A 
ATOM     15  C   UNL     1      17.413   6.454  19.928  0.00  0.00    +0.111 A 
ATOM     16  C   UNL     1      16.960   7.645  20.475  0.00  0.00    +0.155 A 
ATOM     17  C   UNL     1      18.684   5.982  20.289  0.00  0.00    +0.058 A 
ATOM     20  C   UNL     1      19.437   6.746  21.192  0.00  0.00    +0.090 A 
ATOM     21  C   UNL     1      17.677   8.429  21.370  0.00  0.00    +0.050 A 
ATOM     22  C   UNL     1      18.942   7.945  21.721  0.00  0.00    +0.030 A 
BRANCH  20   1
ATOM      1  S   UNL     1      21.026   6.189  21.667  0.00  0.00    -0.003 S 
ATOM      3  O   UNL     1      21.983   7.263  21.448  0.00  0.00    -0.169 OA
ATOM      4  O   UNL     1      20.908   5.580  22.983  0.00  0.00    -0.169 OA
BRANCH   1  25
ATOM     25  C   UNL     1      21.409   4.904  20.499  0.00  0.00    +0.168 C 
ATOM     27  C   UNL     1      21.511   3.555  21.172  0.00  0.00    +0.028 C 
ENDBRANCH   1  25
ENDBRANCH  20   1
ENDBRANCH   8  12
BRANCH   6  13
ATOM     13  C   UNL     1      12.406   9.368  16.463  0.00  0.00    +0.119 C 
BRANCH  13  14
ATOM     14  C   UNL     1      13.586  10.305  16.468  0.00  0.00    -0.033 A 
ATOM     18  C   UNL     1      14.460  10.331  15.381  0.00  0.00    +0.008 A 
ATOM     19  C   UNL     1      13.802  11.147  17.557  0.00  0.00    +0.008 A 
ATOM     23  C   UNL     1      15.551  11.199  15.386  0.00  0.00    +0.046 A 
ATOM     24  C   UNL     1      14.893  12.016  17.562  0.00  0.00    +0.046 A 
ATOM     26  C   UNL     1      15.769  12.042  16.476  0.00  0.00    +0.120 A 
BRANCH  26   5
ATOM      5  O   UNL     1      16.833  12.889  16.480  0.00  0.00    -0.495 OA
ATOM     28  C   UNL     1      17.235  13.421  17.741  0.00  0.00    +0.277 C 
ENDBRANCH  26   5
ENDBRANCH  13  14
ENDBRANCH   6  13
TORSDOF 6
ENDMDL
MODEL 6
REMARK VINA RESULT:      -6.6     28.040     31.710
REMARK  Name = 51137129
REMARK  8 active torsions:
REMARK  status: ('A' for Active; 'I' for Inactive)
REMARK    1  A    between atoms: S_1  and  C_20
REMARK    2  A    between atoms: S_1  and  C_25
REMARK    3  A    between atoms: O_5  and  C_26
REMARK    4  A    between atoms: O_5  and  C_28
REMARK    5  A    between atoms: N_6  and  C_13
REMARK    6  A    between atoms: C_8  and  C_12
REMARK    7  A    between atoms: C_13  and  C_14
REMARK    8  A    between atoms: C_25  and  C_27
REMARK                            x       y       z     vdW  Elec       q    Type
REMARK                         _______ _______ _______ _____ _____    ______ ____
ROOT
ATOM      6  N   UNL     1      -8.466 -10.343  17.526  0.00  0.00    -0.297 NA
ATOM      8  C   UNL     1      -9.688  -8.343  17.442  0.00  0.00    +0.090 C 
ATOM      9  C   UNL     1     -10.422  -9.358  18.337  0.00  0.00    +0.029 C 
ATOM     10  C   UNL     1      -8.671  -9.181  16.657  0.00  0.00    +0.097 C 
ATOM     11  C   UNL     1      -9.804 -10.707  17.990  0.00  0.00    +0.085 C 
ENDROOT
BRANCH   8  12
ATOM      2  O   UNL     1     -11.924  -7.746  16.677  0.00  0.00    -0.439 OA
ATOM      7  N   UNL     1     -10.246  -6.610  15.662  0.00  0.00    -0.213 NA
ATOM     12  C   UNL     1     -10.586  -7.519  16.549  0.00  0.00    +0.201 A 
ATOM     15  C   UNL     1     -11.453  -6.195  15.155  0.00  0.00    +0.111 A 
ATOM     16  C   UNL     1     -12.483  -6.888  15.774  0.00  0.00    +0.155 A 
ATOM     17  C   UNL     1     -11.770  -5.242  14.175  0.00  0.00    +0.058 A 
ATOM     20  C   UNL     1     -13.123  -5.037  13.870  0.00  0.00    +0.090 A 
ATOM     21  C   UNL     1     -13.834  -6.713  15.497  0.00  0.00    +0.050 A 
ATOM     22  C   UNL     1     -14.133  -5.760  14.519  0.00  0.00    +0.030 A 
BRANCH  20   1
ATOM      1  S   UNL     1     -13.557  -3.856  12.655  0.00  0.00    -0.003 S 
ATOM      3  O   UNL     1     -14.735  -3.131  13.106  0.00  0.00    -0.169 OA
ATOM      4  O   UNL     1     -12.351  -3.127  12.293  0.00  0.00    -0.169 OA
BRANCH   1  25
ATOM     25  C   UNL     1     -14.051  -4.830  11.252  0.00  0.00    +0.168 C 
ATOM     27  C   UNL     1     -12.920  -4.992  10.263  0.00  0.00    +0.028 C 
ENDBRANCH   1  25
ENDBRANCH  20   1
ENDBRANCH   8  12
BRANCH   6  13
ATOM     13  C   UNL     1      -7.801 -11.440  16.839  0.00  0.00    +0.119 C 
BRANCH  13  14
ATOM     14  C   UNL     1      -6.308 -11.244  16.783  0.00  0.00    -0.033 A 
ATOM     18  C   UNL     1      -5.550 -11.331  17.951  0.00  0.00    +0.008 A 
ATOM     19  C   UNL     1      -5.685 -10.977  15.565  0.00  0.00    +0.008 A 
ATOM     23  C   UNL     1      -4.168 -11.151  17.899  0.00  0.00    +0.046 A 
ATOM     24  C   UNL     1      -4.303 -10.798  15.513  0.00  0.00    +0.046 A 
ATOM     26  C   UNL     1      -3.544 -10.884  16.680  0.00  0.00    +0.120 A 
BRANCH  26   5
ATOM      5  O   UNL     1      -2.196 -10.709  16.630  0.00  0.00    -0.495 OA
ATOM     28  C   UNL     1      -1.615 -10.503  15.343  0.00  0.00    +0.277 C 
ENDBRANCH  26   5
ENDBRANCH  13  14
ENDBRANCH   6  13
TORSDOF 6
ENDMDL
MODEL 7
REMARK VINA RESULT:      -6.5      3.587      4.765
REMARK  Name = 51137129
REMARK  8 active torsions:
REMARK  status: ('A' for Active; 'I' for Inactive)
REMARK    1  A    between atoms: S_1  and  C_20
REMARK    2  A    between atoms: S_1  and  C_25
REMARK    3  A    between atoms: O_5  and  C_26
REMARK    4  A    between atoms: O_5  and  C_28
REMARK    5  A    between atoms: N_6  and  C_13
REMARK    6  A    between atoms: C_8  and  C_12
REMARK    7  A    between atoms: C_13  and  C_14
REMARK    8  A    between atoms: C_25  and  C_27
REMARK                            x       y       z     vdW  Elec       q    Type
REMARK                         _______ _______ _______ _____ _____    ______ ____
ROOT
ATOM      6  N   UNL     1      11.641   7.869  19.072  0.00  0.00    -0.297 NA
ATOM      8  C   UNL     1      13.323   6.652  20.162  0.00  0.00    +0.090 C 
ATOM      9  C   UNL     1      12.514   7.453  21.198  0.00  0.00    +0.029 C 
ATOM     10  C   UNL     1      12.958   7.281  18.812  0.00  0.00    +0.097 C 
ATOM     11  C   UNL     1      11.764   8.501  20.385  0.00  0.00    +0.085 C 
ENDROOT
BRANCH   8  12
ATOM      2  O   UNL     1      15.568   6.055  19.424  0.00  0.00    -0.439 OA
ATOM      7  N   UNL     1      15.478   7.053  21.457  0.00  0.00    -0.213 NA
ATOM     12  C   UNL     1      14.813   6.615  20.411  0.00  0.00    +0.201 A 
ATOM     15  C   UNL     1      16.784   6.763  21.146  0.00  0.00    +0.111 A 
ATOM     16  C   UNL     1      16.843   6.152  19.902  0.00  0.00    +0.155 A 
ATOM     17  C   UNL     1      17.977   6.979  21.852  0.00  0.00    +0.058 A 
ATOM     20  C   UNL     1      19.178   6.565  21.259  0.00  0.00    +0.090 A 
ATOM     21  C   UNL     1      18.012   5.726  19.283  0.00  0.00    +0.050 A 
ATOM     22  C   UNL     1      19.193   5.950  20.000  0.00  0.00    +0.030 A 
BRANCH  20   1
ATOM      1  S   UNL     1      20.686   6.819  22.108  0.00  0.00    -0.003 S 
ATOM      3  O   UNL     1      20.858   8.246  22.339  0.00  0.00    -0.169 OA
ATOM      4  O   UNL     1      20.725   5.893  23.230  0.00  0.00    -0.169 OA
BRANCH   1  25
ATOM     25  C   UNL     1      21.936   6.326  20.944  0.00  0.00    +0.168 C 
ATOM     27  C   UNL     1      22.669   5.089  21.409  0.00  0.00    +0.028 C 
ENDBRANCH   1  25
ENDBRANCH  20   1
ENDBRANCH   8  12
BRANCH   6  13
ATOM     13  C   UNL     1      11.242   8.812  18.038  0.00  0.00    +0.119 C 
BRANCH  13  14
ATOM     14  C   UNL     1      12.430   9.480  17.398  0.00  0.00    -0.033 A 
ATOM     18  C   UNL     1      13.158  10.437  18.106  0.00  0.00    +0.008 A 
ATOM     19  C   UNL     1      12.805   9.141  16.098  0.00  0.00    +0.008 A 
ATOM     23  C   UNL     1      14.259  11.054  17.514  0.00  0.00    +0.046 A 
ATOM     24  C   UNL     1      13.906   9.758  15.506  0.00  0.00    +0.046 A 
ATOM     26  C   UNL     1      14.634  10.715  16.213  0.00  0.00    +0.120 A 
BRANCH  26   5
ATOM      5  O   UNL     1      15.708  11.317  15.636  0.00  0.00    -0.495 OA
ATOM     28  C   UNL     1      16.195  12.507  16.254  0.00  0.00    +0.277 C 
ENDBRANCH  26   5
ENDBRANCH  13  14
ENDBRANCH   6  13
TORSDOF 6
ENDMDL
MODEL 8
REMARK VINA RESULT:      -6.5      3.858      6.497
REMARK  Name = 51137129
REMARK  8 active torsions:
REMARK  status: ('A' for Active; 'I' for Inactive)
REMARK    1  A    between atoms: S_1  and  C_20
REMARK    2  A    between atoms: S_1  and  C_25
REMARK    3  A    between atoms: O_5  and  C_26
REMARK    4  A    between atoms: O_5  and  C_28
REMARK    5  A    between atoms: N_6  and  C_13
REMARK    6  A    between atoms: C_8  and  C_12
REMARK    7  A    between atoms: C_13  and  C_14
REMARK    8  A    between atoms: C_25  and  C_27
REMARK                            x       y       z     vdW  Elec       q    Type
REMARK                         _______ _______ _______ _____ _____    ______ ____
ROOT
ATOM      6  N   UNL     1      17.358   7.831  21.133  0.00  0.00    -0.297 NA
ATOM      8  C   UNL     1      19.167   6.804  22.216  0.00  0.00    +0.090 C 
ATOM      9  C   UNL     1      19.298   8.333  22.334  0.00  0.00    +0.029 C 
ATOM     10  C   UNL     1      18.131   6.586  21.106  0.00  0.00    +0.097 C 
ATOM     11  C   UNL     1      18.356   8.890  21.273  0.00  0.00    +0.085 C 
ENDROOT
BRANCH   8  12
ATOM      2  O   UNL     1      20.958   5.350  23.005  0.00  0.00    -0.439 OA
ATOM      7  N   UNL     1      21.185   6.046  20.860  0.00  0.00    -0.213 NA
ATOM     12  C   UNL     1      20.466   6.074  21.960  0.00  0.00    +0.201 A 
ATOM     15  C   UNL     1      22.245   5.239  21.195  0.00  0.00    +0.111 A 
ATOM     16  C   UNL     1      22.109   4.810  22.507  0.00  0.00    +0.155 A 
ATOM     17  C   UNL     1      23.360   4.816  20.457  0.00  0.00    +0.058 A 
ATOM     20  C   UNL     1      24.288   3.975  21.087  0.00  0.00    +0.090 A 
ATOM     21  C   UNL     1      23.007   3.979  23.166  0.00  0.00    +0.050 A 
ATOM     22  C   UNL     1      24.113   3.566  22.416  0.00  0.00    +0.030 A 
BRANCH  20   1
ATOM      1  S   UNL     1      25.690   3.427  20.198  0.00  0.00    -0.003 S 
ATOM      3  O   UNL     1      26.450   2.513  21.037  0.00  0.00    -0.169 OA
ATOM      4  O   UNL     1      25.241   2.999  18.881  0.00  0.00    -0.169 OA
BRANCH   1  25
ATOM     25  C   UNL     1      26.680   4.889  19.992  0.00  0.00    +0.168 C 
ATOM     27  C   UNL     1      26.655   5.380  18.562  0.00  0.00    +0.028 C 
ENDBRANCH   1  25
ENDBRANCH  20   1
ENDBRANCH   8  12
BRANCH   6  13
ATOM     13  C   UNL     1      16.535   7.998  19.945  0.00  0.00    +0.119 C 
BRANCH  13  14
ATOM     14  C   UNL     1      15.091   7.663  20.211  0.00  0.00    -0.033 A 
ATOM     18  C   UNL     1      14.563   7.819  21.493  0.00  0.00    +0.008 A 
ATOM     19  C   UNL     1      14.281   7.198  19.175  0.00  0.00    +0.008 A 
ATOM     23  C   UNL     1      13.226   7.510  21.738  0.00  0.00    +0.046 A 
ATOM     24  C   UNL     1      12.944   6.889  19.421  0.00  0.00    +0.046 A 
ATOM     26  C   UNL     1      12.415   7.044  20.702  0.00  0.00    +0.120 A 
BRANCH  26   5
ATOM      5  O   UNL     1      11.111   6.743  20.942  0.00  0.00    -0.495 OA
ATOM     28  C   UNL     1      10.454   7.478  21.973  0.00  0.00    +0.277 C 
ENDBRANCH  26   5
ENDBRANCH  13  14
ENDBRANCH   6  13
TORSDOF 6
ENDMDL
MODEL 9
REMARK VINA RESULT:      -6.4     27.606     30.103
REMARK  Name = 51137129
REMARK  8 active torsions:
REMARK  status: ('A' for Active; 'I' for Inactive)
REMARK    1  A    between atoms: S_1  and  C_20
REMARK    2  A    between atoms: S_1  and  C_25
REMARK    3  A    between atoms: O_5  and  C_26
REMARK    4  A    between atoms: O_5  and  C_28
REMARK    5  A    between atoms: N_6  and  C_13
REMARK    6  A    between atoms: C_8  and  C_12
REMARK    7  A    between atoms: C_13  and  C_14
REMARK    8  A    between atoms: C_25  and  C_27
REMARK                            x       y       z     vdW  Elec       q    Type
REMARK                         _______ _______ _______ _____ _____    ______ ____
ROOT
ATOM      6  N   UNL     1     -10.864  -7.594  16.078  0.00  0.00    -0.297 NA
ATOM      8  C   UNL     1      -9.429  -9.447  15.988  0.00  0.00    +0.090 C 
ATOM      9  C   UNL     1      -9.959  -9.275  17.423  0.00  0.00    +0.029 C 
ATOM     10  C   UNL     1      -9.738  -8.112  15.298  0.00  0.00    +0.097 C 
ATOM     11  C   UNL     1     -10.508  -7.855  17.472  0.00  0.00    +0.085 C 
ENDROOT
BRANCH   8  12
ATOM      2  O   UNL     1      -7.296  -9.908  17.073  0.00  0.00    -0.439 OA
ATOM      7  N   UNL     1      -7.270 -10.115  14.817  0.00  0.00    -0.213 NA
ATOM     12  C   UNL     1      -7.973  -9.836  15.892  0.00  0.00    +0.201 A 
ATOM     15  C   UNL     1      -6.022 -10.396  15.318  0.00  0.00    +0.111 A 
ATOM     16  C   UNL     1      -6.034 -10.271  16.699  0.00  0.00    +0.155 A 
ATOM     17  C   UNL     1      -4.827 -10.765  14.681  0.00  0.00    +0.058 A 
ATOM     20  C   UNL     1      -3.698 -10.990  15.481  0.00  0.00    +0.090 A 
ATOM     21  C   UNL     1      -4.936 -10.484  17.523  0.00  0.00    +0.050 A 
ATOM     22  C   UNL     1      -3.753 -10.851  16.874  0.00  0.00    +0.030 A 
BRANCH  20   1
ATOM      1  S   UNL     1      -2.191 -11.452  14.723  0.00  0.00    -0.003 S 
ATOM      3  O   UNL     1      -1.097 -11.157  15.636  0.00  0.00    -0.169 OA
ATOM      4  O   UNL     1      -2.353 -12.800  14.198  0.00  0.00    -0.169 OA
BRANCH   1  25
ATOM     25  C   UNL     1      -2.032 -10.341  13.344  0.00  0.00    +0.168 C 
ATOM     27  C   UNL     1      -2.198 -11.064  12.027  0.00  0.00    +0.028 C 
ENDBRANCH   1  25
ENDBRANCH  20   1
ENDBRANCH   8  12
BRANCH   6  13
ATOM     13  C   UNL     1     -11.112  -6.182  15.825  0.00  0.00    +0.119 C 
BRANCH  13  14
ATOM     14  C   UNL     1     -12.370  -5.969  15.023  0.00  0.00    -0.033 A 
ATOM     18  C   UNL     1     -12.343  -5.165  13.884  0.00  0.00    +0.008 A 
ATOM     19  C   UNL     1     -13.560  -6.577  15.420  0.00  0.00    +0.008 A 
ATOM     23  C   UNL     1     -13.507  -4.969  13.142  0.00  0.00    +0.046 A 
ATOM     24  C   UNL     1     -14.724  -6.381  14.678  0.00  0.00    +0.046 A 
ATOM     26  C   UNL     1     -14.699  -5.576  13.539  0.00  0.00    +0.120 A 
BRANCH  26   5
ATOM      5  O   UNL     1     -15.834  -5.385  12.814  0.00  0.00    -0.495 OA
ATOM     28  C   UNL     1     -16.616  -6.541  12.516  0.00  0.00    +0.277 C 
ENDBRANCH  26   5
ENDBRANCH  13  14
ENDBRANCH   6  13
TORSDOF 6
ENDMDL
MODEL 10
REMARK VINA RESULT:      -6.1     27.647     31.296
REMARK  Name = 51137129
REMARK  8 active torsions:
REMARK  status: ('A' for Active; 'I' for Inactive)
REMARK    1  A    between atoms: S_1  and  C_20
REMARK    2  A    between atoms: S_1  and  C_25
REMARK    3  A    between atoms: O_5  and  C_26
REMARK    4  A    between atoms: O_5  and  C_28
REMARK    5  A    between atoms: N_6  and  C_13
REMARK    6  A    between atoms: C_8  and  C_12
REMARK    7  A    between atoms: C_13  and  C_14
REMARK    8  A    between atoms: C_25  and  C_27
REMARK                            x       y       z     vdW  Elec       q    Type
REMARK                         _______ _______ _______ _____ _____    ______ ____
ROOT
ATOM      6  N   UNL     1      -6.392 -11.275  17.405  0.00  0.00    -0.297 NA
ATOM      8  C   UNL     1      -7.845  -9.435  17.483  0.00  0.00    +0.090 C 
ATOM      9  C   UNL     1      -8.313 -10.503  18.487  0.00  0.00    +0.029 C 
ATOM     10  C   UNL     1      -6.861 -10.170  16.564  0.00  0.00    +0.097 C 
ATOM     11  C   UNL     1      -7.595 -11.780  18.067  0.00  0.00    +0.085 C 
ENDROOT
BRANCH   8  12
ATOM      2  O   UNL     1      -9.563  -7.710  17.367  0.00  0.00    -0.439 OA
ATOM      7  N   UNL     1      -9.418  -9.019  15.524  0.00  0.00    -0.213 NA
ATOM     12  C   UNL     1      -8.957  -8.747  16.724  0.00  0.00    +0.201 A 
ATOM     15  C   UNL     1     -10.413  -8.089  15.348  0.00  0.00    +0.111 A 
ATOM     16  C   UNL     1     -10.505  -7.285  16.475  0.00  0.00    +0.155 A 
ATOM     17  C   UNL     1     -11.284  -7.852  14.274  0.00  0.00    +0.058 A 
ATOM     20  C   UNL     1     -12.209  -6.806  14.395  0.00  0.00    +0.090 A 
ATOM     21  C   UNL     1     -11.409  -6.242  16.632  0.00  0.00    +0.050 A 
ATOM     22  C   UNL     1     -12.269  -6.018  15.552  0.00  0.00    +0.030 A 
BRANCH  20   1
ATOM      1  S   UNL     1     -13.310  -6.480  13.076  0.00  0.00    -0.003 S 
ATOM      3  O   UNL     1     -13.567  -7.721  12.362  0.00  0.00    -0.169 OA
ATOM      4  O   UNL     1     -14.422  -5.704  13.606  0.00  0.00    -0.169 OA
BRANCH   1  25
ATOM     25  C   UNL     1     -12.384  -5.431  11.978  0.00  0.00    +0.168 C 
ATOM     27  C   UNL     1     -12.355  -4.002  12.469  0.00  0.00    +0.028 C 
ENDBRANCH   1  25
ENDBRANCH  20   1
ENDBRANCH   8  12
BRANCH   6  13
ATOM     13  C   UNL     1      -5.708 -12.305  16.638  0.00  0.00    +0.119 C 
BRANCH  13  14
ATOM     14  C   UNL     1      -4.602 -11.732  15.792  0.00  0.00    -0.033 A 
ATOM     18  C   UNL     1      -3.478 -11.172  16.399  0.00  0.00    +0.008 A 
ATOM     19  C   UNL     1      -4.701 -11.762  14.401  0.00  0.00    +0.008 A 
ATOM     23  C   UNL     1      -2.453 -10.643  15.615  0.00  0.00    +0.046 A 
ATOM     24  C   UNL     1      -3.676 -11.233  13.617  0.00  0.00    +0.046 A 
ATOM     26  C   UNL     1      -2.552 -10.673  14.224  0.00  0.00    +0.120 A 
BRANCH  26   5
ATOM      5  O   UNL     1      -1.551 -10.157  13.459  0.00  0.00    -0.495 OA
ATOM     28  C   UNL     1      -1.709 -10.238  12.044  0.00  0.00    +0.277 C 
ENDBRANCH  26   5
ENDBRANCH  13  14
ENDBRANCH   6  13
TORSDOF 6
ENDMDL
