MODEL 1
REMARK VINA RESULT:      -6.4      0.000      0.000
REMARK  Name = 56775475
REMARK  6 active torsions:
REMARK  status: ('A' for Active; 'I' for Inactive)
REMARK    1  A    between atoms: N_4  and  C_6
REMARK    2  A    between atoms: N_4  and  C_11
REMARK    3  A    between atoms: C_6  and  C_9
REMARK    4  A    between atoms: C_9  and  C_10
REMARK    5  A    between atoms: C_11  and  C_12
REMARK    6  A    between atoms: C_14  and  C_17
REMARK                            x       y       z     vdW  Elec       q    Type
REMARK                         _______ _______ _______ _____ _____    ______ ____
ROOT
ATOM      2  O   UNL     1      10.275  12.255  24.797  0.00  0.00    -0.376 OA
ATOM      6  C   UNL     1      11.772  11.748  23.363  0.00  0.00    +0.072 C 
ATOM      7  C   UNL     1      10.866  12.936  23.666  0.00  0.00    +0.184 C 
ATOM      8  C   UNL     1      11.171  11.134  24.622  0.00  0.00    +0.184 C 
ENDROOT
BRANCH   6   4
ATOM      4  N   UNL     1      11.247  11.044  22.200  0.00  0.00    -0.302 NA
ATOM     26  H   UNL     1      11.870  11.011  21.396  0.00  0.00    +0.123 HD
BRANCH   4  11
ATOM     11  C   UNL     1      10.856   9.688  22.579  0.00  0.00    +0.117 C 
BRANCH  11  12
ATOM     12  C   UNL     1      11.277   8.675  21.549  0.00  0.00    -0.034 A 
ATOM     15  C   UNL     1      11.291   9.018  20.197  0.00  0.00    +0.005 A 
ATOM     16  C   UNL     1      11.653   7.391  21.947  0.00  0.00    +0.005 A 
ATOM     18  C   UNL     1      11.682   8.077  19.243  0.00  0.00    +0.000 A 
ATOM     19  C   UNL     1      12.045   6.452  20.993  0.00  0.00    +0.000 A 
ATOM     20  C   UNL     1      12.058   6.795  19.641  0.00  0.00    +0.000 A 
ENDBRANCH  11  12
ENDBRANCH   4  11
ENDBRANCH   6   4
BRANCH   6   9
ATOM      9  C   UNL     1      13.289  11.967  23.293  0.00  0.00    +0.085 C 
BRANCH   9  10
ATOM      3  O   UNL     1      14.516  10.417  20.320  0.00  0.00    -0.354 OA
ATOM      5  N   UNL     1      13.850  11.437  20.988  0.00  0.00    -0.083 NA
ATOM     10  C   UNL     1      13.907  11.098  22.279  0.00  0.00    +0.086 A 
ATOM     13  C   UNL     1      14.590   9.888  22.484  0.00  0.00    +0.076 A 
ATOM     14  C   UNL     1      14.953   9.501  21.221  0.00  0.00    +0.167 A 
BRANCH  14  17
ATOM      1  F   UNL     1      17.729   5.160  19.101  0.00  0.00    -0.205 F 
ATOM     17  C   UNL     1      15.671   8.375  20.673  0.00  0.00    +0.020 A 
ATOM     21  C   UNL     1      16.806   7.890  21.321  0.00  0.00    +0.014 A 
ATOM     22  C   UNL     1      15.231   7.775  19.494  0.00  0.00    +0.014 A 
ATOM     23  C   UNL     1      17.502   6.804  20.791  0.00  0.00    +0.039 A 
ATOM     24  C   UNL     1      15.927   6.689  18.962  0.00  0.00    +0.039 A 
ATOM     25  C   UNL     1      17.061   6.203  19.611  0.00  0.00    +0.123 A 
ENDBRANCH  14  17
ENDBRANCH   9  10
ENDBRANCH   6   9
TORSDOF 6
ENDMDL
MODEL 2
REMARK VINA RESULT:      -6.3      3.338      7.258
REMARK  Name = 56775475
REMARK  6 active torsions:
REMARK  status: ('A' for Active; 'I' for Inactive)
REMARK    1  A    between atoms: N_4  and  C_6
REMARK    2  A    between atoms: N_4  and  C_11
REMARK    3  A    between atoms: C_6  and  C_9
REMARK    4  A    between atoms: C_9  and  C_10
REMARK    5  A    between atoms: C_11  and  C_12
REMARK    6  A    between atoms: C_14  and  C_17
REMARK                            x       y       z     vdW  Elec       q    Type
REMARK                         _______ _______ _______ _____ _____    ______ ____
ROOT
ATOM      2  O   UNL     1      13.466   8.598  16.414  0.00  0.00    -0.376 OA
ATOM      6  C   UNL     1      13.668   8.032  18.461  0.00  0.00    +0.072 C 
ATOM      7  C   UNL     1      13.392   9.307  17.672  0.00  0.00    +0.184 C 
ATOM      8  C   UNL     1      13.636   7.339  17.104  0.00  0.00    +0.184 C 
ENDROOT
BRANCH   6   4
ATOM      4  N   UNL     1      15.043   8.066  18.940  0.00  0.00    -0.302 NA
ATOM     26  H   UNL     1      15.230   8.745  19.675  0.00  0.00    +0.123 HD
BRANCH   4  11
ATOM     11  C   UNL     1      15.444   6.733  19.385  0.00  0.00    +0.117 C 
BRANCH  11  12
ATOM     12  C   UNL     1      16.816   6.736  20.001  0.00  0.00    -0.034 A 
ATOM     15  C   UNL     1      17.780   5.827  19.565  0.00  0.00    +0.005 A 
ATOM     16  C   UNL     1      17.126   7.650  21.009  0.00  0.00    +0.005 A 
ATOM     18  C   UNL     1      19.053   5.831  20.137  0.00  0.00    +0.000 A 
ATOM     19  C   UNL     1      18.399   7.655  21.579  0.00  0.00    +0.000 A 
ATOM     20  C   UNL     1      19.362   6.744  21.144  0.00  0.00    +0.000 A 
ENDBRANCH  11  12
ENDBRANCH   4  11
ENDBRANCH   6   4
BRANCH   6   9
ATOM      9  C   UNL     1      12.669   7.596  19.542  0.00  0.00    +0.085 C 
BRANCH   9  10
ATOM      3  O   UNL     1      13.063   9.732  22.377  0.00  0.00    -0.354 OA
ATOM      5  N   UNL     1      13.473   8.682  21.564  0.00  0.00    -0.083 NA
ATOM     10  C   UNL     1      12.551   8.614  20.599  0.00  0.00    +0.086 A 
ATOM     13  C   UNL     1      11.548   9.586  20.749  0.00  0.00    +0.076 A 
ATOM     14  C   UNL     1      11.917  10.263  21.881  0.00  0.00    +0.167 A 
BRANCH  14  17
ATOM      1  F   UNL     1       9.793  14.542  24.748  0.00  0.00    -0.205 F 
ATOM     17  C   UNL     1      11.368  11.372  22.624  0.00  0.00    +0.020 A 
ATOM     21  C   UNL     1      11.076  11.226  23.980  0.00  0.00    +0.014 A 
ATOM     22  C   UNL     1      11.129  12.588  21.985  0.00  0.00    +0.014 A 
ATOM     23  C   UNL     1      10.544  12.297  24.698  0.00  0.00    +0.039 A 
ATOM     24  C   UNL     1      10.596  13.659  22.703  0.00  0.00    +0.039 A 
ATOM     25  C   UNL     1      10.304  13.513  24.059  0.00  0.00    +0.123 A 
ENDBRANCH  14  17
ENDBRANCH   9  10
ENDBRANCH   6   9
TORSDOF 6
ENDMDL
MODEL 3
REMARK VINA RESULT:      -6.2      2.314      4.561
REMARK  Name = 56775475
REMARK  6 active torsions:
REMARK  status: ('A' for Active; 'I' for Inactive)
REMARK    1  A    between atoms: N_4  and  C_6
REMARK    2  A    between atoms: N_4  and  C_11
REMARK    3  A    between atoms: C_6  and  C_9
REMARK    4  A    between atoms: C_9  and  C_10
REMARK    5  A    between atoms: C_11  and  C_12
REMARK    6  A    between atoms: C_14  and  C_17
REMARK                            x       y       z     vdW  Elec       q    Type
REMARK                         _______ _______ _______ _____ _____    ______ ____
ROOT
ATOM      2  O   UNL     1      10.931   6.888  20.856  0.00  0.00    -0.376 OA
ATOM      6  C   UNL     1      12.349   8.463  21.107  0.00  0.00    +0.072 C 
ATOM      7  C   UNL     1      12.325   6.945  21.235  0.00  0.00    +0.184 C 
ATOM      8  C   UNL     1      10.911   8.315  20.624  0.00  0.00    +0.184 C 
ENDROOT
BRANCH   6   4
ATOM      4  N   UNL     1      12.338   9.046  22.442  0.00  0.00    -0.302 NA
ATOM     26  H   UNL     1      12.772   8.478  23.166  0.00  0.00    +0.123 HD
BRANCH   4  11
ATOM     11  C   UNL     1      12.965  10.366  22.409  0.00  0.00    +0.117 C 
BRANCH  11  12
ATOM     12  C   UNL     1      12.012  11.450  22.833  0.00  0.00    -0.034 A 
ATOM     15  C   UNL     1      11.474  12.319  21.883  0.00  0.00    +0.005 A 
ATOM     16  C   UNL     1      11.665  11.587  24.178  0.00  0.00    +0.005 A 
ATOM     18  C   UNL     1      10.590  13.324  22.278  0.00  0.00    +0.000 A 
ATOM     19  C   UNL     1      10.780  12.591  24.571  0.00  0.00    +0.000 A 
ATOM     20  C   UNL     1      10.244  13.460  23.622  0.00  0.00    +0.000 A 
ENDBRANCH  11  12
ENDBRANCH   4  11
ENDBRANCH   6   4
BRANCH   6   9
ATOM      9  C   UNL     1      13.381   9.116  20.178  0.00  0.00    +0.085 C 
BRANCH   9  10
ATOM      3  O   UNL     1      15.893   6.765  19.219  0.00  0.00    -0.354 OA
ATOM      5  N   UNL     1      14.653   7.372  19.058  0.00  0.00    -0.083 NA
ATOM     10  C   UNL     1      14.581   8.274  20.041  0.00  0.00    +0.086 A 
ATOM     13  C   UNL     1      15.733   8.281  20.845  0.00  0.00    +0.076 A 
ATOM     14  C   UNL     1      16.526   7.315  20.285  0.00  0.00    +0.167 A 
BRANCH  14  17
ATOM      1  F   UNL     1      21.580   5.260  21.418  0.00  0.00    -0.205 F 
ATOM     17  C   UNL     1      17.836   6.784  20.578  0.00  0.00    +0.020 A 
ATOM     21  C   UNL     1      18.360   5.752  19.799  0.00  0.00    +0.014 A 
ATOM     22  C   UNL     1      18.577   7.302  21.640  0.00  0.00    +0.014 A 
ATOM     23  C   UNL     1      19.624   5.237  20.083  0.00  0.00    +0.039 A 
ATOM     24  C   UNL     1      19.842   6.786  21.924  0.00  0.00    +0.039 A 
ATOM     25  C   UNL     1      20.365   5.755  21.145  0.00  0.00    +0.123 A 
ENDBRANCH  14  17
ENDBRANCH   9  10
ENDBRANCH   6   9
TORSDOF 6
ENDMDL
MODEL 4
REMARK VINA RESULT:      -6.1      2.581      4.786
REMARK  Name = 56775475
REMARK  6 active torsions:
REMARK  status: ('A' for Active; 'I' for Inactive)
REMARK    1  A    between atoms: N_4  and  C_6
REMARK    2  A    between atoms: N_4  and  C_11
REMARK    3  A    between atoms: C_6  and  C_9
REMARK    4  A    between atoms: C_9  and  C_10
REMARK    5  A    between atoms: C_11  and  C_12
REMARK    6  A    between atoms: C_14  and  C_17
REMARK                            x       y       z     vdW  Elec       q    Type
REMARK                         _______ _______ _______ _____ _____    ______ ____
ROOT
ATOM      2  O   UNL     1      11.842   8.973  16.736  0.00  0.00    -0.376 OA
ATOM      6  C   UNL     1      12.394   8.330  18.694  0.00  0.00    +0.072 C 
ATOM      7  C   UNL     1      11.115   8.461  17.876  0.00  0.00    +0.184 C 
ATOM      8  C   UNL     1      13.100   8.785  17.422  0.00  0.00    +0.184 C 
ENDROOT
BRANCH   6   4
ATOM      4  N   UNL     1      12.439   9.412  19.669  0.00  0.00    -0.302 NA
ATOM     26  H   UNL     1      12.362  10.349  19.279  0.00  0.00    +0.123 HD
BRANCH   4  11
ATOM     11  C   UNL     1      11.402   9.210  20.678  0.00  0.00    +0.117 C 
BRANCH  11  12
ATOM     12  C   UNL     1      11.349  10.346  21.663  0.00  0.00    -0.034 A 
ATOM     15  C   UNL     1      11.724  11.631  21.268  0.00  0.00    +0.005 A 
ATOM     16  C   UNL     1      10.926  10.116  22.972  0.00  0.00    +0.005 A 
ATOM     18  C   UNL     1      11.675  12.684  22.182  0.00  0.00    +0.000 A 
ATOM     19  C   UNL     1      10.876  11.169  23.885  0.00  0.00    +0.000 A 
ATOM     20  C   UNL     1      11.251  12.453  23.490  0.00  0.00    +0.000 A 
ENDBRANCH  11  12
ENDBRANCH   4  11
ENDBRANCH   6   4
BRANCH   6   9
ATOM      9  C   UNL     1      12.755   6.966  19.298  0.00  0.00    +0.085 C 
BRANCH   9  10
ATOM      3  O   UNL     1      15.392   7.235  21.691  0.00  0.00    -0.354 OA
ATOM      5  N   UNL     1      14.047   7.236  21.340  0.00  0.00    -0.083 NA
ATOM     10  C   UNL     1      14.036   7.026  20.020  0.00  0.00    +0.086 A 
ATOM     13  C   UNL     1      15.330   6.887  19.490  0.00  0.00    +0.076 A 
ATOM     14  C   UNL     1      16.145   7.025  20.582  0.00  0.00    +0.167 A 
BRANCH  14  17
ATOM      1  F   UNL     1      21.658   6.916  21.386  0.00  0.00    -0.205 F 
ATOM     17  C   UNL     1      17.573   6.996  20.791  0.00  0.00    +0.020 A 
ATOM     21  C   UNL     1      18.184   7.982  21.565  0.00  0.00    +0.014 A 
ATOM     22  C   UNL     1      18.341   5.983  20.219  0.00  0.00    +0.014 A 
ATOM     23  C   UNL     1      19.564   7.956  21.766  0.00  0.00    +0.039 A 
ATOM     24  C   UNL     1      19.721   5.956  20.419  0.00  0.00    +0.039 A 
ATOM     25  C   UNL     1      20.332   6.942  21.193  0.00  0.00    +0.123 A 
ENDBRANCH  14  17
ENDBRANCH   9  10
ENDBRANCH   6   9
TORSDOF 6
ENDMDL
MODEL 5
REMARK VINA RESULT:      -5.8     28.153     30.522
REMARK  Name = 56775475
REMARK  6 active torsions:
REMARK  status: ('A' for Active; 'I' for Inactive)
REMARK    1  A    between atoms: N_4  and  C_6
REMARK    2  A    between atoms: N_4  and  C_11
REMARK    3  A    between atoms: C_6  and  C_9
REMARK    4  A    between atoms: C_9  and  C_10
REMARK    5  A    between atoms: C_11  and  C_12
REMARK    6  A    between atoms: C_14  and  C_17
REMARK                            x       y       z     vdW  Elec       q    Type
REMARK                         _______ _______ _______ _____ _____    ______ ____
ROOT
ATOM      2  O   UNL     1     -11.398 -10.501  18.602  0.00  0.00    -0.376 OA
ATOM      6  C   UNL     1      -9.992  -9.597  17.275  0.00  0.00    +0.072 C 
ATOM      7  C   UNL     1     -10.279 -10.989  17.827  0.00  0.00    +0.184 C 
ATOM      8  C   UNL     1     -11.239  -9.177  18.044  0.00  0.00    +0.184 C 
ENDROOT
BRANCH   6   4
ATOM      4  N   UNL     1      -8.820  -9.058  17.951  0.00  0.00    -0.302 NA
ATOM     26  H   UNL     1      -8.664  -9.409  18.894  0.00  0.00    +0.123 HD
BRANCH   4  11
ATOM     11  C   UNL     1      -7.630  -9.289  17.135  0.00  0.00    +0.117 C 
BRANCH  11  12
ATOM     12  C   UNL     1      -6.608 -10.124  17.857  0.00  0.00    -0.034 A 
ATOM     15  C   UNL     1      -6.846 -10.541  19.167  0.00  0.00    +0.005 A 
ATOM     16  C   UNL     1      -5.422 -10.483  17.216  0.00  0.00    +0.005 A 
ATOM     18  C   UNL     1      -5.897 -11.316  19.836  0.00  0.00    +0.000 A 
ATOM     19  C   UNL     1      -4.475 -11.259  17.885  0.00  0.00    +0.000 A 
ATOM     20  C   UNL     1      -4.712 -11.674  19.195  0.00  0.00    +0.000 A 
ENDBRANCH  11  12
ENDBRANCH   4  11
ENDBRANCH   6   4
BRANCH   6   9
ATOM      9  C   UNL     1      -9.952  -9.394  15.755  0.00  0.00    +0.085 C 
BRANCH   9  10
ATOM      3  O   UNL     1     -10.812  -5.960  15.282  0.00  0.00    -0.354 OA
ATOM      5  N   UNL     1     -10.015  -6.964  15.819  0.00  0.00    -0.083 NA
ATOM     10  C   UNL     1     -10.552  -8.104  15.375  0.00  0.00    +0.086 A 
ATOM     13  C   UNL     1     -11.676  -7.884  14.562  0.00  0.00    +0.076 A 
ATOM     14  C   UNL     1     -11.797  -6.520  14.536  0.00  0.00    +0.167 A 
BRANCH  14  17
ATOM      1  F   UNL     1     -15.322  -2.953  12.108  0.00  0.00    -0.205 F 
ATOM     17  C   UNL     1     -12.710  -5.595  13.908  0.00  0.00    +0.020 A 
ATOM     21  C   UNL     1     -14.086  -5.766  14.055  0.00  0.00    +0.014 A 
ATOM     22  C   UNL     1     -12.215  -4.532  13.153  0.00  0.00    +0.014 A 
ATOM     23  C   UNL     1     -14.968  -4.874  13.447  0.00  0.00    +0.039 A 
ATOM     24  C   UNL     1     -13.098  -3.639  12.544  0.00  0.00    +0.039 A 
ATOM     25  C   UNL     1     -14.474  -3.810  12.692  0.00  0.00    +0.123 A 
ENDBRANCH  14  17
ENDBRANCH   9  10
ENDBRANCH   6   9
TORSDOF 6
ENDMDL
MODEL 6
REMARK VINA RESULT:      -5.8      3.204      5.159
REMARK  Name = 56775475
REMARK  6 active torsions:
REMARK  status: ('A' for Active; 'I' for Inactive)
REMARK    1  A    between atoms: N_4  and  C_6
REMARK    2  A    between atoms: N_4  and  C_11
REMARK    3  A    between atoms: C_6  and  C_9
REMARK    4  A    between atoms: C_9  and  C_10
REMARK    5  A    between atoms: C_11  and  C_12
REMARK    6  A    between atoms: C_14  and  C_17
REMARK                            x       y       z     vdW  Elec       q    Type
REMARK                         _______ _______ _______ _____ _____    ______ ____
ROOT
ATOM      2  O   UNL     1      11.050   6.684  20.836  0.00  0.00    -0.376 OA
ATOM      6  C   UNL     1      12.753   7.944  21.095  0.00  0.00    +0.072 C 
ATOM      7  C   UNL     1      12.000   7.299  19.937  0.00  0.00    +0.184 C 
ATOM      8  C   UNL     1      11.661   7.341  21.970  0.00  0.00    +0.184 C 
ENDROOT
BRANCH   6   4
ATOM      4  N   UNL     1      13.991   7.208  21.316  0.00  0.00    -0.302 NA
ATOM     26  H   UNL     1      13.919   6.421  21.958  0.00  0.00    +0.123 HD
BRANCH   4  11
ATOM     11  C   UNL     1      14.530   6.753  20.036  0.00  0.00    +0.117 C 
BRANCH  11  12
ATOM     12  C   UNL     1      16.013   6.508  20.108  0.00  0.00    -0.034 A 
ATOM     15  C   UNL     1      16.682   5.949  19.019  0.00  0.00    +0.005 A 
ATOM     16  C   UNL     1      16.719   6.839  21.264  0.00  0.00    +0.005 A 
ATOM     18  C   UNL     1      18.057   5.722  19.086  0.00  0.00    +0.000 A 
ATOM     19  C   UNL     1      18.094   6.612  21.331  0.00  0.00    +0.000 A 
ATOM     20  C   UNL     1      18.763   6.053  20.242  0.00  0.00    +0.000 A 
ENDBRANCH  11  12
ENDBRANCH   4  11
ENDBRANCH   6   4
BRANCH   6   9
ATOM      9  C   UNL     1      12.953   9.465  21.097  0.00  0.00    +0.085 C 
BRANCH   9  10
ATOM      3  O   UNL     1      16.247  10.110  22.318  0.00  0.00    -0.354 OA
ATOM      5  N   UNL     1      14.928   9.709  22.495  0.00  0.00    -0.083 NA
ATOM     10  C   UNL     1      14.371   9.815  21.285  0.00  0.00    +0.086 A 
ATOM     13  C   UNL     1      15.280  10.271  20.316  0.00  0.00    +0.076 A 
ATOM     14  C   UNL     1      16.444  10.441  21.017  0.00  0.00    +0.167 A 
BRANCH  14  17
ATOM      1  F   UNL     1      21.591  12.131  19.712  0.00  0.00    -0.205 F 
ATOM     17  C   UNL     1      17.778  10.878  20.678  0.00  0.00    +0.020 A 
ATOM     21  C   UNL     1      18.884  10.194  21.179  0.00  0.00    +0.014 A 
ATOM     22  C   UNL     1      17.958  11.985  19.850  0.00  0.00    +0.014 A 
ATOM     23  C   UNL     1      20.172  10.617  20.854  0.00  0.00    +0.039 A 
ATOM     24  C   UNL     1      19.247  12.409  19.524  0.00  0.00    +0.039 A 
ATOM     25  C   UNL     1      20.353  11.725  20.025  0.00  0.00    +0.123 A 
ENDBRANCH  14  17
ENDBRANCH   9  10
ENDBRANCH   6   9
TORSDOF 6
ENDMDL
MODEL 7
REMARK VINA RESULT:      -5.8      3.585      5.286
REMARK  Name = 56775475
REMARK  6 active torsions:
REMARK  status: ('A' for Active; 'I' for Inactive)
REMARK    1  A    between atoms: N_4  and  C_6
REMARK    2  A    between atoms: N_4  and  C_11
REMARK    3  A    between atoms: C_6  and  C_9
REMARK    4  A    between atoms: C_9  and  C_10
REMARK    5  A    between atoms: C_11  and  C_12
REMARK    6  A    between atoms: C_14  and  C_17
REMARK                            x       y       z     vdW  Elec       q    Type
REMARK                         _______ _______ _______ _____ _____    ______ ____
ROOT
ATOM      2  O   UNL     1      10.239   8.056  22.715  0.00  0.00    -0.376 OA
ATOM      6  C   UNL     1      11.588   8.184  21.066  0.00  0.00    +0.072 C 
ATOM      7  C   UNL     1      10.754   7.108  21.753  0.00  0.00    +0.184 C 
ATOM      8  C   UNL     1      10.930   9.140  22.053  0.00  0.00    +0.184 C 
ENDROOT
BRANCH   6   4
ATOM      4  N   UNL     1      12.984   8.006  21.443  0.00  0.00    -0.302 NA
ATOM     26  H   UNL     1      13.138   7.706  22.404  0.00  0.00    +0.123 HD
BRANCH   4  11
ATOM     11  C   UNL     1      13.628   7.069  20.524  0.00  0.00    +0.117 C 
BRANCH  11  12
ATOM     12  C   UNL     1      15.127   7.193  20.558  0.00  0.00    -0.034 A 
ATOM     15  C   UNL     1      15.918   6.289  19.848  0.00  0.00    +0.005 A 
ATOM     16  C   UNL     1      15.726   8.212  21.299  0.00  0.00    +0.005 A 
ATOM     18  C   UNL     1      17.309   6.404  19.880  0.00  0.00    +0.000 A 
ATOM     19  C   UNL     1      17.116   8.327  21.329  0.00  0.00    +0.000 A 
ATOM     20  C   UNL     1      17.907   7.423  20.621  0.00  0.00    +0.000 A 
ENDBRANCH  11  12
ENDBRANCH   4  11
ENDBRANCH   6   4
BRANCH   6   9
ATOM      9  C   UNL     1      11.401   8.423  19.562  0.00  0.00    +0.085 C 
BRANCH   9  10
ATOM      3  O   UNL     1      13.703  11.099  19.019  0.00  0.00    -0.354 OA
ATOM      5  N   UNL     1      12.767  10.421  19.791  0.00  0.00    -0.083 NA
ATOM     10  C   UNL     1      12.399   9.375  19.047  0.00  0.00    +0.086 A 
ATOM     13  C   UNL     1      13.062   9.340  17.808  0.00  0.00    +0.076 A 
ATOM     14  C   UNL     1      13.870  10.445  17.841  0.00  0.00    +0.167 A 
BRANCH  14  17
ATOM      1  F   UNL     1      17.542  12.713  14.317  0.00  0.00    -0.205 F 
ATOM     17  C   UNL     1      14.820  11.034  16.928  0.00  0.00    +0.020 A 
ATOM     21  C   UNL     1      14.890  10.584  15.610  0.00  0.00    +0.014 A 
ATOM     22  C   UNL     1      15.669  12.051  17.365  0.00  0.00    +0.014 A 
ATOM     23  C   UNL     1      15.810  11.151  14.728  0.00  0.00    +0.039 A 
ATOM     24  C   UNL     1      16.589  12.618  16.482  0.00  0.00    +0.039 A 
ATOM     25  C   UNL     1      16.659  12.168  15.164  0.00  0.00    +0.123 A 
ENDBRANCH  14  17
ENDBRANCH   9  10
ENDBRANCH   6   9
TORSDOF 6
ENDMDL
MODEL 8
REMARK VINA RESULT:      -5.8     26.680     28.400
REMARK  Name = 56775475
REMARK  6 active torsions:
REMARK  status: ('A' for Active; 'I' for Inactive)
REMARK    1  A    between atoms: N_4  and  C_6
REMARK    2  A    between atoms: N_4  and  C_11
REMARK    3  A    between atoms: C_6  and  C_9
REMARK    4  A    between atoms: C_9  and  C_10
REMARK    5  A    between atoms: C_11  and  C_12
REMARK    6  A    between atoms: C_14  and  C_17
REMARK                            x       y       z     vdW  Elec       q    Type
REMARK                         _______ _______ _______ _____ _____    ______ ____
ROOT
ATOM      2  O   UNL     1      -2.193 -14.103  13.876  0.00  0.00    -0.376 OA
ATOM      6  C   UNL     1      -2.088 -12.022  13.417  0.00  0.00    +0.072 C 
ATOM      7  C   UNL     1      -3.169 -13.045  13.747  0.00  0.00    +0.184 C 
ATOM      8  C   UNL     1      -1.113 -13.166  13.663  0.00  0.00    +0.184 C 
ENDROOT
BRANCH   6   4
ATOM      4  N   UNL     1      -2.131 -11.739  11.989  0.00  0.00    -0.302 NA
ATOM     26  H   UNL     1      -2.925 -12.138  11.492  0.00  0.00    +0.123 HD
BRANCH   4  11
ATOM     11  C   UNL     1      -2.085 -10.295  11.769  0.00  0.00    +0.117 C 
BRANCH  11  12
ATOM     12  C   UNL     1      -3.347  -9.785  11.129  0.00  0.00    -0.034 A 
ATOM     15  C   UNL     1      -3.307  -9.233   9.848  0.00  0.00    +0.005 A 
ATOM     16  C   UNL     1      -4.559  -9.864  11.816  0.00  0.00    +0.005 A 
ATOM     18  C   UNL     1      -4.478  -8.760   9.255  0.00  0.00    +0.000 A 
ATOM     19  C   UNL     1      -5.729  -9.392  11.222  0.00  0.00    +0.000 A 
ATOM     20  C   UNL     1      -5.689  -8.839   9.942  0.00  0.00    +0.000 A 
ENDBRANCH  11  12
ENDBRANCH   4  11
ENDBRANCH   6   4
BRANCH   6   9
ATOM      9  C   UNL     1      -1.978 -10.753  14.274  0.00  0.00    +0.085 C 
BRANCH   9  10
ATOM      3  O   UNL     1      -3.360 -11.117  17.547  0.00  0.00    -0.354 OA
ATOM      5  N   UNL     1      -2.290 -11.105  16.660  0.00  0.00    -0.083 NA
ATOM     10  C   UNL     1      -2.834 -10.842  15.468  0.00  0.00    +0.086 A 
ATOM     13  C   UNL     1      -4.228 -10.679  15.541  0.00  0.00    +0.076 A 
ATOM     14  C   UNL     1      -4.508 -10.861  16.869  0.00  0.00    +0.167 A 
BRANCH  14  17
ATOM      1  F   UNL     1      -9.159 -10.779  19.936  0.00  0.00    -0.205 F 
ATOM     17  C   UNL     1      -5.712 -10.838  17.664  0.00  0.00    +0.020 A 
ATOM     21  C   UNL     1      -5.784 -11.583  18.841  0.00  0.00    +0.014 A 
ATOM     22  C   UNL     1      -6.803 -10.073  17.254  0.00  0.00    +0.014 A 
ATOM     23  C   UNL     1      -6.949 -11.563  19.609  0.00  0.00    +0.039 A 
ATOM     24  C   UNL     1      -7.969 -10.054  18.022  0.00  0.00    +0.039 A 
ATOM     25  C   UNL     1      -8.041 -10.798  19.199  0.00  0.00    +0.123 A 
ENDBRANCH  14  17
ENDBRANCH   9  10
ENDBRANCH   6   9
TORSDOF 6
ENDMDL
MODEL 9
REMARK VINA RESULT:      -5.7     33.149     34.788
REMARK  Name = 56775475
REMARK  6 active torsions:
REMARK  status: ('A' for Active; 'I' for Inactive)
REMARK    1  A    between atoms: N_4  and  C_6
REMARK    2  A    between atoms: N_4  and  C_11
REMARK    3  A    between atoms: C_6  and  C_9
REMARK    4  A    between atoms: C_9  and  C_10
REMARK    5  A    between atoms: C_11  and  C_12
REMARK    6  A    between atoms: C_14  and  C_17
REMARK                            x       y       z     vdW  Elec       q    Type
REMARK                         _______ _______ _______ _____ _____    ______ ____
ROOT
ATOM      2  O   UNL     1      -1.235 -15.328   3.955  0.00  0.00    -0.376 OA
ATOM      6  C   UNL     1      -0.239 -15.284   2.068  0.00  0.00    +0.072 C 
ATOM      7  C   UNL     1      -0.255 -16.171   3.308  0.00  0.00    +0.184 C 
ATOM      8  C   UNL     1      -1.338 -14.499   2.774  0.00  0.00    +0.184 C 
ENDROOT
BRANCH   6   4
ATOM      4  N   UNL     1       0.983 -14.491   2.076  0.00  0.00    -0.302 NA
ATOM     26  H   UNL     1       1.041 -13.790   2.812  0.00  0.00    +0.123 HD
BRANCH   4  11
ATOM     11  C   UNL     1       2.145 -15.375   2.144  0.00  0.00    +0.117 C 
BRANCH  11  12
ATOM     12  C   UNL     1       3.205 -14.985   1.150  0.00  0.00    -0.034 A 
ATOM     15  C   UNL     1       4.287 -15.834   0.914  0.00  0.00    +0.005 A 
ATOM     16  C   UNL     1       3.107 -13.774   0.465  0.00  0.00    +0.005 A 
ATOM     18  C   UNL     1       5.270 -15.472  -0.008  0.00  0.00    +0.000 A 
ATOM     19  C   UNL     1       4.089 -13.413  -0.457  0.00  0.00    +0.000 A 
ATOM     20  C   UNL     1       5.171 -14.261  -0.693  0.00  0.00    +0.000 A 
ENDBRANCH  11  12
ENDBRANCH   4  11
ENDBRANCH   6   4
BRANCH   6   9
ATOM      9  C   UNL     1      -0.535 -15.912   0.700  0.00  0.00    +0.085 C 
BRANCH   9  10
ATOM      3  O   UNL     1       0.046 -13.213  -1.565  0.00  0.00    -0.354 OA
ATOM      5  N   UNL     1      -0.525 -13.754  -0.419  0.00  0.00    -0.083 NA
ATOM     10  C   UNL     1      -0.113 -15.025  -0.396  0.00  0.00    +0.086 A 
ATOM     13  C   UNL     1       0.713 -15.339  -1.488  0.00  0.00    +0.076 A 
ATOM     14  C   UNL     1       0.782 -14.166  -2.192  0.00  0.00    +0.167 A 
BRANCH  14  17
ATOM      1  F   UNL     1       3.338 -12.556  -6.874  0.00  0.00    -0.205 F 
ATOM     17  C   UNL     1       1.443 -13.749  -3.406  0.00  0.00    +0.020 A 
ATOM     21  C   UNL     1       2.348 -14.603  -4.034  0.00  0.00    +0.014 A 
ATOM     22  C   UNL     1       1.176 -12.493  -3.948  0.00  0.00    +0.014 A 
ATOM     23  C   UNL     1       2.989 -14.200  -5.206  0.00  0.00    +0.039 A 
ATOM     24  C   UNL     1       1.817 -12.089  -5.120  0.00  0.00    +0.039 A 
ATOM     25  C   UNL     1       2.723 -12.943  -5.748  0.00  0.00    +0.123 A 
ENDBRANCH  14  17
ENDBRANCH   9  10
ENDBRANCH   6   9
TORSDOF 6
ENDMDL
MODEL 10
REMARK VINA RESULT:      -5.7     25.015     26.548
REMARK  Name = 56775475
REMARK  6 active torsions:
REMARK  status: ('A' for Active; 'I' for Inactive)
REMARK    1  A    between atoms: N_4  and  C_6
REMARK    2  A    between atoms: N_4  and  C_11
REMARK    3  A    between atoms: C_6  and  C_9
REMARK    4  A    between atoms: C_9  and  C_10
REMARK    5  A    between atoms: C_11  and  C_12
REMARK    6  A    between atoms: C_14  and  C_17
REMARK                            x       y       z     vdW  Elec       q    Type
REMARK                         _______ _______ _______ _____ _____    ______ ____
ROOT
ATOM      2  O   UNL     1     -11.341  11.003  14.777  0.00  0.00    -0.376 OA
ATOM      6  C   UNL     1     -11.448  10.598  16.869  0.00  0.00    +0.072 C 
ATOM      7  C   UNL     1     -10.842   9.948  15.630  0.00  0.00    +0.184 C 
ATOM      8  C   UNL     1     -11.858  11.718  15.921  0.00  0.00    +0.184 C 
ENDROOT
BRANCH   6   4
ATOM      4  N   UNL     1     -12.637   9.850  17.255  0.00  0.00    -0.302 NA
ATOM     26  H   UNL     1     -13.456  10.008  16.672  0.00  0.00    +0.123 HD
BRANCH   4  11
ATOM     11  C   UNL     1     -12.330   8.422  17.299  0.00  0.00    +0.117 C 
BRANCH  11  12
ATOM     12  C   UNL     1     -12.596   7.833  18.658  0.00  0.00    -0.034 A 
ATOM     15  C   UNL     1     -11.555   7.256  19.385  0.00  0.00    +0.005 A 
ATOM     16  C   UNL     1     -13.885   7.864  19.191  0.00  0.00    +0.005 A 
ATOM     18  C   UNL     1     -11.803   6.710  20.645  0.00  0.00    +0.000 A 
ATOM     19  C   UNL     1     -14.132   7.319  20.451  0.00  0.00    +0.000 A 
ATOM     20  C   UNL     1     -13.091   6.741  21.178  0.00  0.00    +0.000 A 
ENDBRANCH  11  12
ENDBRANCH   4  11
ENDBRANCH   6   4
BRANCH   6   9
ATOM      9  C   UNL     1     -10.536  10.926  18.059  0.00  0.00    +0.085 C 
BRANCH   9  10
ATOM      3  O   UNL     1     -12.804  11.965  20.614  0.00  0.00    -0.354 OA
ATOM      5  N   UNL     1     -12.279  12.048  19.330  0.00  0.00    -0.083 NA
ATOM     10  C   UNL     1     -11.318  11.120  19.291  0.00  0.00    +0.086 A 
ATOM     13  C   UNL     1     -11.194  10.427  20.507  0.00  0.00    +0.076 A 
ATOM     14  C   UNL     1     -12.151  10.996  21.304  0.00  0.00    +0.167 A 
BRANCH  14  17
ATOM      1  F   UNL     1     -13.846  10.199  26.552  0.00  0.00    -0.205 F 
ATOM     17  C   UNL     1     -12.591  10.791  22.664  0.00  0.00    +0.020 A 
ATOM     21  C   UNL     1     -11.890  11.373  23.719  0.00  0.00    +0.014 A 
ATOM     22  C   UNL     1     -13.717  10.010  22.921  0.00  0.00    +0.014 A 
ATOM     23  C   UNL     1     -12.313  11.173  25.032  0.00  0.00    +0.039 A 
ATOM     24  C   UNL     1     -14.141   9.809  24.235  0.00  0.00    +0.039 A 
ATOM     25  C   UNL     1     -13.439  10.391  25.290  0.00  0.00    +0.123 A 
ENDBRANCH  14  17
ENDBRANCH   9  10
ENDBRANCH   6   9
TORSDOF 6
ENDMDL
