REMARK  Name = 11941327
REMARK  6 active torsions:
REMARK  status: ('A' for Active; 'I' for Inactive)
REMARK    1  A    between atoms: O_3  and  C_27
REMARK    2  A    between atoms: N_4  and  C_13
REMARK    3  A    between atoms: C_13  and  C_18
REMARK    4  A    between atoms: C_16  and  C_19
REMARK    5  A    between atoms: C_21  and  C_26
REMARK    6  A    between atoms: C_22  and  C_27
REMARK                            x       y       z     vdW  Elec       q    Type
REMARK                         _______ _______ _______ _____ _____    ______ ____
ROOT
ATOM      1  O   UNL     1      -2.009   1.808  -1.518  0.00  0.00    -0.267 OA
ATOM      4  N   UNL     1       2.852   0.983  -0.604  0.00  0.00    -0.294 NA
ATOM      5  N   UNL     1      -0.157   1.916  -0.105  0.00  0.00    -0.311 N 
ATOM      6  C   UNL     1       1.923   3.311  -0.652  0.00  0.00    +0.024 C 
ATOM      7  C   UNL     1       1.837   2.022   1.429  0.00  0.00    +0.050 C 
ATOM      8  C   UNL     1       2.065   3.420   0.861  0.00  0.00    +0.017 C 
ATOM      9  C   UNL     1       2.961   2.315  -1.210  0.00  0.00    +0.090 C 
ATOM     10  C   UNL     1       2.902   1.055   0.864  0.00  0.00    +0.094 C 
ATOM     11  C   UNL     1       0.480   2.906  -0.984  0.00  0.00    +0.130 C 
ATOM     12  C   UNL     1       0.441   1.527   1.096  0.00  0.00    +0.026 A 
ATOM     14  C   UNL     1      -0.208   0.707   1.938  0.00  0.00    +0.022 A 
ATOM     15  C   UNL     1      -1.436   1.462  -0.483  0.00  0.00    +0.259 A 
ATOM     16  C   UNL     1      -2.124   0.517   0.464  0.00  0.00    +0.047 A 
ATOM     17  C   UNL     1      -1.507   0.193   1.610  0.00  0.00    +0.015 A 
ENDROOT
BRANCH  16  19
ATOM     19  C   UNL     1      -3.445  -0.054   0.147  0.00  0.00    -0.010 A 
ATOM     21  C   UNL     1      -3.571  -1.256  -0.554  0.00  0.00    -0.043 A 
ATOM     24  C   UNL     1      -4.591   0.629   0.562  0.00  0.00    +0.009 A 
ATOM     25  C   UNL     1      -4.835  -1.771  -0.839  0.00  0.00    +0.004 A 
ATOM     26  C   UNL     1      -2.369  -2.016  -1.014  0.00  0.00    +0.044 C 
ATOM     28  C   UNL     1      -5.855   0.113   0.276  0.00  0.00    +0.001 A 
ATOM     29  C   UNL     1      -5.977  -1.087  -0.424  0.00  0.00    +0.000 A 
ENDBRANCH  16  19
BRANCH   4  13
ATOM     13  C   UNL     1       3.885   0.086  -1.119  0.00  0.00    +0.158 C 
BRANCH  13  18
ATOM      2  O   UNL     1       2.430  -1.755  -0.600  0.00  0.00    -0.461 OA
ATOM     18  C   UNL     1       3.696  -1.302  -0.575  0.00  0.00    +0.119 A 
ATOM     20  C   UNL     1       4.565  -2.200  -0.057  0.00  0.00    +0.046 A 
ATOM     22  C   UNL     1       2.485  -3.006  -0.072  0.00  0.00    +0.131 A 
ATOM     23  C   UNL     1       3.776  -3.326   0.278  0.00  0.00    +0.047 A 
BRANCH  22  27
ATOM     27  C   UNL     1       1.210  -3.731   0.015  0.00  0.00    +0.230 C 
BRANCH  27   3
ATOM      3  O   UNL     1       0.576  -3.467   1.269  0.00  0.00    -0.387 OA
ATOM     30  H   UNL     1      -0.260  -3.965   1.274  0.00  0.00    +0.210 HD
ENDBRANCH  27   3
ENDBRANCH  22  27
ENDBRANCH  13  18
ENDBRANCH   4  13
TORSDOF 5
