MODEL 1
REMARK VINA RESULT:      -6.7      0.000      0.000
REMARK  Name = 11941442
REMARK  9 active torsions:
REMARK  status: ('A' for Active; 'I' for Inactive)
REMARK    1  A    between atoms: S_1  and  C_22
REMARK    2  A    between atoms: S_1  and  C_29
REMARK    3  A    between atoms: O_5  and  C_25
REMARK    4  A    between atoms: O_5  and  C_31
REMARK    5  A    between atoms: O_6  and  C_30
REMARK    6  A    between atoms: O_6  and  C_32
REMARK    7  A    between atoms: N_8  and  C_10
REMARK    8  A    between atoms: C_18  and  C_22
REMARK    9  A    between atoms: C_21  and  C_24
REMARK                            x       y       z     vdW  Elec       q    Type
REMARK                         _______ _______ _______ _____ _____    ______ ____
ROOT
ATOM      2  O   UNL     1       9.883  13.092  25.432  0.00  0.00    -0.273 OA
ATOM      3  O   UNL     1      13.941  13.087  22.072  0.00  0.00    -0.270 OA
ATOM      7  N   UNL     1      12.897  13.271  24.113  0.00  0.00    -0.284 N 
ATOM      9  N   UNL     1      10.553  11.499  23.949  0.00  0.00    -0.283 N 
ATOM     10  C   UNL     1      12.458  13.718  26.393  0.00  0.00    +0.104 C 
ATOM     11  C   UNL     1      12.254  12.686  25.276  0.00  0.00    +0.183 C 
ATOM     12  C   UNL     1      12.586  15.042  25.637  0.00  0.00    +0.043 C 
ATOM     13  C   UNL     1      13.305  14.647  24.356  0.00  0.00    +0.111 C 
ATOM     14  C   UNL     1      10.803  12.485  24.881  0.00  0.00    +0.240 C 
ATOM     15  C   UNL     1      13.253  12.594  22.966  0.00  0.00    +0.249 C 
ATOM     16  C   UNL     1      12.757  11.204  22.790  0.00  0.00    +0.059 A 
ATOM     17  C   UNL     1      11.479  10.765  23.176  0.00  0.00    +0.046 A 
ATOM     19  C   UNL     1      13.584  10.351  22.037  0.00  0.00    +0.023 A 
ATOM     20  C   UNL     1      11.036   9.503  22.740  0.00  0.00    +0.024 A 
ATOM     21  C   UNL     1      13.144   9.084  21.654  0.00  0.00    -0.014 A 
ATOM     23  C   UNL     1      11.865   8.665  21.995  0.00  0.00    +0.010 A 
ATOM     34  H   UNL     1       9.582  11.210  23.869  0.00  0.00    +0.155 HD
ENDROOT
BRANCH  21  24
ATOM     24  C   UNL     1      14.010   8.218  20.884  0.00  0.00    +0.024 A 
ATOM     25  C   UNL     1      13.944   8.194  19.489  0.00  0.00    +0.131 A 
ATOM     26  C   UNL     1      14.923   7.398  21.550  0.00  0.00    +0.016 A 
ATOM     27  C   UNL     1      14.787   7.353  18.764  0.00  0.00    +0.091 A 
ATOM     28  C   UNL     1      15.766   6.557  20.825  0.00  0.00    +0.046 A 
ATOM     30  C   UNL     1      15.698   6.534  19.431  0.00  0.00    +0.124 A 
BRANCH  25   5
ATOM      5  O   UNL     1      13.063   8.983  18.811  0.00  0.00    -0.494 OA
ATOM     31  C   UNL     1      12.000   8.326  18.125  0.00  0.00    +0.277 C 
ENDBRANCH  25   5
BRANCH  30   6
ATOM      6  O   UNL     1      16.521   5.713  18.724  0.00  0.00    -0.495 OA
ATOM     32  C   UNL     1      17.867   5.591  19.181  0.00  0.00    +0.277 C 
ENDBRANCH  30   6
ENDBRANCH  21  24
BRANCH  10   8
ATOM      4  O   UNL     1      13.246  14.874  28.928  0.00  0.00    -0.275 OA
ATOM      8  N   UNL     1      13.653  13.431  27.151  0.00  0.00    -0.309 N 
ATOM     18  C   UNL     1      13.948  14.037  28.361  0.00  0.00    +0.223 C 
ATOM     33  H   UNL     1      14.333  12.797  26.738  0.00  0.00    +0.149 HD
BRANCH  18  22
ATOM     22  C   UNL     1      15.264  13.580  28.944  0.00  0.00    +0.164 C 
BRANCH  22   1
ATOM      1  S   UNL     1      14.980  12.102  29.948  0.00  0.00    -0.155 S 
ATOM     29  C   UNL     1      16.024  10.947  29.028  0.00  0.00    +0.085 C 
ENDBRANCH  22   1
ENDBRANCH  18  22
ENDBRANCH  10   8
TORSDOF 6
ENDMDL
MODEL 2
REMARK VINA RESULT:      -6.5     28.467     31.500
REMARK  Name = 11941442
REMARK  9 active torsions:
REMARK  status: ('A' for Active; 'I' for Inactive)
REMARK    1  A    between atoms: S_1  and  C_22
REMARK    2  A    between atoms: S_1  and  C_29
REMARK    3  A    between atoms: O_5  and  C_25
REMARK    4  A    between atoms: O_5  and  C_31
REMARK    5  A    between atoms: O_6  and  C_30
REMARK    6  A    between atoms: O_6  and  C_32
REMARK    7  A    between atoms: N_8  and  C_10
REMARK    8  A    between atoms: C_18  and  C_22
REMARK    9  A    between atoms: C_21  and  C_24
REMARK                            x       y       z     vdW  Elec       q    Type
REMARK                         _______ _______ _______ _____ _____    ______ ____
ROOT
ATOM      2  O   UNL     1      -0.627 -11.077  15.215  0.00  0.00    -0.273 OA
ATOM      3  O   UNL     1      -5.706  -9.813  14.619  0.00  0.00    -0.270 OA
ATOM      7  N   UNL     1      -3.745 -10.922  14.160  0.00  0.00    -0.284 N 
ATOM      9  N   UNL     1      -2.325 -11.083  16.733  0.00  0.00    -0.283 N 
ATOM     10  C   UNL     1      -2.092 -12.250  13.112  0.00  0.00    +0.104 C 
ATOM     11  C   UNL     1      -2.751 -11.936  14.463  0.00  0.00    +0.183 C 
ATOM     12  C   UNL     1      -2.278 -10.957  12.315  0.00  0.00    +0.043 C 
ATOM     13  C   UNL     1      -3.628 -10.442  12.791  0.00  0.00    +0.111 C 
ATOM     14  C   UNL     1      -1.812 -11.298  15.470  0.00  0.00    +0.240 C 
ATOM     15  C   UNL     1      -4.793 -10.556  14.977  0.00  0.00    +0.249 C 
ATOM     16  C   UNL     1      -4.806 -11.067  16.372  0.00  0.00    +0.059 A 
ATOM     17  C   UNL     1      -3.661 -11.211  17.173  0.00  0.00    +0.046 A 
ATOM     19  C   UNL     1      -6.078 -11.248  16.946  0.00  0.00    +0.023 A 
ATOM     20  C   UNL     1      -3.821 -11.469  18.547  0.00  0.00    +0.024 A 
ATOM     21  C   UNL     1      -6.215 -11.550  18.300  0.00  0.00    -0.014 A 
ATOM     23  C   UNL     1      -5.087 -11.647  19.104  0.00  0.00    +0.010 A 
ATOM     34  H   UNL     1      -1.637 -10.884  17.455  0.00  0.00    +0.155 HD
ENDROOT
BRANCH  21  24
ATOM     24  C   UNL     1      -7.531 -11.737  18.872  0.00  0.00    +0.024 A 
ATOM     25  C   UNL     1      -8.504 -10.740  18.775  0.00  0.00    +0.131 A 
ATOM     26  C   UNL     1      -7.826 -12.934  19.527  0.00  0.00    +0.016 A 
ATOM     27  C   UNL     1      -9.767 -10.939  19.332  0.00  0.00    +0.091 A 
ATOM     28  C   UNL     1      -9.089 -13.134  20.084  0.00  0.00    +0.046 A 
ATOM     30  C   UNL     1     -10.060 -12.136  19.987  0.00  0.00    +0.124 A 
BRANCH  25   5
ATOM      5  O   UNL     1      -8.245  -9.561  18.142  0.00  0.00    -0.494 OA
ATOM     31  C   UNL     1      -9.169  -9.150  17.136  0.00  0.00    +0.277 C 
ENDBRANCH  25   5
BRANCH  30   6
ATOM      6  O   UNL     1     -11.292 -12.331  20.531  0.00  0.00    -0.495 OA
ATOM     32  C   UNL     1     -11.464 -13.484  21.353  0.00  0.00    +0.277 C 
ENDBRANCH  30   6
ENDBRANCH  21  24
BRANCH  10   8
ATOM      4  O   UNL     1      -1.254 -15.020  13.115  0.00  0.00    -0.275 OA
ATOM      8  N   UNL     1      -2.748 -13.362  12.464  0.00  0.00    -0.309 N 
ATOM     18  C   UNL     1      -2.270 -14.661  12.521  0.00  0.00    +0.223 C 
ATOM     33  H   UNL     1      -3.564 -13.161  11.893  0.00  0.00    +0.149 HD
BRANCH  18  22
ATOM     22  C   UNL     1      -3.124 -15.638  11.747  0.00  0.00    +0.164 C 
BRANCH  22   1
ATOM      1  S   UNL     1      -3.521 -17.043  12.815  0.00  0.00    -0.155 S 
ATOM     29  C   UNL     1      -4.506 -16.169  14.055  0.00  0.00    +0.085 C 
ENDBRANCH  22   1
ENDBRANCH  18  22
ENDBRANCH  10   8
TORSDOF 6
ENDMDL
MODEL 3
REMARK VINA RESULT:      -6.5     28.601     30.943
REMARK  Name = 11941442
REMARK  9 active torsions:
REMARK  status: ('A' for Active; 'I' for Inactive)
REMARK    1  A    between atoms: S_1  and  C_22
REMARK    2  A    between atoms: S_1  and  C_29
REMARK    3  A    between atoms: O_5  and  C_25
REMARK    4  A    between atoms: O_5  and  C_31
REMARK    5  A    between atoms: O_6  and  C_30
REMARK    6  A    between atoms: O_6  and  C_32
REMARK    7  A    between atoms: N_8  and  C_10
REMARK    8  A    between atoms: C_18  and  C_22
REMARK    9  A    between atoms: C_21  and  C_24
REMARK                            x       y       z     vdW  Elec       q    Type
REMARK                         _______ _______ _______ _____ _____    ______ ____
ROOT
ATOM      2  O   UNL     1      -1.875 -10.689  15.517  0.00  0.00    -0.273 OA
ATOM      3  O   UNL     1      -5.123 -13.306  12.299  0.00  0.00    -0.270 OA
ATOM      7  N   UNL     1      -4.530 -12.090  14.158  0.00  0.00    -0.284 N 
ATOM      9  N   UNL     1      -2.281 -10.399  13.294  0.00  0.00    -0.283 N 
ATOM     10  C   UNL     1      -4.566 -11.040  16.277  0.00  0.00    +0.104 C 
ATOM     11  C   UNL     1      -4.174 -10.840  14.806  0.00  0.00    +0.183 C 
ATOM     12  C   UNL     1      -4.475 -12.555  16.468  0.00  0.00    +0.043 C 
ATOM     13  C   UNL     1      -4.922 -13.107  15.122  0.00  0.00    +0.111 C 
ATOM     14  C   UNL     1      -2.682 -10.677  14.585  0.00  0.00    +0.240 C 
ATOM     15  C   UNL     1      -4.662 -12.280  12.799  0.00  0.00    +0.249 C 
ATOM     16  C   UNL     1      -4.199 -11.199  11.891  0.00  0.00    +0.059 A 
ATOM     17  C   UNL     1      -3.053 -10.417  12.111  0.00  0.00    +0.046 A 
ATOM     19  C   UNL     1      -4.883 -11.095  10.666  0.00  0.00    +0.023 A 
ATOM     20  C   UNL     1      -2.580  -9.598  11.070  0.00  0.00    +0.024 A 
ATOM     21  C   UNL     1      -4.425 -10.241   9.663  0.00  0.00    -0.014 A 
ATOM     23  C   UNL     1      -3.267  -9.502   9.860  0.00  0.00    +0.010 A 
ATOM     34  H   UNL     1      -1.329 -10.059  13.197  0.00  0.00    +0.155 HD
ENDROOT
BRANCH  21  24
ATOM     24  C   UNL     1      -5.144 -10.143   8.410  0.00  0.00    +0.024 A 
ATOM     25  C   UNL     1      -6.204  -9.249   8.259  0.00  0.00    +0.131 A 
ATOM     26  C   UNL     1      -4.763 -10.958   7.342  0.00  0.00    +0.016 A 
ATOM     27  C   UNL     1      -6.884  -9.169   7.043  0.00  0.00    +0.091 A 
ATOM     28  C   UNL     1      -5.443 -10.878   6.126  0.00  0.00    +0.046 A 
ATOM     30  C   UNL     1      -6.504  -9.984   5.977  0.00  0.00    +0.124 A 
BRANCH  25   5
ATOM      5  O   UNL     1      -6.598  -8.440   9.284  0.00  0.00    -0.494 OA
ATOM     31  C   UNL     1      -7.948  -8.563   9.724  0.00  0.00    +0.277 C 
ENDBRANCH  25   5
BRANCH  30   6
ATOM      6  O   UNL     1      -7.166  -9.907   4.791  0.00  0.00    -0.495 OA
ATOM     32  C   UNL     1      -7.684  -8.631   4.417  0.00  0.00    +0.277 C 
ENDBRANCH  30   6
ENDBRANCH  21  24
BRANCH  10   8
ATOM      4  O   UNL     1      -5.766 -10.433  18.840  0.00  0.00    -0.275 OA
ATOM      8  N   UNL     1      -5.907 -10.562  16.523  0.00  0.00    -0.309 N 
ATOM     18  C   UNL     1      -6.396 -10.297  17.792  0.00  0.00    +0.223 C 
ATOM     33  H   UNL     1      -6.531 -10.476  15.726  0.00  0.00    +0.149 HD
BRANCH  18  22
ATOM     22  C   UNL     1      -7.831  -9.825  17.784  0.00  0.00    +0.164 C 
BRANCH  22   1
ATOM      1  S   UNL     1      -8.343  -9.532  16.074  0.00  0.00    -0.155 S 
ATOM     29  C   UNL     1      -9.538  -8.209  16.374  0.00  0.00    +0.085 C 
ENDBRANCH  22   1
ENDBRANCH  18  22
ENDBRANCH  10   8
TORSDOF 6
ENDMDL
MODEL 4
REMARK VINA RESULT:      -6.3      5.776      8.706
REMARK  Name = 11941442
REMARK  9 active torsions:
REMARK  status: ('A' for Active; 'I' for Inactive)
REMARK    1  A    between atoms: S_1  and  C_22
REMARK    2  A    between atoms: S_1  and  C_29
REMARK    3  A    between atoms: O_5  and  C_25
REMARK    4  A    between atoms: O_5  and  C_31
REMARK    5  A    between atoms: O_6  and  C_30
REMARK    6  A    between atoms: O_6  and  C_32
REMARK    7  A    between atoms: N_8  and  C_10
REMARK    8  A    between atoms: C_18  and  C_22
REMARK    9  A    between atoms: C_21  and  C_24
REMARK                            x       y       z     vdW  Elec       q    Type
REMARK                         _______ _______ _______ _____ _____    ______ ____
ROOT
ATOM      2  O   UNL     1      21.061   7.757  23.204  0.00  0.00    -0.273 OA
ATOM      3  O   UNL     1      17.150  11.021  21.860  0.00  0.00    -0.270 OA
ATOM      7  N   UNL     1      19.290  10.178  21.841  0.00  0.00    -0.284 N 
ATOM      9  N   UNL     1      18.994   7.297  22.365  0.00  0.00    -0.283 N 
ATOM     10  C   UNL     1      21.614   9.923  21.487  0.00  0.00    +0.104 C 
ATOM     11  C   UNL     1      20.268   9.187  21.432  0.00  0.00    +0.183 C 
ATOM     12  C   UNL     1      21.382  11.012  22.535  0.00  0.00    +0.043 C 
ATOM     13  C   UNL     1      19.924  11.393  22.330  0.00  0.00    +0.111 C 
ATOM     14  C   UNL     1      20.145   8.055  22.435  0.00  0.00    +0.240 C 
ATOM     15  C   UNL     1      17.928  10.090  21.648  0.00  0.00    +0.249 C 
ATOM     16  C   UNL     1      17.368   8.795  21.182  0.00  0.00    +0.059 A 
ATOM     17  C   UNL     1      17.829   7.536  21.603  0.00  0.00    +0.046 A 
ATOM     19  C   UNL     1      16.199   8.878  20.403  0.00  0.00    +0.023 A 
ATOM     20  C   UNL     1      17.070   6.395  21.288  0.00  0.00    +0.024 A 
ATOM     21  C   UNL     1      15.485   7.731  20.061  0.00  0.00    -0.014 A 
ATOM     23  C   UNL     1      15.913   6.490  20.514  0.00  0.00    +0.010 A 
ATOM     34  H   UNL     1      19.023   6.413  22.865  0.00  0.00    +0.155 HD
ENDROOT
BRANCH  21  24
ATOM     24  C   UNL     1      14.287   7.835  19.256  0.00  0.00    +0.024 A 
ATOM     25  C   UNL     1      13.047   8.091  19.845  0.00  0.00    +0.131 A 
ATOM     26  C   UNL     1      14.380   7.678  17.872  0.00  0.00    +0.016 A 
ATOM     27  C   UNL     1      11.904   8.189  19.052  0.00  0.00    +0.091 A 
ATOM     28  C   UNL     1      13.237   7.776  17.079  0.00  0.00    +0.046 A 
ATOM     30  C   UNL     1      11.998   8.031  17.669  0.00  0.00    +0.124 A 
BRANCH  25   5
ATOM      5  O   UNL     1      12.925   8.250  21.193  0.00  0.00    -0.494 OA
ATOM     31  C   UNL     1      11.930   9.163  21.650  0.00  0.00    +0.277 C 
ENDBRANCH  25   5
BRANCH  30   6
ATOM      6  O   UNL     1      10.884   8.126  16.894  0.00  0.00    -0.495 OA
ATOM     32  C   UNL     1      10.907   9.081  15.835  0.00  0.00    +0.277 C 
ENDBRANCH  30   6
ENDBRANCH  21  24
BRANCH  10   8
ATOM      4  O   UNL     1      22.959   8.618  19.281  0.00  0.00    -0.275 OA
ATOM      8  N   UNL     1      21.943  10.495  20.202  0.00  0.00    -0.309 N 
ATOM     18  C   UNL     1      22.592   9.789  19.202  0.00  0.00    +0.223 C 
ATOM     33  H   UNL     1      21.738  11.480  20.058  0.00  0.00    +0.149 HD
BRANCH  18  22
ATOM     22  C   UNL     1      22.836  10.616  17.962  0.00  0.00    +0.164 C 
BRANCH  22   1
ATOM      1  S   UNL     1      24.576  10.465  17.490  0.00  0.00    -0.155 S 
ATOM     29  C   UNL     1      24.447  11.065  15.789  0.00  0.00    +0.085 C 
ENDBRANCH  22   1
ENDBRANCH  18  22
ENDBRANCH  10   8
TORSDOF 6
ENDMDL
MODEL 5
REMARK VINA RESULT:      -6.3     17.752     22.782
REMARK  Name = 11941442
REMARK  9 active torsions:
REMARK  status: ('A' for Active; 'I' for Inactive)
REMARK    1  A    between atoms: S_1  and  C_22
REMARK    2  A    between atoms: S_1  and  C_29
REMARK    3  A    between atoms: O_5  and  C_25
REMARK    4  A    between atoms: O_5  and  C_31
REMARK    5  A    between atoms: O_6  and  C_30
REMARK    6  A    between atoms: O_6  and  C_32
REMARK    7  A    between atoms: N_8  and  C_10
REMARK    8  A    between atoms: C_18  and  C_22
REMARK    9  A    between atoms: C_21  and  C_24
REMARK                            x       y       z     vdW  Elec       q    Type
REMARK                         _______ _______ _______ _____ _____    ______ ____
ROOT
ATOM      2  O   UNL     1      11.507   6.300  -2.329  0.00  0.00    -0.273 OA
ATOM      3  O   UNL     1      12.562   3.021   1.658  0.00  0.00    -0.270 OA
ATOM      7  N   UNL     1      13.042   4.512  -0.025  0.00  0.00    -0.284 N 
ATOM      9  N   UNL     1      10.685   6.266  -0.204  0.00  0.00    -0.283 N 
ATOM     10  C   UNL     1      14.193   5.818  -1.626  0.00  0.00    +0.104 C 
ATOM     11  C   UNL     1      13.088   5.861  -0.562  0.00  0.00    +0.183 C 
ATOM     12  C   UNL     1      14.207   4.354  -2.068  0.00  0.00    +0.043 C 
ATOM     13  C   UNL     1      13.876   3.598  -0.790  0.00  0.00    +0.111 C 
ATOM     14  C   UNL     1      11.703   6.122  -1.124  0.00  0.00    +0.240 C 
ATOM     15  C   UNL     1      12.438   4.138   1.156  0.00  0.00    +0.249 C 
ATOM     16  C   UNL     1      11.574   5.130   1.846  0.00  0.00    +0.059 A 
ATOM     17  C   UNL     1      10.719   6.029   1.188  0.00  0.00    +0.046 A 
ATOM     19  C   UNL     1      11.512   5.017   3.248  0.00  0.00    +0.023 A 
ATOM     20  C   UNL     1       9.775   6.746   1.944  0.00  0.00    +0.024 A 
ATOM     21  C   UNL     1      10.600   5.771   3.986  0.00  0.00    -0.014 A 
ATOM     23  C   UNL     1       9.723   6.626   3.333  0.00  0.00    +0.010 A 
ATOM     34  H   UNL     1       9.826   6.671  -0.564  0.00  0.00    +0.155 HD
ENDROOT
BRANCH  21  24
ATOM     24  C   UNL     1      10.553   5.645   5.427  0.00  0.00    +0.024 A 
ATOM     25  C   UNL     1      11.321   6.475   6.245  0.00  0.00    +0.131 A 
ATOM     26  C   UNL     1       9.724   4.678   5.999  0.00  0.00    +0.016 A 
ATOM     27  C   UNL     1      11.261   6.338   7.632  0.00  0.00    +0.091 A 
ATOM     28  C   UNL     1       9.665   4.541   7.386  0.00  0.00    +0.046 A 
ATOM     30  C   UNL     1      10.433   5.371   8.203  0.00  0.00    +0.124 A 
BRANCH  25   5
ATOM      5  O   UNL     1      12.139   7.428   5.715  0.00  0.00    -0.494 OA
ATOM     31  C   UNL     1      13.535   7.301   5.975  0.00  0.00    +0.277 C 
ENDBRANCH  25   5
BRANCH  30   6
ATOM      6  O   UNL     1      10.375   5.236   9.556  0.00  0.00    -0.495 OA
ATOM     32  C   UNL     1       9.194   4.649  10.100  0.00  0.00    +0.277 C 
ENDBRANCH  30   6
ENDBRANCH  21  24
BRANCH  10   8
ATOM      4  O   UNL     1      15.207   8.507  -1.277  0.00  0.00    -0.275 OA
ATOM      8  N   UNL     1      15.466   6.207  -1.064  0.00  0.00    -0.309 N 
ATOM     18  C   UNL     1      15.867   7.526  -0.936  0.00  0.00    +0.223 C 
ATOM     33  H   UNL     1      16.115   5.467  -0.808  0.00  0.00    +0.149 HD
BRANCH  18  22
ATOM     22  C   UNL     1      17.246   7.668  -0.336  0.00  0.00    +0.164 C 
BRANCH  22   1
ATOM      1  S   UNL     1      17.169   8.835   1.043  0.00  0.00    -0.155 S 
ATOM     29  C   UNL     1      16.118   7.868   2.154  0.00  0.00    +0.085 C 
ENDBRANCH  22   1
ENDBRANCH  18  22
ENDBRANCH  10   8
TORSDOF 6
ENDMDL
MODEL 6
REMARK VINA RESULT:      -6.1     28.561     31.862
REMARK  Name = 11941442
REMARK  9 active torsions:
REMARK  status: ('A' for Active; 'I' for Inactive)
REMARK    1  A    between atoms: S_1  and  C_22
REMARK    2  A    between atoms: S_1  and  C_29
REMARK    3  A    between atoms: O_5  and  C_25
REMARK    4  A    between atoms: O_5  and  C_31
REMARK    5  A    between atoms: O_6  and  C_30
REMARK    6  A    between atoms: O_6  and  C_32
REMARK    7  A    between atoms: N_8  and  C_10
REMARK    8  A    between atoms: C_18  and  C_22
REMARK    9  A    between atoms: C_21  and  C_24
REMARK                            x       y       z     vdW  Elec       q    Type
REMARK                         _______ _______ _______ _____ _____    ______ ____
ROOT
ATOM      2  O   UNL     1       5.320   7.473  -3.654  0.00  0.00    -0.273 OA
ATOM      3  O   UNL     1       4.258   4.845  -8.095  0.00  0.00    -0.270 OA
ATOM      7  N   UNL     1       5.490   5.451  -6.251  0.00  0.00    -0.284 N 
ATOM      9  N   UNL     1       3.509   6.206  -4.208  0.00  0.00    -0.283 N 
ATOM     10  C   UNL     1       7.257   5.714  -4.701  0.00  0.00    +0.104 C 
ATOM     11  C   UNL     1       5.758   5.411  -4.824  0.00  0.00    +0.183 C 
ATOM     12  C   UNL     1       7.557   6.543  -5.951  0.00  0.00    +0.043 C 
ATOM     13  C   UNL     1       6.636   5.942  -7.002  0.00  0.00    +0.111 C 
ATOM     14  C   UNL     1       4.863   6.473  -4.212  0.00  0.00    +0.240 C 
ATOM     15  C   UNL     1       4.372   4.938  -6.873  0.00  0.00    +0.249 C 
ATOM     16  C   UNL     1       3.236   4.497  -6.022  0.00  0.00    +0.059 A 
ATOM     17  C   UNL     1       2.819   5.157  -4.855  0.00  0.00    +0.046 A 
ATOM     19  C   UNL     1       2.454   3.449  -6.541  0.00  0.00    +0.023 A 
ATOM     20  C   UNL     1       1.591   4.794  -4.272  0.00  0.00    +0.024 A 
ATOM     21  C   UNL     1       1.263   3.072  -5.923  0.00  0.00    -0.014 A 
ATOM     23  C   UNL     1       0.825   3.753  -4.795  0.00  0.00    +0.010 A 
ATOM     34  H   UNL     1       2.951   6.793  -3.595  0.00  0.00    +0.155 HD
ENDROOT
BRANCH  21  24
ATOM     24  C   UNL     1       0.473   1.989  -6.469  0.00  0.00    +0.024 A 
ATOM     25  C   UNL     1       0.288   0.805  -5.753  0.00  0.00    +0.131 A 
ATOM     26  C   UNL     1      -0.110   2.139  -7.728  0.00  0.00    +0.016 A 
ATOM     27  C   UNL     1      -0.477  -0.228  -6.296  0.00  0.00    +0.091 A 
ATOM     28  C   UNL     1      -0.875   1.106  -8.271  0.00  0.00    +0.046 A 
ATOM     30  C   UNL     1      -1.058  -0.077  -7.555  0.00  0.00    +0.124 A 
BRANCH  25   5
ATOM      5  O   UNL     1       0.844   0.630  -4.520  0.00  0.00    -0.494 OA
ATOM     31  C   UNL     1       2.070  -0.095  -4.460  0.00  0.00    +0.277 C 
ENDBRANCH  25   5
BRANCH  30   6
ATOM      6  O   UNL     1      -1.805  -1.084  -8.085  0.00  0.00    -0.495 OA
ATOM     32  C   UNL     1      -2.388  -2.012  -7.172  0.00  0.00    +0.277 C 
ENDBRANCH  30   6
ENDBRANCH  21  24
BRANCH  10   8
ATOM      4  O   UNL     1       9.326   4.978  -2.816  0.00  0.00    -0.275 OA
ATOM      8  N   UNL     1       8.031   4.495  -4.685  0.00  0.00    -0.309 N 
ATOM     18  C   UNL     1       9.006   4.228  -3.738  0.00  0.00    +0.223 C 
ATOM     33  H   UNL     1       7.887   3.834  -5.444  0.00  0.00    +0.149 HD
BRANCH  18  22
ATOM     22  C   UNL     1       9.684   2.895  -3.948  0.00  0.00    +0.164 C 
BRANCH  22   1
ATOM      1  S   UNL     1      11.476   3.142  -3.952  0.00  0.00    -0.155 S 
ATOM     29  C   UNL     1      11.616   4.071  -5.497  0.00  0.00    +0.085 C 
ENDBRANCH  22   1
ENDBRANCH  18  22
ENDBRANCH  10   8
TORSDOF 6
ENDMDL
MODEL 7
REMARK VINA RESULT:      -6.0     18.272     23.408
REMARK  Name = 11941442
REMARK  9 active torsions:
REMARK  status: ('A' for Active; 'I' for Inactive)
REMARK    1  A    between atoms: S_1  and  C_22
REMARK    2  A    between atoms: S_1  and  C_29
REMARK    3  A    between atoms: O_5  and  C_25
REMARK    4  A    between atoms: O_5  and  C_31
REMARK    5  A    between atoms: O_6  and  C_30
REMARK    6  A    between atoms: O_6  and  C_32
REMARK    7  A    between atoms: N_8  and  C_10
REMARK    8  A    between atoms: C_18  and  C_22
REMARK    9  A    between atoms: C_21  and  C_24
REMARK                            x       y       z     vdW  Elec       q    Type
REMARK                         _______ _______ _______ _____ _____    ______ ____
ROOT
ATOM      2  O   UNL     1      10.388   7.550  -2.332  0.00  0.00    -0.273 OA
ATOM      3  O   UNL     1       9.975   3.626   1.159  0.00  0.00    -0.270 OA
ATOM      7  N   UNL     1      10.968   4.876  -0.495  0.00  0.00    -0.284 N 
ATOM      9  N   UNL     1       9.984   7.620  -0.092  0.00  0.00    -0.283 N 
ATOM     10  C   UNL     1      12.421   5.600  -2.215  0.00  0.00    +0.104 C 
ATOM     11  C   UNL     1      11.682   6.056  -0.950  0.00  0.00    +0.183 C 
ATOM     12  C   UNL     1      11.559   4.449  -2.737  0.00  0.00    +0.043 C 
ATOM     13  C   UNL     1      11.041   3.794  -1.465  0.00  0.00    +0.111 C 
ATOM     14  C   UNL     1      10.614   7.104  -1.205  0.00  0.00    +0.240 C 
ATOM     15  C   UNL     1      10.426   4.699   0.759  0.00  0.00    +0.249 C 
ATOM     16  C   UNL     1      10.361   5.874   1.667  0.00  0.00    +0.059 A 
ATOM     17  C   UNL     1      10.069   7.183   1.248  0.00  0.00    +0.046 A 
ATOM     19  C   UNL     1      10.437   5.589   3.043  0.00  0.00    +0.023 A 
ATOM     20  C   UNL     1       9.795   8.161   2.221  0.00  0.00    +0.024 A 
ATOM     21  C   UNL     1      10.208   6.583   3.993  0.00  0.00    -0.014 A 
ATOM     23  C   UNL     1       9.874   7.867   3.582  0.00  0.00    +0.010 A 
ATOM     34  H   UNL     1       9.455   8.474  -0.247  0.00  0.00    +0.155 HD
ENDROOT
BRANCH  21  24
ATOM     24  C   UNL     1      10.295   6.273   5.404  0.00  0.00    +0.024 A 
ATOM     25  C   UNL     1      11.480   6.478   6.112  0.00  0.00    +0.131 A 
ATOM     26  C   UNL     1       9.172   5.762   6.059  0.00  0.00    +0.016 A 
ATOM     27  C   UNL     1      11.543   6.173   7.472  0.00  0.00    +0.091 A 
ATOM     28  C   UNL     1       9.236   5.457   7.419  0.00  0.00    +0.046 A 
ATOM     30  C   UNL     1      10.422   5.663   8.125  0.00  0.00    +0.124 A 
BRANCH  25   5
ATOM      5  O   UNL     1      12.592   6.976   5.499  0.00  0.00    -0.494 OA
ATOM     31  C   UNL     1      13.613   7.506   6.341  0.00  0.00    +0.277 C 
ENDBRANCH  25   5
BRANCH  30   6
ATOM      6  O   UNL     1      10.483   5.365   9.451  0.00  0.00    -0.495 OA
ATOM     32  C   UNL     1       9.384   4.645  10.007  0.00  0.00    +0.277 C 
ENDBRANCH  30   6
ENDBRANCH  21  24
BRANCH  10   8
ATOM      4  O   UNL     1      14.790   5.861  -3.858  0.00  0.00    -0.275 OA
ATOM      8  N   UNL     1      13.757   5.152  -1.900  0.00  0.00    -0.309 N 
ATOM     18  C   UNL     1      14.835   5.321  -2.753  0.00  0.00    +0.223 C 
ATOM     33  H   UNL     1      13.889   4.636  -1.034  0.00  0.00    +0.149 HD
BRANCH  18  22
ATOM     22  C   UNL     1      16.120   4.750  -2.200  0.00  0.00    +0.164 C 
BRANCH  22   1
ATOM      1  S   UNL     1      16.062   4.817  -0.394  0.00  0.00    -0.155 S 
ATOM     29  C   UNL     1      16.681   6.501  -0.167  0.00  0.00    +0.085 C 
ENDBRANCH  22   1
ENDBRANCH  18  22
ENDBRANCH  10   8
TORSDOF 6
ENDMDL
MODEL 8
REMARK VINA RESULT:      -6.0     28.943     30.666
REMARK  Name = 11941442
REMARK  9 active torsions:
REMARK  status: ('A' for Active; 'I' for Inactive)
REMARK    1  A    between atoms: S_1  and  C_22
REMARK    2  A    between atoms: S_1  and  C_29
REMARK    3  A    between atoms: O_5  and  C_25
REMARK    4  A    between atoms: O_5  and  C_31
REMARK    5  A    between atoms: O_6  and  C_30
REMARK    6  A    between atoms: O_6  and  C_32
REMARK    7  A    between atoms: N_8  and  C_10
REMARK    8  A    between atoms: C_18  and  C_22
REMARK    9  A    between atoms: C_21  and  C_24
REMARK                            x       y       z     vdW  Elec       q    Type
REMARK                         _______ _______ _______ _____ _____    ______ ____
ROOT
ATOM      2  O   UNL     1      -3.836 -11.528  19.099  0.00  0.00    -0.273 OA
ATOM      3  O   UNL     1      -6.393 -13.725  15.050  0.00  0.00    -0.270 OA
ATOM      7  N   UNL     1      -6.149 -12.420  16.928  0.00  0.00    -0.284 N 
ATOM      9  N   UNL     1      -3.356 -11.495  16.872  0.00  0.00    -0.283 N 
ATOM     10  C   UNL     1      -6.605 -11.079  18.821  0.00  0.00    +0.104 C 
ATOM     11  C   UNL     1      -5.694 -11.213  17.594  0.00  0.00    +0.183 C 
ATOM     12  C   UNL     1      -7.024 -12.520  19.114  0.00  0.00    +0.043 C 
ATOM     13  C   UNL     1      -7.122 -13.146  17.731  0.00  0.00    +0.111 C 
ATOM     14  C   UNL     1      -4.236 -11.462  17.934  0.00  0.00    +0.240 C 
ATOM     15  C   UNL     1      -5.857 -12.781  15.630  0.00  0.00    +0.249 C 
ATOM     16  C   UNL     1      -4.821 -12.002  14.903  0.00  0.00    +0.059 A 
ATOM     17  C   UNL     1      -3.646 -11.505  15.490  0.00  0.00    +0.046 A 
ATOM     19  C   UNL     1      -4.983 -11.924  13.507  0.00  0.00    +0.023 A 
ATOM     20  C   UNL     1      -2.632 -11.000  14.657  0.00  0.00    +0.024 A 
ATOM     21  C   UNL     1      -3.986 -11.376  12.701  0.00  0.00    -0.014 A 
ATOM     23  C   UNL     1      -2.804 -10.926  13.275  0.00  0.00    +0.010 A 
ATOM     34  H   UNL     1      -2.373 -11.421  17.119  0.00  0.00    +0.155 HD
ENDROOT
BRANCH  21  24
ATOM     24  C   UNL     1      -4.171 -11.299  11.268  0.00  0.00    +0.024 A 
ATOM     25  C   UNL     1      -4.635 -10.128  10.667  0.00  0.00    +0.131 A 
ATOM     26  C   UNL     1      -3.880 -12.416  10.483  0.00  0.00    +0.016 A 
ATOM     27  C   UNL     1      -4.806 -10.073   9.283  0.00  0.00    +0.091 A 
ATOM     28  C   UNL     1      -4.052 -12.362   9.099  0.00  0.00    +0.046 A 
ATOM     30  C   UNL     1      -4.516 -11.190   8.500  0.00  0.00    +0.124 A 
BRANCH  25   5
ATOM      5  O   UNL     1      -4.927  -9.021  11.408  0.00  0.00    -0.494 OA
ATOM     31  C   UNL     1      -6.287  -8.842  11.794  0.00  0.00    +0.277 C 
ENDBRANCH  25   5
BRANCH  30   6
ATOM      6  O   UNL     1      -4.683 -11.138   7.150  0.00  0.00    -0.495 OA
ATOM     32  C   UNL     1      -5.787 -10.378   6.661  0.00  0.00    +0.277 C 
ENDBRANCH  30   6
ENDBRANCH  21  24
BRANCH  10   8
ATOM      4  O   UNL     1      -6.868  -9.152  16.678  0.00  0.00    -0.275 OA
ATOM      8  N   UNL     1      -7.751 -10.251  18.526  0.00  0.00    -0.309 N 
ATOM     18  C   UNL     1      -7.785  -9.352  17.472  0.00  0.00    +0.223 C 
ATOM     33  H   UNL     1      -8.542 -10.295  19.163  0.00  0.00    +0.149 HD
BRANCH  18  22
ATOM     22  C   UNL     1      -9.089  -8.594  17.386  0.00  0.00    +0.164 C 
BRANCH  22   1
ATOM      1  S   UNL     1      -9.649  -8.583  15.666  0.00  0.00    -0.155 S 
ATOM     29  C   UNL     1     -10.368  -6.924  15.628  0.00  0.00    +0.085 C 
ENDBRANCH  22   1
ENDBRANCH  18  22
ENDBRANCH  10   8
TORSDOF 6
ENDMDL
MODEL 9
REMARK VINA RESULT:      -6.0     30.436     32.505
REMARK  Name = 11941442
REMARK  9 active torsions:
REMARK  status: ('A' for Active; 'I' for Inactive)
REMARK    1  A    between atoms: S_1  and  C_22
REMARK    2  A    between atoms: S_1  and  C_29
REMARK    3  A    between atoms: O_5  and  C_25
REMARK    4  A    between atoms: O_5  and  C_31
REMARK    5  A    between atoms: O_6  and  C_30
REMARK    6  A    between atoms: O_6  and  C_32
REMARK    7  A    between atoms: N_8  and  C_10
REMARK    8  A    between atoms: C_18  and  C_22
REMARK    9  A    between atoms: C_21  and  C_24
REMARK                            x       y       z     vdW  Elec       q    Type
REMARK                         _______ _______ _______ _____ _____    ______ ____
ROOT
ATOM      2  O   UNL     1     -13.954  -4.268  13.074  0.00  0.00    -0.273 OA
ATOM      3  O   UNL     1     -12.618  -9.362  13.243  0.00  0.00    -0.270 OA
ATOM      7  N   UNL     1     -12.739  -7.245  12.353  0.00  0.00    -0.284 N 
ATOM      9  N   UNL     1     -12.818  -5.432  14.669  0.00  0.00    -0.283 N 
ATOM     10  C   UNL     1     -12.634  -5.412  10.862  0.00  0.00    +0.104 C 
ATOM     11  C   UNL     1     -12.316  -5.857  12.296  0.00  0.00    +0.183 C 
ATOM     12  C   UNL     1     -13.788  -6.328  10.451  0.00  0.00    +0.043 C 
ATOM     13  C   UNL     1     -13.464  -7.638  11.154  0.00  0.00    +0.111 C 
ATOM     14  C   UNL     1     -13.130  -5.140  13.357  0.00  0.00    +0.240 C 
ATOM     15  C   UNL     1     -12.374  -8.158  13.319  0.00  0.00    +0.249 C 
ATOM     16  C   UNL     1     -11.669  -7.655  14.527  0.00  0.00    +0.059 A 
ATOM     17  C   UNL     1     -11.963  -6.439  15.166  0.00  0.00    +0.046 A 
ATOM     19  C   UNL     1     -10.775  -8.557  15.133  0.00  0.00    +0.023 A 
ATOM     20  C   UNL     1     -11.404  -6.186  16.432  0.00  0.00    +0.024 A 
ATOM     21  C   UNL     1     -10.194  -8.267  16.367  0.00  0.00    -0.014 A 
ATOM     23  C   UNL     1     -10.518  -7.087  17.022  0.00  0.00    +0.010 A 
ATOM     34  H   UNL     1     -13.190  -4.786  15.360  0.00  0.00    +0.155 HD
ENDROOT
BRANCH  21  24
ATOM     24  C   UNL     1      -9.273  -9.205  16.973  0.00  0.00    +0.024 A 
ATOM     25  C   UNL     1      -9.724 -10.170  17.875  0.00  0.00    +0.131 A 
ATOM     26  C   UNL     1      -7.918  -9.138  16.646  0.00  0.00    +0.016 A 
ATOM     27  C   UNL     1      -8.821 -11.066  18.449  0.00  0.00    +0.091 A 
ATOM     28  C   UNL     1      -7.015 -10.033  17.220  0.00  0.00    +0.046 A 
ATOM     30  C   UNL     1      -7.467 -10.997  18.122  0.00  0.00    +0.124 A 
BRANCH  25   5
ATOM      5  O   UNL     1     -11.041 -10.261  18.214  0.00  0.00    -0.494 OA
ATOM     31  C   UNL     1     -11.367 -10.114  19.594  0.00  0.00    +0.277 C 
ENDBRANCH  25   5
BRANCH  30   6
ATOM      6  O   UNL     1      -6.586 -11.870  18.681  0.00  0.00    -0.495 OA
ATOM     32  C   UNL     1      -5.197 -11.602  18.493  0.00  0.00    +0.277 C 
ENDBRANCH  30   6
ENDBRANCH  21  24
BRANCH  10   8
ATOM      4  O   UNL     1     -11.124  -3.354   9.498  0.00  0.00    -0.275 OA
ATOM      8  N   UNL     1     -11.490  -5.594  10.000  0.00  0.00    -0.309 N 
ATOM     18  C   UNL     1     -10.828  -4.543   9.386  0.00  0.00    +0.223 C 
ATOM     33  H   UNL     1     -11.202  -6.546   9.792  0.00  0.00    +0.149 HD
BRANCH  18  22
ATOM     22  C   UNL     1      -9.676  -4.996   8.521  0.00  0.00    +0.164 C 
BRANCH  22   1
ATOM      1  S   UNL     1      -9.573  -6.801   8.579  0.00  0.00    -0.155 S 
ATOM     29  C   UNL     1      -7.826  -6.985   8.150  0.00  0.00    +0.085 C 
ENDBRANCH  22   1
ENDBRANCH  18  22
ENDBRANCH  10   8
TORSDOF 6
ENDMDL
MODEL 10
REMARK VINA RESULT:      -6.0     17.007     21.120
REMARK  Name = 11941442
REMARK  9 active torsions:
REMARK  status: ('A' for Active; 'I' for Inactive)
REMARK    1  A    between atoms: S_1  and  C_22
REMARK    2  A    between atoms: S_1  and  C_29
REMARK    3  A    between atoms: O_5  and  C_25
REMARK    4  A    between atoms: O_5  and  C_31
REMARK    5  A    between atoms: O_6  and  C_30
REMARK    6  A    between atoms: O_6  and  C_32
REMARK    7  A    between atoms: N_8  and  C_10
REMARK    8  A    between atoms: C_18  and  C_22
REMARK    9  A    between atoms: C_21  and  C_24
REMARK                            x       y       z     vdW  Elec       q    Type
REMARK                         _______ _______ _______ _____ _____    ______ ____
ROOT
ATOM      2  O   UNL     1      10.139   5.233   7.711  0.00  0.00    -0.273 OA
ATOM      3  O   UNL     1       8.082   7.714   3.544  0.00  0.00    -0.270 OA
ATOM      7  N   UNL     1       9.294   7.513   5.487  0.00  0.00    -0.284 N 
ATOM      9  N   UNL     1      10.301   4.748   5.491  0.00  0.00    -0.283 N 
ATOM     10  C   UNL     1      10.522   8.013   7.445  0.00  0.00    +0.104 C 
ATOM     11  C   UNL     1      10.478   7.095   6.216  0.00  0.00    +0.183 C 
ATOM     12  C   UNL     1       9.056   8.391   7.662  0.00  0.00    +0.043 C 
ATOM     13  C   UNL     1       8.500   8.467   6.248  0.00  0.00    +0.111 C 
ATOM     14  C   UNL     1      10.254   5.631   6.550  0.00  0.00    +0.240 C 
ATOM     15  C   UNL     1       9.010   7.207   4.173  0.00  0.00    +0.249 C 
ATOM     16  C   UNL     1       9.854   6.192   3.492  0.00  0.00    +0.059 A 
ATOM     17  C   UNL     1      10.354   5.034   4.109  0.00  0.00    +0.046 A 
ATOM     19  C   UNL     1      10.000   6.353   2.101  0.00  0.00    +0.023 A 
ATOM     20  C   UNL     1      10.930   4.032   3.307  0.00  0.00    +0.024 A 
ATOM     21  C   UNL     1      10.617   5.369   1.329  0.00  0.00    -0.014 A 
ATOM     23  C   UNL     1      11.071   4.203   1.930  0.00  0.00    +0.010 A 
ATOM     34  H   UNL     1      10.390   3.768   5.745  0.00  0.00    +0.155 HD
ENDROOT
BRANCH  21  24
ATOM     24  C   UNL     1      10.762   5.553  -0.099  0.00  0.00    +0.024 A 
ATOM     25  C   UNL     1      11.971   5.987  -0.647  0.00  0.00    +0.131 A 
ATOM     26  C   UNL     1       9.675   5.290  -0.934  0.00  0.00    +0.016 A 
ATOM     27  C   UNL     1      12.092   6.157  -2.027  0.00  0.00    +0.091 A 
ATOM     28  C   UNL     1       9.795   5.461  -2.313  0.00  0.00    +0.046 A 
ATOM     30  C   UNL     1      11.004   5.895  -2.859  0.00  0.00    +0.124 A 
BRANCH  25   5
ATOM      5  O   UNL     1      13.050   6.251   0.143  0.00  0.00    -0.494 OA
ATOM     31  C   UNL     1      13.315   7.619   0.441  0.00  0.00    +0.277 C 
ENDBRANCH  25   5
BRANCH  30   6
ATOM      6  O   UNL     1      11.121   6.062  -4.205  0.00  0.00    -0.495 OA
ATOM     32  C   UNL     1      10.924   4.909  -5.022  0.00  0.00    +0.277 C 
ENDBRANCH  30   6
ENDBRANCH  21  24
BRANCH  10   8
ATOM      4  O   UNL     1      13.401   8.122   7.158  0.00  0.00    -0.275 OA
ATOM      8  N   UNL     1      11.331   9.181   7.188  0.00  0.00    -0.309 N 
ATOM     18  C   UNL     1      12.710   9.137   7.065  0.00  0.00    +0.223 C 
ATOM     33  H   UNL     1      10.862  10.082   7.156  0.00  0.00    +0.149 HD
BRANCH  18  22
ATOM     22  C   UNL     1      13.324  10.494   6.815  0.00  0.00    +0.164 C 
BRANCH  22   1
ATOM      1  S   UNL     1      15.083  10.285   6.451  0.00  0.00    -0.155 S 
ATOM     29  C   UNL     1      15.071  10.852   4.733  0.00  0.00    +0.085 C 
ENDBRANCH  22   1
ENDBRANCH  18  22
ENDBRANCH  10   8
TORSDOF 6
ENDMDL
