REMARK  Name = 71693033
REMARK  10 active torsions:
REMARK  status: ('A' for Active; 'I' for Inactive)
REMARK    1  A    between atoms: N_2  and  C_12
REMARK    2  A    between atoms: C_5  and  C_9
REMARK    3  A    between atoms: C_6  and  C_12
REMARK    4  A    between atoms: C_8  and  C_13
REMARK    5  A    between atoms: C_9  and  C_14
REMARK    6  A    between atoms: C_9  and  C_15
REMARK    7  A    between atoms: C_10  and  C_16
REMARK    8  A    between atoms: C_13  and  C_17
REMARK    9  A    between atoms: C_18  and  C_22
REMARK   10  A    between atoms: C_24  and  C_28
REMARK                            x       y       z     vdW  Elec       q    Type
REMARK                         _______ _______ _______ _____ _____    ______ ____
ROOT
ATOM      5  C   UNL     1       0.824   1.989  -0.757  0.00  0.00    +0.000 C 
ATOM      6  C   UNL     1       2.006   2.716  -0.068  0.00  0.00    +0.032 C 
ATOM      7  C   UNL     1      -0.487   2.265  -0.005  0.00  0.00    +0.012 C 
ATOM      8  C   UNL     1      -0.423   1.808   1.464  0.00  0.00    +0.022 C 
ATOM     10  C   UNL     1       0.854   2.263   2.141  0.00  0.00    -0.073 C 
ATOM     11  C   UNL     1       1.924   2.679   1.440  0.00  0.00    -0.022 C 
ATOM     16  C   UNL     1       0.857   2.274   3.644  0.00  0.00    +0.039 C 
ENDROOT
BRANCH   5   9
ATOM      9  C   UNL     1       0.678   2.406  -2.224  0.00  0.00    -0.013 C 
ATOM     14  C   UNL     1      -0.031   1.314  -3.019  0.00  0.00    +0.007 C 
ATOM     15  C   UNL     1      -0.075   3.728  -2.329  0.00  0.00    +0.007 C 
ENDBRANCH   5   9
BRANCH   6  12
ATOM     12  C   UNL     1       3.351   2.137  -0.521  0.00  0.00    +0.112 C 
BRANCH  12   2
ATOM      1  O   UNL     1       3.717  -0.176  -2.183  0.00  0.00    -0.270 OA
ATOM      2  N   UNL     1       3.495   0.784  -0.082  0.00  0.00    -0.311 N 
ATOM     18  C   UNL     1       3.670  -0.284  -0.960  0.00  0.00    +0.244 C 
ATOM     32  H   UNL     1       3.458   0.619   0.918  0.00  0.00    +0.149 HD
BRANCH  18  22
ATOM     22  C   UNL     1       3.778  -1.633  -0.347  0.00  0.00    +0.037 A 
ATOM     26  C   UNL     1       3.398  -2.762  -1.072  0.00  0.00    +0.013 A 
ATOM     27  C   UNL     1       4.262  -1.770   0.955  0.00  0.00    +0.013 A 
ATOM     29  C   UNL     1       3.501  -4.028  -0.496  0.00  0.00    +0.001 A 
ATOM     30  C   UNL     1       4.365  -3.036   1.531  0.00  0.00    +0.001 A 
ATOM     31  C   UNL     1       3.985  -4.165   0.805  0.00  0.00    +0.000 A 
ENDBRANCH  18  22
ENDBRANCH  12   2
ENDBRANCH   6  12
BRANCH   8  13
ATOM     13  C   UNL     1      -0.592   0.288   1.577  0.00  0.00    +0.082 C 
BRANCH  13  17
ATOM      3  N   UNL     1      -3.078   0.008   1.560  0.00  0.00    -0.342 N 
ATOM      4  N   UNL     1      -2.002  -0.766  -0.224  0.00  0.00    -0.232 NA
ATOM     17  C   UNL     1      -1.872  -0.170   0.941  0.00  0.00    +0.109 A 
ATOM     19  C   UNL     1      -4.050  -0.507   0.741  0.00  0.00    +0.066 A 
ATOM     20  C   UNL     1      -3.353  -0.984  -0.365  0.00  0.00    +0.089 A 
ATOM     21  C   UNL     1      -5.436  -0.594   0.870  0.00  0.00    +0.031 A 
ATOM     23  C   UNL     1      -4.065  -1.587  -1.416  0.00  0.00    +0.030 A 
ATOM     24  C   UNL     1      -6.130  -1.196  -0.185  0.00  0.00    -0.048 A 
ATOM     25  C   UNL     1      -5.458  -1.685  -1.308  0.00  0.00    +0.005 A 
ATOM     28  C   UNL     1      -7.616  -1.319  -0.107  0.00  0.00    +0.044 C 
ATOM     33  H   UNL     1      -3.228   0.443   2.461  0.00  0.00    +0.167 HD
ENDBRANCH  13  17
ENDBRANCH   8  13
TORSDOF 6
