MODEL 1
REMARK VINA RESULT:      -8.5      0.000      0.000
REMARK  Name = 11879606
REMARK  7 active torsions:
REMARK  status: ('A' for Active; 'I' for Inactive)
REMARK    1  A    between atoms: O_3  and  C_18
REMARK    2  A    between atoms: O_3  and  C_21
REMARK    3  A    between atoms: N_6  and  C_14
REMARK    4  A    between atoms: N_7  and  C_15
REMARK    5  A    between atoms: N_11  and  C_24
REMARK    6  A    between atoms: C_19  and  C_20
REMARK    7  A    between atoms: C_33  and  C_36
REMARK                            x       y       z     vdW  Elec       q    Type
REMARK                         _______ _______ _______ _____ _____    ______ ____
ROOT
ATOM      1  O   UNL     1      13.053   7.214  17.526  0.00  0.00    -0.370 OA
ATOM      2  O   UNL     1      13.299   8.938  20.145  0.00  0.00    -0.370 OA
ATOM     12  C   UNL     1      13.844   9.056  18.818  0.00  0.00    +0.176 C 
ATOM     13  C   UNL     1      14.156   7.652  18.336  0.00  0.00    +0.171 C 
ATOM     14  C   UNL     1      12.776   9.561  17.866  0.00  0.00    +0.171 C 
ATOM     15  C   UNL     1      14.234   6.830  19.603  0.00  0.00    +0.130 C 
ATOM     16  C   UNL     1      12.100   8.278  17.396  0.00  0.00    +0.190 C 
ATOM     17  C   UNL     1      13.264   7.553  20.518  0.00  0.00    +0.185 C 
ENDROOT
BRANCH  14   6
ATOM      6  N   UNL     1      13.327  10.400  16.799  0.00  0.00    -0.187 N 
ATOM      8  N   UNL     1      13.167  10.068  15.515  0.00  0.00    -0.041 NA
ATOM      9  N   UNL     1      14.328  11.964  15.692  0.00  0.00    -0.071 NA
ATOM     10  N   UNL     1      13.781  11.031  14.839  0.00  0.00    -0.020 NA
ATOM     18  C   UNL     1      14.032  11.550  16.903  0.00  0.00    +0.342 A 
BRANCH  18   3
ATOM      3  O   UNL     1      14.358  12.139  18.038  0.00  0.00    -0.423 OA
BRANCH   3  21
ATOM     21  C   UNL     1      13.481  12.960  18.734  0.00  0.00    +0.134 A 
ATOM     24  C   UNL     1      12.057  13.334  20.620  0.00  0.00    +0.033 A 
ATOM     25  C   UNL     1      12.937  12.508  19.921  0.00  0.00    +0.069 A 
ATOM     28  C   UNL     1      13.180  14.207  18.220  0.00  0.00    +0.046 A 
ATOM     34  C   UNL     1      11.738  14.596  20.120  0.00  0.00    +0.023 A 
ATOM     35  C   UNL     1      12.300  15.032  18.921  0.00  0.00    +0.005 A 
BRANCH  24  11
ATOM      5  O   UNL     1      10.124  11.990  24.104  0.00  0.00    -0.377 OA
ATOM     11  N   UNL     1      11.494  12.895  21.824  0.00  0.00    -0.325 N 
ATOM     26  C   UNL     1      11.368  11.459  22.090  0.00  0.00    +0.133 C 
ATOM     27  C   UNL     1      10.479  13.742  22.464  0.00  0.00    +0.133 C 
ATOM     31  C   UNL     1      11.212  11.225  23.589  0.00  0.00    +0.178 C 
ATOM     32  C   UNL     1      10.371  13.387  23.943  0.00  0.00    +0.178 C 
ENDBRANCH  24  11
ENDBRANCH   3  21
ENDBRANCH  18   3
ENDBRANCH  14   6
BRANCH  15   7
ATOM      4  O   UNL     1      16.547   5.539  18.494  0.00  0.00    -0.270 OA
ATOM      7  N   UNL     1      15.570   6.837  20.149  0.00  0.00    -0.304 N 
ATOM     19  C   UNL     1      16.630   6.181  19.539  0.00  0.00    +0.244 C 
ATOM     37  H   UNL     1      15.686   7.249  21.068  0.00  0.00    +0.149 HD
BRANCH  19  20
ATOM     20  C   UNL     1      17.936   6.262  20.240  0.00  0.00    +0.037 A 
ATOM     22  C   UNL     1      18.096   7.195  21.244  0.00  0.00    +0.013 A 
ATOM     23  C   UNL     1      18.947   5.403  19.866  0.00  0.00    +0.013 A 
ATOM     29  C   UNL     1      19.322   7.270  21.904  0.00  0.00    +0.004 A 
ATOM     30  C   UNL     1      20.175   5.478  20.525  0.00  0.00    +0.004 A 
ATOM     33  C   UNL     1      20.362   6.411  21.544  0.00  0.00    -0.050 A 
ATOM     36  C   UNL     1      21.674   6.493  22.249  0.00  0.00    +0.044 C 
ENDBRANCH  19  20
ENDBRANCH  15   7
TORSDOF 6
ENDMDL
MODEL 2
REMARK VINA RESULT:      -7.7      2.594      4.086
REMARK  Name = 11879606
REMARK  7 active torsions:
REMARK  status: ('A' for Active; 'I' for Inactive)
REMARK    1  A    between atoms: O_3  and  C_18
REMARK    2  A    between atoms: O_3  and  C_21
REMARK    3  A    between atoms: N_6  and  C_14
REMARK    4  A    between atoms: N_7  and  C_15
REMARK    5  A    between atoms: N_11  and  C_24
REMARK    6  A    between atoms: C_19  and  C_20
REMARK    7  A    between atoms: C_33  and  C_36
REMARK                            x       y       z     vdW  Elec       q    Type
REMARK                         _______ _______ _______ _____ _____    ______ ____
ROOT
ATOM      1  O   UNL     1      12.597   8.381  18.789  0.00  0.00    -0.370 OA
ATOM      2  O   UNL     1      12.835   7.819  21.874  0.00  0.00    -0.370 OA
ATOM     12  C   UNL     1      13.184   8.934  21.033  0.00  0.00    +0.176 C 
ATOM     13  C   UNL     1      13.689   8.363  19.722  0.00  0.00    +0.171 C 
ATOM     14  C   UNL     1      11.934   9.708  20.660  0.00  0.00    +0.171 C 
ATOM     15  C   UNL     1      14.071   6.939  20.055  0.00  0.00    +0.130 C 
ATOM     16  C   UNL     1      11.455   9.000  19.398  0.00  0.00    +0.190 C 
ATOM     17  C   UNL     1      13.101   6.597  21.171  0.00  0.00    +0.185 C 
ENDROOT
BRANCH  14   6
ATOM      6  N   UNL     1      12.188  11.143  20.508  0.00  0.00    -0.187 N 
ATOM      8  N   UNL     1      12.993  11.599  19.545  0.00  0.00    -0.041 NA
ATOM      9  N   UNL     1      12.192  13.290  20.757  0.00  0.00    -0.071 NA
ATOM     10  N   UNL     1      12.992  12.917  19.700  0.00  0.00    -0.020 NA
ATOM     18  C   UNL     1      11.703  12.172  21.242  0.00  0.00    +0.342 A 
BRANCH  18   3
ATOM      3  O   UNL     1      10.882  12.050  22.268  0.00  0.00    -0.423 OA
BRANCH   3  21
ATOM     21  C   UNL     1      11.059  12.748  23.455  0.00  0.00    +0.134 A 
ATOM     24  C   UNL     1      12.322  13.147  25.448  0.00  0.00    +0.033 A 
ATOM     25  C   UNL     1      12.143  12.444  24.256  0.00  0.00    +0.069 A 
ATOM     28  C   UNL     1      10.147  13.727  23.799  0.00  0.00    +0.046 A 
ATOM     34  C   UNL     1      11.413  14.139  25.816  0.00  0.00    +0.023 A 
ATOM     35  C   UNL     1      10.326  14.429  24.992  0.00  0.00    +0.005 A 
BRANCH  24  11
ATOM      5  O   UNL     1      15.760  12.420  27.756  0.00  0.00    -0.377 OA
ATOM     11  N   UNL     1      13.412  12.856  26.274  0.00  0.00    -0.325 N 
ATOM     26  C   UNL     1      13.833  13.820  27.296  0.00  0.00    +0.133 C 
ATOM     27  C   UNL     1      14.485  12.009  25.734  0.00  0.00    +0.133 C 
ATOM     31  C   UNL     1      14.668  13.113  28.358  0.00  0.00    +0.178 C 
ATOM     32  C   UNL     1      15.285  11.398  26.879  0.00  0.00    +0.178 C 
ENDBRANCH  24  11
ENDBRANCH   3  21
ENDBRANCH  18   3
ENDBRANCH  14   6
BRANCH  15   7
ATOM      4  O   UNL     1      16.310   5.920  18.574  0.00  0.00    -0.270 OA
ATOM      7  N   UNL     1      15.438   6.856  20.508  0.00  0.00    -0.304 N 
ATOM     19  C   UNL     1      16.458   6.346  19.717  0.00  0.00    +0.244 C 
ATOM     37  H   UNL     1      15.612   7.082  21.482  0.00  0.00    +0.149 HD
BRANCH  19  20
ATOM     20  C   UNL     1      17.806   6.306  20.340  0.00  0.00    +0.037 A 
ATOM     22  C   UNL     1      18.733   5.405  19.861  0.00  0.00    +0.013 A 
ATOM     23  C   UNL     1      18.087   7.172  21.376  0.00  0.00    +0.013 A 
ATOM     29  C   UNL     1      20.000   5.368  20.444  0.00  0.00    +0.004 A 
ATOM     30  C   UNL     1      19.353   7.134  21.960  0.00  0.00    +0.004 A 
ATOM     33  C   UNL     1      20.310   6.233  21.494  0.00  0.00    -0.050 A 
ATOM     36  C   UNL     1      21.664   6.192  22.118  0.00  0.00    +0.044 C 
ENDBRANCH  19  20
ENDBRANCH  15   7
TORSDOF 6
ENDMDL
MODEL 3
REMARK VINA RESULT:      -7.6      1.118      1.666
REMARK  Name = 11879606
REMARK  7 active torsions:
REMARK  status: ('A' for Active; 'I' for Inactive)
REMARK    1  A    between atoms: O_3  and  C_18
REMARK    2  A    between atoms: O_3  and  C_21
REMARK    3  A    between atoms: N_6  and  C_14
REMARK    4  A    between atoms: N_7  and  C_15
REMARK    5  A    between atoms: N_11  and  C_24
REMARK    6  A    between atoms: C_19  and  C_20
REMARK    7  A    between atoms: C_33  and  C_36
REMARK                            x       y       z     vdW  Elec       q    Type
REMARK                         _______ _______ _______ _____ _____    ______ ____
ROOT
ATOM      1  O   UNL     1      13.196   7.357  17.178  0.00  0.00    -0.370 OA
ATOM      2  O   UNL     1      13.564   9.191  19.706  0.00  0.00    -0.370 OA
ATOM     12  C   UNL     1      14.163   9.164  18.398  0.00  0.00    +0.176 C 
ATOM     13  C   UNL     1      14.316   7.706  18.007  0.00  0.00    +0.171 C 
ATOM     14  C   UNL     1      13.197   9.736  17.377  0.00  0.00    +0.171 C 
ATOM     15  C   UNL     1      14.251   6.958  19.319  0.00  0.00    +0.130 C 
ATOM     16  C   UNL     1      12.385   8.518  16.951  0.00  0.00    +0.190 C 
ATOM     17  C   UNL     1      13.346   7.845  20.153  0.00  0.00    +0.185 C 
ENDROOT
BRANCH  14   6
ATOM      6  N   UNL     1      13.882  10.437  16.288  0.00  0.00    -0.187 N 
ATOM      8  N   UNL     1      14.322   9.774  15.215  0.00  0.00    -0.041 NA
ATOM      9  N   UNL     1      14.793  11.946  15.037  0.00  0.00    -0.071 NA
ATOM     10  N   UNL     1      14.879  10.704  14.450  0.00  0.00    -0.020 NA
ATOM     18  C   UNL     1      14.169  11.755  16.177  0.00  0.00    +0.342 A 
BRANCH  18   3
ATOM      3  O   UNL     1      13.867  12.675  17.074  0.00  0.00    -0.423 OA
BRANCH   3  21
ATOM     21  C   UNL     1      14.313  12.615  18.387  0.00  0.00    +0.134 A 
ATOM     24  C   UNL     1      13.837  12.574  20.732  0.00  0.00    +0.033 A 
ATOM     25  C   UNL     1      13.387  12.636  19.412  0.00  0.00    +0.069 A 
ATOM     28  C   UNL     1      15.671  12.535  18.630  0.00  0.00    +0.046 A 
ATOM     34  C   UNL     1      15.203  12.492  21.000  0.00  0.00    +0.023 A 
ATOM     35  C   UNL     1      16.119  12.473  19.950  0.00  0.00    +0.005 A 
BRANCH  24  11
ATOM      5  O   UNL     1      10.933  12.834  23.761  0.00  0.00    -0.377 OA
ATOM     11  N   UNL     1      12.916  12.593  21.785  0.00  0.00    -0.325 N 
ATOM     26  C   UNL     1      11.664  11.836  21.674  0.00  0.00    +0.133 C 
ATOM     27  C   UNL     1      12.847  13.796  22.624  0.00  0.00    +0.133 C 
ATOM     31  C   UNL     1      11.082  11.598  23.064  0.00  0.00    +0.178 C 
ATOM     32  C   UNL     1      12.203  13.454  23.963  0.00  0.00    +0.178 C 
ENDBRANCH  24  11
ENDBRANCH   3  21
ENDBRANCH  18   3
ENDBRANCH  14   6
BRANCH  15   7
ATOM      4  O   UNL     1      16.549   5.673  18.172  0.00  0.00    -0.270 OA
ATOM      7  N   UNL     1      15.558   6.836  19.917  0.00  0.00    -0.304 N 
ATOM     19  C   UNL     1      16.613   6.194  19.283  0.00  0.00    +0.244 C 
ATOM     37  H   UNL     1      15.652   7.141  20.880  0.00  0.00    +0.149 HD
BRANCH  19  20
ATOM     20  C   UNL     1      17.888   6.132  20.043  0.00  0.00    +0.037 A 
ATOM     22  C   UNL     1      18.793   5.135  19.744  0.00  0.00    +0.013 A 
ATOM     23  C   UNL     1      18.125   7.073  21.022  0.00  0.00    +0.013 A 
ATOM     29  C   UNL     1      19.991   5.077  20.456  0.00  0.00    +0.004 A 
ATOM     30  C   UNL     1      19.323   7.015  21.735  0.00  0.00    +0.004 A 
ATOM     33  C   UNL     1      20.256   6.018  21.452  0.00  0.00    -0.050 A 
ATOM     36  C   UNL     1      21.537   5.955  22.215  0.00  0.00    +0.044 C 
ENDBRANCH  19  20
ENDBRANCH  15   7
TORSDOF 6
ENDMDL
MODEL 4
REMARK VINA RESULT:      -7.6     27.483     30.051
REMARK  Name = 11879606
REMARK  7 active torsions:
REMARK  status: ('A' for Active; 'I' for Inactive)
REMARK    1  A    between atoms: O_3  and  C_18
REMARK    2  A    between atoms: O_3  and  C_21
REMARK    3  A    between atoms: N_6  and  C_14
REMARK    4  A    between atoms: N_7  and  C_15
REMARK    5  A    between atoms: N_11  and  C_24
REMARK    6  A    between atoms: C_19  and  C_20
REMARK    7  A    between atoms: C_33  and  C_36
REMARK                            x       y       z     vdW  Elec       q    Type
REMARK                         _______ _______ _______ _____ _____    ______ ____
ROOT
ATOM      1  O   UNL     1      -4.906 -10.774  18.337  0.00  0.00    -0.370 OA
ATOM      2  O   UNL     1      -6.515 -12.094  15.979  0.00  0.00    -0.370 OA
ATOM     12  C   UNL     1      -5.487 -11.088  16.046  0.00  0.00    +0.176 C 
ATOM     13  C   UNL     1      -5.749 -10.263  17.292  0.00  0.00    +0.171 C 
ATOM     14  C   UNL     1      -4.141 -11.742  16.293  0.00  0.00    +0.171 C 
ATOM     15  C   UNL     1      -7.202 -10.526  17.616  0.00  0.00    +0.130 C 
ATOM     16  C   UNL     1      -4.068 -11.814  17.814  0.00  0.00    +0.190 C 
ATOM     17  C   UNL     1      -7.400 -11.938  17.097  0.00  0.00    +0.185 C 
ENDROOT
BRANCH  14   6
ATOM      6  N   UNL     1      -3.040 -11.020  15.651  0.00  0.00    -0.187 N 
ATOM      8  N   UNL     1      -2.049 -10.496  16.378  0.00  0.00    -0.041 NA
ATOM      9  N   UNL     1      -1.725 -10.090  14.210  0.00  0.00    -0.071 NA
ATOM     10  N   UNL     1      -1.244  -9.927  15.489  0.00  0.00    -0.020 NA
ATOM     18  C   UNL     1      -2.841 -10.772  14.336  0.00  0.00    +0.342 A 
BRANCH  18   3
ATOM      3  O   UNL     1      -3.644 -11.157  13.362  0.00  0.00    -0.423 OA
BRANCH   3  21
ATOM     21  C   UNL     1      -3.807 -10.426  12.194  0.00  0.00    +0.134 A 
ATOM     24  C   UNL     1      -5.248  -9.380  10.595  0.00  0.00    +0.033 A 
ATOM     25  C   UNL     1      -5.085 -10.117  11.768  0.00  0.00    +0.069 A 
ATOM     28  C   UNL     1      -2.686 -10.026  11.491  0.00  0.00    +0.046 A 
ATOM     34  C   UNL     1      -4.130  -8.967   9.870  0.00  0.00    +0.023 A 
ATOM     35  C   UNL     1      -2.850  -9.290  10.318  0.00  0.00    +0.005 A 
BRANCH  24  11
ATOM      5  O   UNL     1      -9.107  -8.192   9.424  0.00  0.00    -0.377 OA
ATOM     11  N   UNL     1      -6.533  -9.057  10.146  0.00  0.00    -0.325 N 
ATOM     26  C   UNL     1      -6.708  -8.046   9.097  0.00  0.00    +0.133 C 
ATOM     27  C   UNL     1      -7.648  -9.172  11.095  0.00  0.00    +0.133 C 
ATOM     31  C   UNL     1      -8.073  -8.217   8.441  0.00  0.00    +0.178 C 
ATOM     32  C   UNL     1      -8.964  -9.283  10.332  0.00  0.00    +0.178 C 
ENDBRANCH  24  11
ENDBRANCH   3  21
ENDBRANCH  18   3
ENDBRANCH  14   6
BRANCH  15   7
ATOM      4  O   UNL     1      -9.888  -9.823  18.350  0.00  0.00    -0.270 OA
ATOM      7  N   UNL     1      -8.066  -9.594  16.933  0.00  0.00    -0.304 N 
ATOM     19  C   UNL     1      -9.356  -9.317  17.365  0.00  0.00    +0.244 C 
ATOM     37  H   UNL     1      -7.735  -9.227  16.047  0.00  0.00    +0.149 HD
BRANCH  19  20
ATOM     20  C   UNL     1     -10.126  -8.353  16.538  0.00  0.00    +0.037 A 
ATOM     22  C   UNL     1     -10.460  -8.703  15.247  0.00  0.00    +0.013 A 
ATOM     23  C   UNL     1     -10.483  -7.140  17.089  0.00  0.00    +0.013 A 
ATOM     29  C   UNL     1     -11.186  -7.799  14.470  0.00  0.00    +0.004 A 
ATOM     30  C   UNL     1     -11.207  -6.235  16.312  0.00  0.00    +0.004 A 
ATOM     33  C   UNL     1     -11.559  -6.564  15.004  0.00  0.00    -0.050 A 
ATOM     36  C   UNL     1     -12.333  -5.597  14.173  0.00  0.00    +0.044 C 
ENDBRANCH  19  20
ENDBRANCH  15   7
TORSDOF 6
ENDMDL
MODEL 5
REMARK VINA RESULT:      -7.5     13.720     17.017
REMARK  Name = 11879606
REMARK  7 active torsions:
REMARK  status: ('A' for Active; 'I' for Inactive)
REMARK    1  A    between atoms: O_3  and  C_18
REMARK    2  A    between atoms: O_3  and  C_21
REMARK    3  A    between atoms: N_6  and  C_14
REMARK    4  A    between atoms: N_7  and  C_15
REMARK    5  A    between atoms: N_11  and  C_24
REMARK    6  A    between atoms: C_19  and  C_20
REMARK    7  A    between atoms: C_33  and  C_36
REMARK                            x       y       z     vdW  Elec       q    Type
REMARK                         _______ _______ _______ _____ _____    ______ ____
ROOT
ATOM      1  O   UNL     1      12.336   9.197   7.226  0.00  0.00    -0.370 OA
ATOM      2  O   UNL     1      13.071   9.146   4.168  0.00  0.00    -0.370 OA
ATOM     12  C   UNL     1      12.780   8.126   5.142  0.00  0.00    +0.176 C 
ATOM     13  C   UNL     1      13.382   8.580   6.458  0.00  0.00    +0.171 C 
ATOM     14  C   UNL     1      11.286   8.072   5.400  0.00  0.00    +0.171 C 
ATOM     15  C   UNL     1      14.418   9.608   6.062  0.00  0.00    +0.130 C 
ATOM     16  C   UNL     1      11.093   9.091   6.517  0.00  0.00    +0.190 C 
ATOM     17  C   UNL     1      13.822  10.195   4.796  0.00  0.00    +0.185 C 
ENDROOT
BRANCH  14   6
ATOM      6  N   UNL     1      10.818   6.719   5.707  0.00  0.00    -0.187 N 
ATOM      8  N   UNL     1      10.640   6.325   6.971  0.00  0.00    -0.041 NA
ATOM      9  N   UNL     1      10.135   4.673   5.561  0.00  0.00    -0.071 NA
ATOM     10  N   UNL     1      10.220   5.070   6.877  0.00  0.00    -0.020 NA
ATOM     18  C   UNL     1      10.511   5.714   4.853  0.00  0.00    +0.342 A 
BRANCH  18   3
ATOM      3  O   UNL     1      10.585   5.787   3.538  0.00  0.00    -0.423 OA
BRANCH   3  21
ATOM     21  C   UNL     1      11.586   5.160   2.809  0.00  0.00    +0.134 A 
ATOM     24  C   UNL     1      13.695   5.261   1.682  0.00  0.00    +0.033 A 
ATOM     25  C   UNL     1      12.689   5.893   2.413  0.00  0.00    +0.069 A 
ATOM     28  C   UNL     1      11.451   3.820   2.501  0.00  0.00    +0.046 A 
ATOM     34  C   UNL     1      13.579   3.909   1.361  0.00  0.00    +0.023 A 
ATOM     35  C   UNL     1      12.458   3.189   1.770  0.00  0.00    +0.005 A 
BRANCH  24  11
ATOM      5  O   UNL     1      17.216   7.319   0.660  0.00  0.00    -0.377 OA
ATOM     11  N   UNL     1      14.820   5.985   1.272  0.00  0.00    -0.325 N 
ATOM     26  C   UNL     1      15.819   5.352   0.405  0.00  0.00    +0.133 C 
ATOM     27  C   UNL     1      15.339   7.026   2.168  0.00  0.00    +0.133 C 
ATOM     31  C   UNL     1      16.647   6.425  -0.295  0.00  0.00    +0.178 C 
ATOM     32  C   UNL     1      16.191   8.010   1.375  0.00  0.00    +0.178 C 
ENDBRANCH  24  11
ENDBRANCH   3  21
ENDBRANCH  18   3
ENDBRANCH  14   6
BRANCH  15   7
ATOM      4  O   UNL     1      17.007  10.781   6.467  0.00  0.00    -0.270 OA
ATOM      7  N   UNL     1      15.694   8.990   5.800  0.00  0.00    -0.304 N 
ATOM     19  C   UNL     1      16.899   9.638   6.029  0.00  0.00    +0.244 C 
ATOM     37  H   UNL     1      15.680   8.091   5.329  0.00  0.00    +0.149 HD
BRANCH  19  20
ATOM     20  C   UNL     1      18.126   8.875   5.684  0.00  0.00    +0.037 A 
ATOM     22  C   UNL     1      19.107   8.724   6.641  0.00  0.00    +0.013 A 
ATOM     23  C   UNL     1      18.243   8.340   4.418  0.00  0.00    +0.013 A 
ATOM     29  C   UNL     1      20.258   8.005   6.318  0.00  0.00    +0.004 A 
ATOM     30  C   UNL     1      19.394   7.622   4.094  0.00  0.00    +0.004 A 
ATOM     33  C   UNL     1      20.401   7.454   5.044  0.00  0.00    -0.050 A 
ATOM     36  C   UNL     1      21.633   6.687   4.698  0.00  0.00    +0.044 C 
ENDBRANCH  19  20
ENDBRANCH  15   7
TORSDOF 6
ENDMDL
MODEL 6
REMARK VINA RESULT:      -7.4      2.949      4.193
REMARK  Name = 11879606
REMARK  7 active torsions:
REMARK  status: ('A' for Active; 'I' for Inactive)
REMARK    1  A    between atoms: O_3  and  C_18
REMARK    2  A    between atoms: O_3  and  C_21
REMARK    3  A    between atoms: N_6  and  C_14
REMARK    4  A    between atoms: N_7  and  C_15
REMARK    5  A    between atoms: N_11  and  C_24
REMARK    6  A    between atoms: C_19  and  C_20
REMARK    7  A    between atoms: C_33  and  C_36
REMARK                            x       y       z     vdW  Elec       q    Type
REMARK                         _______ _______ _______ _____ _____    ______ ____
ROOT
ATOM      1  O   UNL     1      13.190   7.396  17.348  0.00  0.00    -0.370 OA
ATOM      2  O   UNL     1      13.603   9.320  19.802  0.00  0.00    -0.370 OA
ATOM     12  C   UNL     1      14.180   9.244  18.485  0.00  0.00    +0.176 C 
ATOM     13  C   UNL     1      14.325   7.773  18.145  0.00  0.00    +0.171 C 
ATOM     14  C   UNL     1      13.199   9.781  17.461  0.00  0.00    +0.171 C 
ATOM     15  C   UNL     1      14.280   7.073  19.485  0.00  0.00    +0.130 C 
ATOM     16  C   UNL     1      12.378   8.550  17.093  0.00  0.00    +0.190 C 
ATOM     17  C   UNL     1      13.391   7.992  20.301  0.00  0.00    +0.185 C 
ENDROOT
BRANCH  14   6
ATOM      6  N   UNL     1      13.866  10.441  16.336  0.00  0.00    -0.187 N 
ATOM      8  N   UNL     1      14.016   9.816  15.165  0.00  0.00    -0.041 NA
ATOM      9  N   UNL     1      14.900  11.861  15.076  0.00  0.00    -0.071 NA
ATOM     10  N   UNL     1      14.649  10.691  14.395  0.00  0.00    -0.020 NA
ATOM     18  C   UNL     1      14.404  11.682  16.279  0.00  0.00    +0.342 A 
BRANCH  18   3
ATOM      3  O   UNL     1      14.419  12.548  17.275  0.00  0.00    -0.423 OA
BRANCH   3  21
ATOM     21  C   UNL     1      15.592  13.106  17.763  0.00  0.00    +0.134 A 
ATOM     24  C   UNL     1      17.576  12.916  19.088  0.00  0.00    +0.033 A 
ATOM     25  C   UNL     1      16.396  12.355  18.599  0.00  0.00    +0.069 A 
ATOM     28  C   UNL     1      15.923  14.397  17.398  0.00  0.00    +0.046 A 
ATOM     34  C   UNL     1      17.929  14.218  18.732  0.00  0.00    +0.023 A 
ATOM     35  C   UNL     1      17.103  14.958  17.888  0.00  0.00    +0.005 A 
BRANCH  24  11
ATOM      5  O   UNL     1      20.034  10.464  21.460  0.00  0.00    -0.377 OA
ATOM     11  N   UNL     1      18.405  12.172  19.935  0.00  0.00    -0.325 N 
ATOM     26  C   UNL     1      19.835  12.050  19.635  0.00  0.00    +0.133 C 
ATOM     27  C   UNL     1      17.818  11.034  20.656  0.00  0.00    +0.133 C 
ATOM     31  C   UNL     1      20.593  11.649  20.896  0.00  0.00    +0.178 C 
ATOM     32  C   UNL     1      18.683  10.689  21.863  0.00  0.00    +0.178 C 
ENDBRANCH  24  11
ENDBRANCH   3  21
ENDBRANCH  18   3
ENDBRANCH  14   6
BRANCH  15   7
ATOM      4  O   UNL     1      16.516   5.618  18.420  0.00  0.00    -0.270 OA
ATOM      7  N   UNL     1      15.597   6.970  20.065  0.00  0.00    -0.304 N 
ATOM     19  C   UNL     1      16.619   6.241  19.475  0.00  0.00    +0.244 C 
ATOM     37  H   UNL     1      15.720   7.363  20.992  0.00  0.00    +0.149 HD
BRANCH  19  20
ATOM     20  C   UNL     1      17.909   6.213  20.211  0.00  0.00    +0.037 A 
ATOM     22  C   UNL     1      18.903   5.360  19.781  0.00  0.00    +0.013 A 
ATOM     23  C   UNL     1      18.070   7.043  21.301  0.00  0.00    +0.013 A 
ATOM     29  C   UNL     1      20.115   5.335  20.471  0.00  0.00    +0.004 A 
ATOM     30  C   UNL     1      19.282   7.018  21.992  0.00  0.00    +0.004 A 
ATOM     33  C   UNL     1      20.304   6.165  21.577  0.00  0.00    -0.050 A 
ATOM     36  C   UNL     1      21.599   6.137  22.317  0.00  0.00    +0.044 C 
ENDBRANCH  19  20
ENDBRANCH  15   7
TORSDOF 6
ENDMDL
MODEL 7
REMARK VINA RESULT:      -7.3     27.585     29.899
REMARK  Name = 11879606
REMARK  7 active torsions:
REMARK  status: ('A' for Active; 'I' for Inactive)
REMARK    1  A    between atoms: O_3  and  C_18
REMARK    2  A    between atoms: O_3  and  C_21
REMARK    3  A    between atoms: N_6  and  C_14
REMARK    4  A    between atoms: N_7  and  C_15
REMARK    5  A    between atoms: N_11  and  C_24
REMARK    6  A    between atoms: C_19  and  C_20
REMARK    7  A    between atoms: C_33  and  C_36
REMARK                            x       y       z     vdW  Elec       q    Type
REMARK                         _______ _______ _______ _____ _____    ______ ____
ROOT
ATOM      1  O   UNL     1      -4.450 -12.963  17.595  0.00  0.00    -0.370 OA
ATOM      2  O   UNL     1      -3.834  -9.922  17.081  0.00  0.00    -0.370 OA
ATOM     12  C   UNL     1      -5.046 -10.682  17.236  0.00  0.00    +0.176 C 
ATOM     13  C   UNL     1      -4.820 -12.026  16.570  0.00  0.00    +0.171 C 
ATOM     14  C   UNL     1      -5.265 -11.009  18.701  0.00  0.00    +0.171 C 
ATOM     15  C   UNL     1      -3.657 -11.788  15.634  0.00  0.00    +0.130 C 
ATOM     16  C   UNL     1      -4.508 -12.320  18.877  0.00  0.00    +0.190 C 
ATOM     17  C   UNL     1      -2.877 -10.705  16.355  0.00  0.00    +0.185 C 
ENDROOT
BRANCH  14   6
ATOM      6  N   UNL     1      -6.685 -11.060  19.059  0.00  0.00    -0.187 N 
ATOM      8  N   UNL     1      -7.142 -11.969  19.924  0.00  0.00    -0.041 NA
ATOM      9  N   UNL     1      -8.807 -10.675  19.202  0.00  0.00    -0.071 NA
ATOM     10  N   UNL     1      -8.444 -11.728  20.010  0.00  0.00    -0.020 NA
ATOM     18  C   UNL     1      -7.698 -10.276  18.622  0.00  0.00    +0.342 A 
BRANCH  18   3
ATOM      3  O   UNL     1      -7.572  -9.286  17.759  0.00  0.00    -0.423 OA
BRANCH   3  21
ATOM     21  C   UNL     1      -8.263  -9.250  16.556  0.00  0.00    +0.134 A 
ATOM     24  C   UNL     1     -10.082  -8.419  15.242  0.00  0.00    +0.033 A 
ATOM     25  C   UNL     1      -9.389  -8.456  16.452  0.00  0.00    +0.069 A 
ATOM     28  C   UNL     1      -7.803 -10.008  15.496  0.00  0.00    +0.046 A 
ATOM     34  C   UNL     1      -9.636  -9.176  14.159  0.00  0.00    +0.023 A 
ATOM     35  C   UNL     1      -8.497  -9.970  14.286  0.00  0.00    +0.005 A 
BRANCH  24  11
ATOM      5  O   UNL     1     -13.539  -6.027  15.139  0.00  0.00    -0.377 OA
ATOM     11  N   UNL     1     -11.225  -7.622  15.115  0.00  0.00    -0.325 N 
ATOM     26  C   UNL     1     -11.120  -6.166  15.259  0.00  0.00    +0.133 C 
ATOM     27  C   UNL     1     -12.519  -8.196  15.507  0.00  0.00    +0.133 C 
ATOM     31  C   UNL     1     -12.325  -5.495  14.609  0.00  0.00    +0.178 C 
ATOM     32  C   UNL     1     -13.650  -7.419  14.843  0.00  0.00    +0.178 C 
ENDBRANCH  24  11
ENDBRANCH   3  21
ENDBRANCH  18   3
ENDBRANCH  14   6
BRANCH  15   7
ATOM      4  O   UNL     1      -2.066 -10.529  13.602  0.00  0.00    -0.270 OA
ATOM      7  N   UNL     1      -4.111 -11.333  14.342  0.00  0.00    -0.304 N 
ATOM     19  C   UNL     1      -3.264 -10.733  13.421  0.00  0.00    +0.244 C 
ATOM     37  H   UNL     1      -5.111 -11.364  14.171  0.00  0.00    +0.149 HD
BRANCH  19  20
ATOM     20  C   UNL     1      -3.891 -10.297  12.148  0.00  0.00    +0.037 A 
ATOM     22  C   UNL     1      -3.118 -10.251  11.007  0.00  0.00    +0.013 A 
ATOM     23  C   UNL     1      -5.226  -9.952  12.147  0.00  0.00    +0.013 A 
ATOM     29  C   UNL     1      -3.707  -9.843   9.810  0.00  0.00    +0.004 A 
ATOM     30  C   UNL     1      -5.816  -9.543  10.951  0.00  0.00    +0.004 A 
ATOM     33  C   UNL     1      -5.056  -9.489   9.783  0.00  0.00    -0.050 A 
ATOM     36  C   UNL     1      -5.686  -9.050   8.503  0.00  0.00    +0.044 C 
ENDBRANCH  19  20
ENDBRANCH  15   7
TORSDOF 6
ENDMDL
MODEL 8
REMARK VINA RESULT:      -7.2     13.296     16.554
REMARK  Name = 11879606
REMARK  7 active torsions:
REMARK  status: ('A' for Active; 'I' for Inactive)
REMARK    1  A    between atoms: O_3  and  C_18
REMARK    2  A    between atoms: O_3  and  C_21
REMARK    3  A    between atoms: N_6  and  C_14
REMARK    4  A    between atoms: N_7  and  C_15
REMARK    5  A    between atoms: N_11  and  C_24
REMARK    6  A    between atoms: C_19  and  C_20
REMARK    7  A    between atoms: C_33  and  C_36
REMARK                            x       y       z     vdW  Elec       q    Type
REMARK                         _______ _______ _______ _____ _____    ______ ____
ROOT
ATOM      1  O   UNL     1      12.364   9.582   7.626  0.00  0.00    -0.370 OA
ATOM      2  O   UNL     1      12.794   8.929   4.580  0.00  0.00    -0.370 OA
ATOM     12  C   UNL     1      12.640   8.122   5.761  0.00  0.00    +0.176 C 
ATOM     13  C   UNL     1      13.352   8.841   6.891  0.00  0.00    +0.171 C 
ATOM     14  C   UNL     1      11.182   8.094   6.180  0.00  0.00    +0.171 C 
ATOM     15  C   UNL     1      14.302   9.787   6.192  0.00  0.00    +0.130 C 
ATOM     16  C   UNL     1      11.062   9.313   7.087  0.00  0.00    +0.190 C 
ATOM     17  C   UNL     1      13.562  10.097   4.904  0.00  0.00    +0.185 C 
ENDROOT
BRANCH  14   6
ATOM      6  N   UNL     1      10.800   6.821   6.797  0.00  0.00    -0.187 N 
ATOM      8  N   UNL     1      11.486   6.327   7.831  0.00  0.00    -0.041 NA
ATOM      9  N   UNL     1       9.809   4.963   7.284  0.00  0.00    -0.071 NA
ATOM     10  N   UNL     1      10.874   5.187   8.127  0.00  0.00    -0.020 NA
ATOM     18  C   UNL     1       9.782   5.992   6.468  0.00  0.00    +0.342 A 
BRANCH  18   3
ATOM      3  O   UNL     1       8.922   6.199   5.488  0.00  0.00    -0.423 OA
BRANCH   3  21
ATOM     21  C   UNL     1       9.321   6.478   4.189  0.00  0.00    +0.134 A 
ATOM     24  C   UNL     1      10.679   5.960   2.288  0.00  0.00    +0.033 A 
ATOM     25  C   UNL     1      10.280   5.679   3.594  0.00  0.00    +0.069 A 
ATOM     28  C   UNL     1       8.747   7.546   3.526  0.00  0.00    +0.046 A 
ATOM     34  C   UNL     1      10.113   7.033   1.600  0.00  0.00    +0.023 A 
ATOM     35  C   UNL     1       9.147   7.826   2.219  0.00  0.00    +0.005 A 
BRANCH  24  11
ATOM      5  O   UNL     1      13.383   3.426   0.301  0.00  0.00    -0.377 OA
ATOM     11  N   UNL     1      11.648   5.164   1.667  0.00  0.00    -0.325 N 
ATOM     26  C   UNL     1      12.087   5.477   0.303  0.00  0.00    +0.133 C 
ATOM     27  C   UNL     1      11.718   3.743   2.036  0.00  0.00    +0.133 C 
ATOM     31  C   UNL     1      13.441   4.827   0.036  0.00  0.00    +0.178 C 
ATOM     32  C   UNL     1      13.092   3.186   1.678  0.00  0.00    +0.178 C 
ENDBRANCH  24  11
ENDBRANCH   3  21
ENDBRANCH  18   3
ENDBRANCH  14   6
BRANCH  15   7
ATOM      4  O   UNL     1      16.899  11.000   6.368  0.00  0.00    -0.270 OA
ATOM      7  N   UNL     1      15.570   9.152   5.926  0.00  0.00    -0.304 N 
ATOM     19  C   UNL     1      16.780   9.822   6.039  0.00  0.00    +0.244 C 
ATOM     37  H   UNL     1      15.540   8.215   5.538  0.00  0.00    +0.149 HD
BRANCH  19  20
ATOM     20  C   UNL     1      17.994   9.034   5.705  0.00  0.00    +0.037 A 
ATOM     22  C   UNL     1      18.981   8.896   6.658  0.00  0.00    +0.013 A 
ATOM     23  C   UNL     1      18.095   8.466   4.452  0.00  0.00    +0.013 A 
ATOM     29  C   UNL     1      20.120   8.154   6.346  0.00  0.00    +0.004 A 
ATOM     30  C   UNL     1      19.235   7.726   4.139  0.00  0.00    +0.004 A 
ATOM     33  C   UNL     1      20.247   7.569   5.085  0.00  0.00    -0.050 A 
ATOM     36  C   UNL     1      21.467   6.778   4.750  0.00  0.00    +0.044 C 
ENDBRANCH  19  20
ENDBRANCH  15   7
TORSDOF 6
ENDMDL
MODEL 9
REMARK VINA RESULT:      -7.2      2.949      5.647
REMARK  Name = 11879606
REMARK  7 active torsions:
REMARK  status: ('A' for Active; 'I' for Inactive)
REMARK    1  A    between atoms: O_3  and  C_18
REMARK    2  A    between atoms: O_3  and  C_21
REMARK    3  A    between atoms: N_6  and  C_14
REMARK    4  A    between atoms: N_7  and  C_15
REMARK    5  A    between atoms: N_11  and  C_24
REMARK    6  A    between atoms: C_19  and  C_20
REMARK    7  A    between atoms: C_33  and  C_36
REMARK                            x       y       z     vdW  Elec       q    Type
REMARK                         _______ _______ _______ _____ _____    ______ ____
ROOT
ATOM      1  O   UNL     1      12.672   7.208  19.504  0.00  0.00    -0.370 OA
ATOM      2  O   UNL     1      14.038   9.795  20.660  0.00  0.00    -0.370 OA
ATOM     12  C   UNL     1      14.105   9.112  19.395  0.00  0.00    +0.176 C 
ATOM     13  C   UNL     1      14.035   7.625  19.686  0.00  0.00    +0.171 C 
ATOM     14  C   UNL     1      12.856   9.404  18.585  0.00  0.00    +0.171 C 
ATOM     15  C   UNL     1      14.429   7.509  21.141  0.00  0.00    +0.130 C 
ATOM     16  C   UNL     1      11.889   8.317  19.039  0.00  0.00    +0.190 C 
ATOM     17  C   UNL     1      13.941   8.826  21.714  0.00  0.00    +0.185 C 
ENDROOT
BRANCH  14   6
ATOM      6  N   UNL     1      13.118   9.441  17.144  0.00  0.00    -0.187 N 
ATOM      8  N   UNL     1      12.904   8.366  16.381  0.00  0.00    -0.041 NA
ATOM      9  N   UNL     1      13.665  10.060  15.147  0.00  0.00    -0.071 NA
ATOM     10  N   UNL     1      13.240   8.750  15.156  0.00  0.00    -0.020 NA
ATOM     18  C   UNL     1      13.580  10.468  16.393  0.00  0.00    +0.342 A 
BRANCH  18   3
ATOM      3  O   UNL     1      13.888  11.666  16.852  0.00  0.00    -0.423 OA
BRANCH   3  21
ATOM     21  C   UNL     1      15.197  12.065  17.082  0.00  0.00    +0.134 A 
ATOM     24  C   UNL     1      17.383  12.562  16.244  0.00  0.00    +0.033 A 
ATOM     25  C   UNL     1      16.067  12.159  16.013  0.00  0.00    +0.069 A 
ATOM     28  C   UNL     1      15.592  12.358  18.373  0.00  0.00    +0.046 A 
ATOM     34  C   UNL     1      17.803  12.863  17.540  0.00  0.00    +0.023 A 
ATOM     35  C   UNL     1      16.907  12.760  18.604  0.00  0.00    +0.005 A 
BRANCH  24  11
ATOM      5  O   UNL     1      20.181  13.100  13.153  0.00  0.00    -0.377 OA
ATOM     11  N   UNL     1      18.280  12.665  15.176  0.00  0.00    -0.325 N 
ATOM     26  C   UNL     1      19.639  12.131  15.310  0.00  0.00    +0.133 C 
ATOM     27  C   UNL     1      18.145  13.808  14.263  0.00  0.00    +0.133 C 
ATOM     31  C   UNL     1      20.242  11.903  13.927  0.00  0.00    +0.178 C 
ATOM     32  C   UNL     1      18.825  13.491  12.937  0.00  0.00    +0.178 C 
ENDBRANCH  24  11
ENDBRANCH   3  21
ENDBRANCH  18   3
ENDBRANCH  14   6
BRANCH  15   7
ATOM      4  O   UNL     1      16.182   5.950  19.485  0.00  0.00    -0.270 OA
ATOM      7  N   UNL     1      15.858   7.373  21.286  0.00  0.00    -0.304 N 
ATOM     19  C   UNL     1      16.625   6.594  20.433  0.00  0.00    +0.244 C 
ATOM     37  H   UNL     1      16.274   7.783  22.116  0.00  0.00    +0.149 HD
BRANCH  19  20
ATOM     20  C   UNL     1      18.079   6.538  20.732  0.00  0.00    +0.037 A 
ATOM     22  C   UNL     1      18.844   5.556  20.140  0.00  0.00    +0.013 A 
ATOM     23  C   UNL     1      18.617   7.472  21.593  0.00  0.00    +0.013 A 
ATOM     29  C   UNL     1      20.209   5.504  20.420  0.00  0.00    +0.004 A 
ATOM     30  C   UNL     1      19.983   7.420  21.874  0.00  0.00    +0.004 A 
ATOM     33  C   UNL     1      20.779   6.437  21.287  0.00  0.00    -0.050 A 
ATOM     36  C   UNL     1      22.239   6.381  21.588  0.00  0.00    +0.044 C 
ENDBRANCH  19  20
ENDBRANCH  15   7
TORSDOF 6
ENDMDL
MODEL 10
REMARK VINA RESULT:      -7.0     27.629     30.198
REMARK  Name = 11879606
REMARK  7 active torsions:
REMARK  status: ('A' for Active; 'I' for Inactive)
REMARK    1  A    between atoms: O_3  and  C_18
REMARK    2  A    between atoms: O_3  and  C_21
REMARK    3  A    between atoms: N_6  and  C_14
REMARK    4  A    between atoms: N_7  and  C_15
REMARK    5  A    between atoms: N_11  and  C_24
REMARK    6  A    between atoms: C_19  and  C_20
REMARK    7  A    between atoms: C_33  and  C_36
REMARK                            x       y       z     vdW  Elec       q    Type
REMARK                         _______ _______ _______ _____ _____    ______ ____
ROOT
ATOM      1  O   UNL     1      -4.457 -12.925  17.644  0.00  0.00    -0.370 OA
ATOM      2  O   UNL     1      -3.819  -9.921  16.966  0.00  0.00    -0.370 OA
ATOM     12  C   UNL     1      -5.037 -10.673  17.115  0.00  0.00    +0.176 C 
ATOM     13  C   UNL     1      -4.781 -12.056  16.547  0.00  0.00    +0.171 C 
ATOM     14  C   UNL     1      -5.321 -10.908  18.587  0.00  0.00    +0.171 C 
ATOM     15  C   UNL     1      -3.578 -11.875  15.649  0.00  0.00    +0.130 C 
ATOM     16  C   UNL     1      -4.571 -12.203  18.878  0.00  0.00    +0.190 C 
ATOM     17  C   UNL     1      -2.831 -10.746  16.333  0.00  0.00    +0.185 C 
ENDROOT
BRANCH  14   6
ATOM      6  N   UNL     1      -6.755 -10.941  18.884  0.00  0.00    -0.187 N 
ATOM      8  N   UNL     1      -7.248 -11.786  19.793  0.00  0.00    -0.041 NA
ATOM      9  N   UNL     1      -8.882 -10.557  18.905  0.00  0.00    -0.071 NA
ATOM     10  N   UNL     1      -8.553 -11.547  19.804  0.00  0.00    -0.020 NA
ATOM     18  C   UNL     1      -7.749 -10.196  18.347  0.00  0.00    +0.342 A 
BRANCH  18   3
ATOM      3  O   UNL     1      -7.587  -9.270  17.420  0.00  0.00    -0.423 OA
BRANCH   3  21
ATOM     21  C   UNL     1      -8.366  -9.217  16.272  0.00  0.00    +0.134 A 
ATOM     24  C   UNL     1      -8.764  -9.892  14.012  0.00  0.00    +0.033 A 
ATOM     25  C   UNL     1      -7.980  -9.946  15.164  0.00  0.00    +0.069 A 
ATOM     28  C   UNL     1      -9.506  -8.437  16.273  0.00  0.00    +0.046 A 
ATOM     34  C   UNL     1      -9.920  -9.111  13.990  0.00  0.00    +0.023 A 
ATOM     35  C   UNL     1     -10.290  -8.384  15.120  0.00  0.00    +0.005 A 
BRANCH  24  11
ATOM      5  O   UNL     1      -7.424 -11.917  10.579  0.00  0.00    -0.377 OA
ATOM     11  N   UNL     1      -8.391 -10.623  12.878  0.00  0.00    -0.325 N 
ATOM     26  C   UNL     1      -7.393 -11.692  12.994  0.00  0.00    +0.133 C 
ATOM     27  C   UNL     1      -8.438  -9.951  11.573  0.00  0.00    +0.133 C 
ATOM     31  C   UNL     1      -7.515 -12.640  11.806  0.00  0.00    +0.178 C 
ATOM     32  C   UNL     1      -8.505 -10.991  10.460  0.00  0.00    +0.178 C 
ENDBRANCH  24  11
ENDBRANCH   3  21
ENDBRANCH  18   3
ENDBRANCH  14   6
BRANCH  15   7
ATOM      4  O   UNL     1      -1.960 -12.006  13.280  0.00  0.00    -0.270 OA
ATOM      7  N   UNL     1      -3.975 -11.503  14.312  0.00  0.00    -0.304 N 
ATOM     19  C   UNL     1      -3.119 -11.602  13.224  0.00  0.00    +0.244 C 
ATOM     37  H   UNL     1      -4.878 -11.053  14.212  0.00  0.00    +0.149 HD
BRANCH  19  20
ATOM     20  C   UNL     1      -3.671 -11.156  11.920  0.00  0.00    +0.037 A 
ATOM     22  C   UNL     1      -3.565 -11.994  10.830  0.00  0.00    +0.013 A 
ATOM     23  C   UNL     1      -4.272  -9.917  11.841  0.00  0.00    +0.013 A 
ATOM     29  C   UNL     1      -4.084 -11.575   9.605  0.00  0.00    +0.004 A 
ATOM     30  C   UNL     1      -4.790  -9.497  10.615  0.00  0.00    +0.004 A 
ATOM     33  C   UNL     1      -4.697 -10.326   9.498  0.00  0.00    -0.050 A 
ATOM     36  C   UNL     1      -5.251  -9.877   8.187  0.00  0.00    +0.044 C 
ENDBRANCH  19  20
ENDBRANCH  15   7
TORSDOF 6
ENDMDL
