REMARK  Name = 11879572
REMARK  9 active torsions:
REMARK  status: ('A' for Active; 'I' for Inactive)
REMARK    1  A    between atoms: O_3  and  C_19
REMARK    2  A    between atoms: O_3  and  C_21
REMARK    3  A    between atoms: N_5  and  C_15
REMARK    4  A    between atoms: N_6  and  C_16
REMARK    5  A    between atoms: N_10  and  C_22
REMARK    6  A    between atoms: N_11  and  C_27
REMARK    7  A    between atoms: N_11  and  C_33
REMARK    8  A    between atoms: N_11  and  C_34
REMARK    9  A    between atoms: C_30  and  C_35
REMARK                            x       y       z     vdW  Elec       q    Type
REMARK                         _______ _______ _______ _____ _____    ______ ____
ROOT
ATOM      1  O   UNL     1      -0.036  -2.231   0.706  0.00  0.00    -0.370 OA
ATOM      2  O   UNL     1      -0.457  -0.229  -1.683  0.00  0.00    -0.370 OA
ATOM     13  C   UNL     1       0.071  -0.096  -0.351  0.00  0.00    +0.176 C 
ATOM     14  C   UNL     1      -0.753  -0.996   0.550  0.00  0.00    +0.172 C 
ATOM     15  C   UNL     1       1.473  -0.673  -0.292  0.00  0.00    +0.171 C 
ATOM     16  C   UNL     1      -2.033  -1.227  -0.223  0.00  0.00    +0.131 C 
ATOM     17  C   UNL     1       1.226  -2.142   0.031  0.00  0.00    +0.190 C 
ATOM     18  C   UNL     1      -1.560  -1.146  -1.663  0.00  0.00    +0.185 C 
ENDROOT
BRANCH  16   6
ATOM      4  O   UNL     1      -4.879  -1.465  -0.444  0.00  0.00    -0.252 OA
ATOM      6  N   UNL     1      -3.009  -0.204   0.066  0.00  0.00    -0.292 N 
ATOM     10  N   UNL     1      -5.083   0.759   0.280  0.00  0.00    -0.269 N 
ATOM     20  C   UNL     1      -4.388  -0.403  -0.068  0.00  0.00    +0.304 C 
ATOM     36  H   UNL     1      -2.679   0.724   0.314  0.00  0.00    +0.151 HD
ATOM     37  H   UNL     1      -4.521   1.555   0.572  0.00  0.00    +0.156 HD
BRANCH  10  22
ATOM     22  C   UNL     1      -6.482   0.967   0.279  0.00  0.00    +0.036 A 
ATOM     25  C   UNL     1      -7.322  -0.066  -0.105  0.00  0.00    +0.042 A 
ATOM     26  C   UNL     1      -6.984   2.201   0.660  0.00  0.00    +0.023 A 
ATOM     30  C   UNL     1      -8.701   0.141  -0.108  0.00  0.00    +0.054 A 
ATOM     31  C   UNL     1      -8.363   2.407   0.657  0.00  0.00    +0.003 A 
ATOM     32  C   UNL     1      -9.222   1.377   0.273  0.00  0.00    +0.019 A 
BRANCH  30  35
ATOM     12  N   UNL     1     -10.297  -1.772  -0.820  0.00  0.00    -0.191 NA
ATOM     35  C   UNL     1      -9.581  -0.914  -0.500  0.00  0.00    +0.099 C 
ENDBRANCH  30  35
ENDBRANCH  10  22
ENDBRANCH  16   6
BRANCH  15   5
ATOM      5  N   UNL     1       2.333   0.036   0.659  0.00  0.00    -0.187 N 
ATOM      7  N   UNL     1       1.995   0.134   1.948  0.00  0.00    -0.041 NA
ATOM      8  N   UNL     1       3.936   1.164   1.569  0.00  0.00    -0.071 NA
ATOM      9  N   UNL     1       2.982   0.827   2.503  0.00  0.00    -0.020 NA
ATOM     19  C   UNL     1       3.511   0.662   0.432  0.00  0.00    +0.342 A 
BRANCH  19   3
ATOM      3  O   UNL     1       4.113   0.745  -0.739  0.00  0.00    -0.423 OA
BRANCH   3  21
ATOM     21  C   UNL     1       5.493   0.823  -0.867  0.00  0.00    +0.134 A 
ATOM     23  C   UNL     1       6.285  -0.023  -0.116  0.00  0.00    +0.069 A 
ATOM     24  C   UNL     1       6.034   1.746  -1.742  0.00  0.00    +0.046 A 
ATOM     27  C   UNL     1       7.672   0.057  -0.244  0.00  0.00    +0.033 A 
ATOM     28  C   UNL     1       7.420   1.825  -1.870  0.00  0.00    +0.005 A 
ATOM     29  C   UNL     1       8.240   0.981  -1.121  0.00  0.00    +0.023 A 
BRANCH  27  11
ATOM     11  N   UNL     1       8.500  -0.797   0.515  0.00  0.00    -0.336 N 
ATOM     33  C   UNL     1       8.079  -1.254   1.824  0.00  0.00    +0.129 C 
ATOM     34  C   UNL     1       9.789  -1.216   0.002  0.00  0.00    +0.129 C 
ENDBRANCH  27  11
ENDBRANCH   3  21
ENDBRANCH  19   3
ENDBRANCH  15   5
TORSDOF 7
