MODEL 1
REMARK VINA RESULT:      -8.0      0.000      0.000
REMARK  Name = 40474964
REMARK  8 active torsions:
REMARK  status: ('A' for Active; 'I' for Inactive)
REMARK    1  A    between atoms: O_3  and  C_18
REMARK    2  A    between atoms: O_3  and  C_20
REMARK    3  A    between atoms: N_5  and  C_14
REMARK    4  A    between atoms: N_6  and  C_15
REMARK    5  A    between atoms: N_10  and  C_21
REMARK    6  A    between atoms: N_11  and  C_26
REMARK    7  A    between atoms: N_11  and  C_32
REMARK    8  A    between atoms: N_11  and  C_33
REMARK                            x       y       z     vdW  Elec       q    Type
REMARK                         _______ _______ _______ _____ _____    ______ ____
ROOT
ATOM      1  O   UNL     1     -17.377   3.067  27.502  0.00  0.00    -0.370 OA
ATOM      2  O   UNL     1     -16.972   0.572  25.667  0.00  0.00    -0.370 OA
ATOM     12  C   UNL     1     -16.129   1.239  26.624  0.00  0.00    +0.176 C 
ATOM     13  C   UNL     1     -16.403   2.725  26.501  0.00  0.00    +0.172 C 
ATOM     14  C   UNL     1     -16.564   0.886  28.035  0.00  0.00    +0.171 C 
ATOM     15  C   UNL     1     -16.997   2.879  25.119  0.00  0.00    +0.131 C 
ATOM     16  C   UNL     1     -17.670   1.906  28.292  0.00  0.00    +0.190 C 
ATOM     17  C   UNL     1     -17.707   1.552  24.920  0.00  0.00    +0.185 C 
ENDROOT
BRANCH  15   6
ATOM      4  O   UNL     1     -16.205   5.367  23.939  0.00  0.00    -0.252 OA
ATOM      6  N   UNL     1     -15.966   3.075  24.127  0.00  0.00    -0.292 N 
ATOM     10  N   UNL     1     -14.609   4.211  22.664  0.00  0.00    -0.269 N 
ATOM     19  C   UNL     1     -15.640   4.330  23.600  0.00  0.00    +0.304 C 
ATOM     34  H   UNL     1     -15.408   2.274  23.846  0.00  0.00    +0.151 HD
ATOM     35  H   UNL     1     -14.250   3.274  22.496  0.00  0.00    +0.156 HD
BRANCH  10  21
ATOM     21  C   UNL     1     -13.997   5.240  21.911  0.00  0.00    +0.035 A 
ATOM     24  C   UNL     1     -12.607   5.371  21.912  0.00  0.00    +0.023 A 
ATOM     25  C   UNL     1     -14.781   6.125  21.170  0.00  0.00    +0.023 A 
ATOM     29  C   UNL     1     -12.003   6.387  21.170  0.00  0.00    +0.002 A 
ATOM     30  C   UNL     1     -14.176   7.139  20.429  0.00  0.00    +0.002 A 
ATOM     31  C   UNL     1     -12.787   7.271  20.429  0.00  0.00    +0.000 A 
ENDBRANCH  10  21
ENDBRANCH  15   6
BRANCH  14   5
ATOM      5  N   UNL     1     -15.394   0.930  29.002  0.00  0.00    -0.187 N 
ATOM      7  N   UNL     1     -14.696  -0.175  29.296  0.00  0.00    -0.041 NA
ATOM      8  N   UNL     1     -13.874   1.575  30.407  0.00  0.00    -0.071 NA
ATOM      9  N   UNL     1     -13.766   0.225  30.156  0.00  0.00    -0.020 NA
ATOM     18  C   UNL     1     -14.888   1.990  29.683  0.00  0.00    +0.342 A 
BRANCH  18   3
ATOM      3  O   UNL     1     -15.354   3.223  29.614  0.00  0.00    -0.423 OA
BRANCH   3  20
ATOM     20  C   UNL     1     -15.763   3.870  30.792  0.00  0.00    +0.134 A 
ATOM     22  C   UNL     1     -14.830   4.552  31.573  0.00  0.00    +0.069 A 
ATOM     23  C   UNL     1     -17.103   3.832  31.179  0.00  0.00    +0.046 A 
ATOM     26  C   UNL     1     -15.238   5.194  32.743  0.00  0.00    +0.033 A 
ATOM     27  C   UNL     1     -17.510   4.474  32.348  0.00  0.00    +0.005 A 
ATOM     28  C   UNL     1     -16.577   5.156  33.129  0.00  0.00    +0.023 A 
BRANCH  26  11
ATOM     11  N   UNL     1     -14.294   5.884  33.532  0.00  0.00    -0.336 N 
ATOM     32  C   UNL     1     -13.531   6.982  32.971  0.00  0.00    +0.129 C 
ATOM     33  C   UNL     1     -14.080   5.511  34.915  0.00  0.00    +0.129 C 
ENDBRANCH  26  11
ENDBRANCH   3  20
ENDBRANCH  18   3
ENDBRANCH  14   5
TORSDOF 6
ENDMDL
MODEL 2
REMARK VINA RESULT:      -8.0     18.438     21.920
REMARK  Name = 40474964
REMARK  8 active torsions:
REMARK  status: ('A' for Active; 'I' for Inactive)
REMARK    1  A    between atoms: O_3  and  C_18
REMARK    2  A    between atoms: O_3  and  C_20
REMARK    3  A    between atoms: N_5  and  C_14
REMARK    4  A    between atoms: N_6  and  C_15
REMARK    5  A    between atoms: N_10  and  C_21
REMARK    6  A    between atoms: N_11  and  C_26
REMARK    7  A    between atoms: N_11  and  C_32
REMARK    8  A    between atoms: N_11  and  C_33
REMARK                            x       y       z     vdW  Elec       q    Type
REMARK                         _______ _______ _______ _____ _____    ______ ____
ROOT
ATOM      1  O   UNL     1      -4.831 -10.533  18.100  0.00  0.00    -0.370 OA
ATOM      2  O   UNL     1      -6.350 -11.913  15.745  0.00  0.00    -0.370 OA
ATOM     12  C   UNL     1      -5.242 -10.995  15.801  0.00  0.00    +0.176 C 
ATOM     13  C   UNL     1      -5.517 -10.033  16.940  0.00  0.00    +0.172 C 
ATOM     14  C   UNL     1      -3.980 -11.729  16.216  0.00  0.00    +0.171 C 
ATOM     15  C   UNL     1      -7.013 -10.114  17.141  0.00  0.00    +0.131 C 
ATOM     16  C   UNL     1      -4.083 -11.703  17.739  0.00  0.00    +0.190 C 
ATOM     17  C   UNL     1      -7.318 -11.545  16.737  0.00  0.00    +0.185 C 
ENDROOT
BRANCH  15   6
ATOM      4  O   UNL     1      -9.802  -9.465  17.220  0.00  0.00    -0.252 OA
ATOM      6  N   UNL     1      -7.705  -9.172  16.293  0.00  0.00    -0.292 N 
ATOM     10  N   UNL     1      -9.464  -7.960  15.451  0.00  0.00    -0.269 N 
ATOM     19  C   UNL     1      -9.076  -8.912  16.398  0.00  0.00    +0.304 C 
ATOM     34  H   UNL     1      -7.160  -8.625  15.633  0.00  0.00    +0.151 HD
ATOM     35  H   UNL     1      -8.735  -7.600  14.839  0.00  0.00    +0.156 HD
BRANCH  10  21
ATOM     21  C   UNL     1     -10.758  -7.430  15.233  0.00  0.00    +0.035 A 
ATOM     24  C   UNL     1     -11.188  -6.322  15.964  0.00  0.00    +0.023 A 
ATOM     25  C   UNL     1     -11.602  -8.014  14.289  0.00  0.00    +0.023 A 
ATOM     29  C   UNL     1     -12.464  -5.799  15.750  0.00  0.00    +0.002 A 
ATOM     30  C   UNL     1     -12.876  -7.491  14.075  0.00  0.00    +0.002 A 
ATOM     31  C   UNL     1     -13.308  -6.383  14.805  0.00  0.00    +0.000 A 
ENDBRANCH  10  21
ENDBRANCH  15   6
BRANCH  14   5
ATOM      5  N   UNL     1      -2.741 -11.073  15.633  0.00  0.00    -0.187 N 
ATOM      7  N   UNL     1      -1.849 -10.455  16.418  0.00  0.00    -0.041 NA
ATOM      8  N   UNL     1      -1.210 -10.337  14.286  0.00  0.00    -0.071 NA
ATOM      9  N   UNL     1      -0.914 -10.007  15.589  0.00  0.00    -0.020 NA
ATOM     18  C   UNL     1      -2.345 -10.996  14.336  0.00  0.00    +0.342 A 
BRANCH  18   3
ATOM      3  O   UNL     1      -3.007 -11.506  13.314  0.00  0.00    -0.423 OA
BRANCH   3  20
ATOM     20  C   UNL     1      -3.442 -10.655  12.285  0.00  0.00    +0.134 A 
ATOM     22  C   UNL     1      -4.790 -10.309  12.190  0.00  0.00    +0.069 A 
ATOM     23  C   UNL     1      -2.526 -10.153  11.360  0.00  0.00    +0.046 A 
ATOM     26  C   UNL     1      -5.222  -9.463  11.168  0.00  0.00    +0.033 A 
ATOM     27  C   UNL     1      -2.959  -9.307  10.339  0.00  0.00    +0.005 A 
ATOM     28  C   UNL     1      -4.307  -8.962  10.244  0.00  0.00    +0.023 A 
BRANCH  26  11
ATOM     11  N   UNL     1      -6.586  -9.113  11.073  0.00  0.00    -0.336 N 
ATOM     32  C   UNL     1      -7.453  -9.225  12.229  0.00  0.00    +0.129 C 
ATOM     33  C   UNL     1      -7.135  -8.632   9.822  0.00  0.00    +0.129 C 
ENDBRANCH  26  11
ENDBRANCH   3  20
ENDBRANCH  18   3
ENDBRANCH  14   5
TORSDOF 6
ENDMDL
MODEL 3
REMARK VINA RESULT:      -7.4     33.319     36.513
REMARK  Name = 40474964
REMARK  8 active torsions:
REMARK  status: ('A' for Active; 'I' for Inactive)
REMARK    1  A    between atoms: O_3  and  C_18
REMARK    2  A    between atoms: O_3  and  C_20
REMARK    3  A    between atoms: N_5  and  C_14
REMARK    4  A    between atoms: N_6  and  C_15
REMARK    5  A    between atoms: N_10  and  C_21
REMARK    6  A    between atoms: N_11  and  C_26
REMARK    7  A    between atoms: N_11  and  C_32
REMARK    8  A    between atoms: N_11  and  C_33
REMARK                            x       y       z     vdW  Elec       q    Type
REMARK                         _______ _______ _______ _____ _____    ______ ____
ROOT
ATOM      1  O   UNL     1      20.273   6.497  20.480  0.00  0.00    -0.370 OA
ATOM      2  O   UNL     1      19.473   8.673  22.574  0.00  0.00    -0.370 OA
ATOM     12  C   UNL     1      19.783   7.271  22.677  0.00  0.00    +0.176 C 
ATOM     13  C   UNL     1      19.213   6.595  21.446  0.00  0.00    +0.172 C 
ATOM     14  C   UNL     1      21.283   7.061  22.569  0.00  0.00    +0.171 C 
ATOM     15  C   UNL     1      18.147   7.550  20.959  0.00  0.00    +0.131 C 
ATOM     16  C   UNL     1      21.487   6.998  21.058  0.00  0.00    +0.190 C 
ATOM     17  C   UNL     1      18.698   8.898  21.388  0.00  0.00    +0.185 C 
ENDROOT
BRANCH  15   6
ATOM      4  O   UNL     1      15.591   8.570  20.166  0.00  0.00    -0.252 OA
ATOM      6  N   UNL     1      16.877   7.280  21.589  0.00  0.00    -0.292 N 
ATOM     10  N   UNL     1      14.610   7.384  21.939  0.00  0.00    -0.269 N 
ATOM     19  C   UNL     1      15.668   7.820  21.137  0.00  0.00    +0.304 C 
ATOM     34  H   UNL     1      16.850   6.615  22.357  0.00  0.00    +0.151 HD
ATOM     35  H   UNL     1      14.847   6.763  22.710  0.00  0.00    +0.156 HD
BRANCH  10  21
ATOM     21  C   UNL     1      13.237   7.703  21.815  0.00  0.00    +0.035 A 
ATOM     24  C   UNL     1      12.310   6.696  21.543  0.00  0.00    +0.023 A 
ATOM     25  C   UNL     1      12.811   9.023  21.964  0.00  0.00    +0.023 A 
ATOM     29  C   UNL     1      10.957   7.010  21.420  0.00  0.00    +0.002 A 
ATOM     30  C   UNL     1      11.457   9.336  21.841  0.00  0.00    +0.002 A 
ATOM     31  C   UNL     1      10.530   8.330  21.568  0.00  0.00    +0.000 A 
ENDBRANCH  10  21
ENDBRANCH  15   6
BRANCH  14   5
ATOM      5  N   UNL     1      21.727   5.832  23.341  0.00  0.00    -0.187 N 
ATOM      7  N   UNL     1      21.793   5.840  24.680  0.00  0.00    -0.041 NA
ATOM      8  N   UNL     1      22.409   3.848  23.891  0.00  0.00    -0.071 NA
ATOM      9  N   UNL     1      22.210   4.624  25.011  0.00  0.00    -0.020 NA
ATOM     18  C   UNL     1      22.104   4.616  22.869  0.00  0.00    +0.342 A 
BRANCH  18   3
ATOM      3  O   UNL     1      22.150   4.283  21.593  0.00  0.00    -0.423 OA
BRANCH   3  20
ATOM     20  C   UNL     1      23.368   3.858  21.038  0.00  0.00    +0.134 A 
ATOM     22  C   UNL     1      24.258   4.794  20.511  0.00  0.00    +0.069 A 
ATOM     23  C   UNL     1      23.688   2.500  21.015  0.00  0.00    +0.046 A 
ATOM     26  C   UNL     1      25.468   4.371  19.960  0.00  0.00    +0.033 A 
ATOM     27  C   UNL     1      24.897   2.078  20.463  0.00  0.00    +0.005 A 
ATOM     28  C   UNL     1      25.788   3.014  19.937  0.00  0.00    +0.023 A 
BRANCH  26  11
ATOM     11  N   UNL     1      26.369   5.318  19.428  0.00  0.00    -0.336 N 
ATOM     32  C   UNL     1      27.043   5.063  18.170  0.00  0.00    +0.129 C 
ATOM     33  C   UNL     1      26.625   6.560  20.127  0.00  0.00    +0.129 C 
ENDBRANCH  26  11
ENDBRANCH   3  20
ENDBRANCH  18   3
ENDBRANCH  14   5
TORSDOF 6
ENDMDL
MODEL 4
REMARK VINA RESULT:      -7.4     28.433     31.174
REMARK  Name = 40474964
REMARK  8 active torsions:
REMARK  status: ('A' for Active; 'I' for Inactive)
REMARK    1  A    between atoms: O_3  and  C_18
REMARK    2  A    between atoms: O_3  and  C_20
REMARK    3  A    between atoms: N_5  and  C_14
REMARK    4  A    between atoms: N_6  and  C_15
REMARK    5  A    between atoms: N_10  and  C_21
REMARK    6  A    between atoms: N_11  and  C_26
REMARK    7  A    between atoms: N_11  and  C_32
REMARK    8  A    between atoms: N_11  and  C_33
REMARK                            x       y       z     vdW  Elec       q    Type
REMARK                         _______ _______ _______ _____ _____    ______ ____
ROOT
ATOM      1  O   UNL     1      12.698   8.378  18.987  0.00  0.00    -0.370 OA
ATOM      2  O   UNL     1      12.173   7.651  21.979  0.00  0.00    -0.370 OA
ATOM     12  C   UNL     1      12.725   8.811  21.328  0.00  0.00    +0.176 C 
ATOM     13  C   UNL     1      13.541   8.315  20.150  0.00  0.00    +0.172 C 
ATOM     14  C   UNL     1      11.613   9.634  20.703  0.00  0.00    +0.171 C 
ATOM     15  C   UNL     1      13.852   6.876  20.494  0.00  0.00    +0.131 C 
ATOM     16  C   UNL     1      11.435   8.953  19.348  0.00  0.00    +0.190 C 
ATOM     17  C   UNL     1      12.642   6.469  21.316  0.00  0.00    +0.185 C 
ENDROOT
BRANCH  15   6
ATOM      4  O   UNL     1      16.534   7.048  19.501  0.00  0.00    -0.252 OA
ATOM      6  N   UNL     1      15.067   6.776  21.267  0.00  0.00    -0.292 N 
ATOM     10  N   UNL     1      17.324   6.738  21.690  0.00  0.00    -0.269 N 
ATOM     19  C   UNL     1      16.344   6.872  20.702  0.00  0.00    +0.304 C 
ATOM     34  H   UNL     1      14.992   6.697  22.277  0.00  0.00    +0.151 HD
ATOM     35  H   UNL     1      16.996   6.593  22.642  0.00  0.00    +0.156 HD
BRANCH  10  21
ATOM     21  C   UNL     1      18.729   6.775  21.529  0.00  0.00    +0.035 A 
ATOM     24  C   UNL     1      19.367   5.809  20.750  0.00  0.00    +0.023 A 
ATOM     25  C   UNL     1      19.476   7.776  22.149  0.00  0.00    +0.023 A 
ATOM     29  C   UNL     1      20.752   5.845  20.592  0.00  0.00    +0.002 A 
ATOM     30  C   UNL     1      20.861   7.812  21.990  0.00  0.00    +0.002 A 
ATOM     31  C   UNL     1      21.500   6.846  21.212  0.00  0.00    +0.000 A 
ENDBRANCH  10  21
ENDBRANCH  15   6
BRANCH  14   5
ATOM      5  N   UNL     1      11.976  11.107  20.653  0.00  0.00    -0.187 N 
ATOM      7  N   UNL     1      12.755  11.596  19.678  0.00  0.00    -0.041 NA
ATOM      8  N   UNL     1      12.159  13.225  21.078  0.00  0.00    -0.071 NA
ATOM      9  N   UNL     1      12.863  12.892  19.942  0.00  0.00    -0.020 NA
ATOM     18  C   UNL     1      11.619  12.105  21.501  0.00  0.00    +0.342 A 
BRANCH  18   3
ATOM      3  O   UNL     1      10.855  11.952  22.566  0.00  0.00    -0.423 OA
BRANCH   3  20
ATOM     20  C   UNL     1      11.190  12.624  23.753  0.00  0.00    +0.134 A 
ATOM     22  C   UNL     1      12.368  12.304  24.427  0.00  0.00    +0.069 A 
ATOM     23  C   UNL     1      10.345  13.614  24.257  0.00  0.00    +0.046 A 
ATOM     26  C   UNL     1      12.701  12.972  25.606  0.00  0.00    +0.033 A 
ATOM     27  C   UNL     1      10.677  14.281  25.435  0.00  0.00    +0.005 A 
ATOM     28  C   UNL     1      11.856  13.961  26.109  0.00  0.00    +0.023 A 
BRANCH  26  11
ATOM     11  N   UNL     1      13.893  12.648  26.287  0.00  0.00    -0.336 N 
ATOM     32  C   UNL     1      14.839  11.717  25.705  0.00  0.00    +0.129 C 
ATOM     33  C   UNL     1      14.191  13.247  27.571  0.00  0.00    +0.129 C 
ENDBRANCH  26  11
ENDBRANCH   3  20
ENDBRANCH  18   3
ENDBRANCH  14   5
TORSDOF 6
ENDMDL
MODEL 5
REMARK VINA RESULT:      -7.3     32.470     36.271
REMARK  Name = 40474964
REMARK  8 active torsions:
REMARK  status: ('A' for Active; 'I' for Inactive)
REMARK    1  A    between atoms: O_3  and  C_18
REMARK    2  A    between atoms: O_3  and  C_20
REMARK    3  A    between atoms: N_5  and  C_14
REMARK    4  A    between atoms: N_6  and  C_15
REMARK    5  A    between atoms: N_10  and  C_21
REMARK    6  A    between atoms: N_11  and  C_26
REMARK    7  A    between atoms: N_11  and  C_32
REMARK    8  A    between atoms: N_11  and  C_33
REMARK                            x       y       z     vdW  Elec       q    Type
REMARK                         _______ _______ _______ _____ _____    ______ ____
ROOT
ATOM      1  O   UNL     1       8.629   7.515   6.606  0.00  0.00    -0.370 OA
ATOM      2  O   UNL     1      10.866   5.893   8.063  0.00  0.00    -0.370 OA
ATOM     12  C   UNL     1      10.891   6.980   7.119  0.00  0.00    +0.176 C 
ATOM     13  C   UNL     1       9.755   6.751   6.143  0.00  0.00    +0.172 C 
ATOM     14  C   UNL     1      10.540   8.282   7.816  0.00  0.00    +0.171 C 
ATOM     15  C   UNL     1       9.464   5.271   6.254  0.00  0.00    +0.131 C 
ATOM     16  C   UNL     1       9.014   8.268   7.765  0.00  0.00    +0.190 C 
ATOM     17  C   UNL     1       9.825   4.977   7.699  0.00  0.00    +0.185 C 
ENDROOT
BRANCH  15   6
ATOM      4  O   UNL     1       9.789   5.729   3.445  0.00  0.00    -0.252 OA
ATOM      6  N   UNL     1      10.285   4.508   5.344  0.00  0.00    -0.292 N 
ATOM     10  N   UNL     1      11.251   3.895   3.353  0.00  0.00    -0.269 N 
ATOM     19  C   UNL     1      10.389   4.800   3.979  0.00  0.00    +0.304 C 
ATOM     34  H   UNL     1      10.864   3.764   5.724  0.00  0.00    +0.151 HD
ATOM     35  H   UNL     1      11.668   3.178   3.943  0.00  0.00    +0.156 HD
BRANCH  10  21
ATOM     21  C   UNL     1      11.619   3.850   1.988  0.00  0.00    +0.035 A 
ATOM     24  C   UNL     1      10.704   4.233   1.007  0.00  0.00    +0.023 A 
ATOM     25  C   UNL     1      12.896   3.423   1.623  0.00  0.00    +0.023 A 
ATOM     29  C   UNL     1      11.066   4.188  -0.339  0.00  0.00    +0.002 A 
ATOM     30  C   UNL     1      13.258   3.378   0.277  0.00  0.00    +0.002 A 
ATOM     31  C   UNL     1      12.343   3.760  -0.705  0.00  0.00    +0.000 A 
ENDBRANCH  10  21
ENDBRANCH  15   6
BRANCH  14   5
ATOM      5  N   UNL     1      11.207   9.468   7.143  0.00  0.00    -0.187 N 
ATOM      7  N   UNL     1      10.500  10.549   6.784  0.00  0.00    -0.041 NA
ATOM      8  N   UNL     1      12.647  10.817   6.245  0.00  0.00    -0.071 NA
ATOM      9  N   UNL     1      11.386  11.371   6.236  0.00  0.00    -0.020 NA
ATOM     18  C   UNL     1      12.512   9.639   6.811  0.00  0.00    +0.342 A 
BRANCH  18   3
ATOM      3  O   UNL     1      13.468   8.757   7.030  0.00  0.00    -0.423 OA
BRANCH   3  20
ATOM     20  C   UNL     1      14.348   8.425   5.986  0.00  0.00    +0.134 A 
ATOM     22  C   UNL     1      13.847   7.924   4.785  0.00  0.00    +0.069 A 
ATOM     23  C   UNL     1      15.722   8.599   6.151  0.00  0.00    +0.046 A 
ATOM     26  C   UNL     1      14.722   7.595   3.749  0.00  0.00    +0.033 A 
ATOM     27  C   UNL     1      16.596   8.271   5.115  0.00  0.00    +0.005 A 
ATOM     28  C   UNL     1      16.095   7.769   3.914  0.00  0.00    +0.023 A 
BRANCH  26  11
ATOM     11  N   UNL     1      14.215   7.088   2.534  0.00  0.00    -0.336 N 
ATOM     32  C   UNL     1      12.807   7.219   2.216  0.00  0.00    +0.129 C 
ATOM     33  C   UNL     1      15.095   6.437   1.585  0.00  0.00    +0.129 C 
ENDBRANCH  26  11
ENDBRANCH   3  20
ENDBRANCH  18   3
ENDBRANCH  14   5
TORSDOF 6
ENDMDL
MODEL 6
REMARK VINA RESULT:      -7.2     17.280     19.315
REMARK  Name = 40474964
REMARK  8 active torsions:
REMARK  status: ('A' for Active; 'I' for Inactive)
REMARK    1  A    between atoms: O_3  and  C_18
REMARK    2  A    between atoms: O_3  and  C_20
REMARK    3  A    between atoms: N_5  and  C_14
REMARK    4  A    between atoms: N_6  and  C_15
REMARK    5  A    between atoms: N_10  and  C_21
REMARK    6  A    between atoms: N_11  and  C_26
REMARK    7  A    between atoms: N_11  and  C_32
REMARK    8  A    between atoms: N_11  and  C_33
REMARK                            x       y       z     vdW  Elec       q    Type
REMARK                         _______ _______ _______ _____ _____    ______ ____
ROOT
ATOM      1  O   UNL     1     -11.149 -11.738  15.390  0.00  0.00    -0.370 OA
ATOM      2  O   UNL     1      -8.771  -9.859  14.634  0.00  0.00    -0.370 OA
ATOM     12  C   UNL     1      -9.471 -10.117  15.865  0.00  0.00    +0.176 C 
ATOM     13  C   UNL     1     -10.932 -10.322  15.514  0.00  0.00    +0.172 C 
ATOM     14  C   UNL     1      -9.027 -11.447  16.446  0.00  0.00    +0.171 C 
ATOM     15  C   UNL     1     -11.087  -9.649  14.169  0.00  0.00    +0.131 C 
ATOM     16  C   UNL     1      -9.938 -12.433  15.718  0.00  0.00    +0.190 C 
ATOM     17  C   UNL     1      -9.712  -9.833  13.552  0.00  0.00    +0.185 C 
ENDROOT
BRANCH  15   6
ATOM      4  O   UNL     1     -12.505  -8.005  12.300  0.00  0.00    -0.252 OA
ATOM      6  N   UNL     1     -11.409  -8.249  14.321  0.00  0.00    -0.292 N 
ATOM     10  N   UNL     1     -12.273  -6.193  13.774  0.00  0.00    -0.269 N 
ATOM     19  C   UNL     1     -12.109  -7.516  13.355  0.00  0.00    +0.304 C 
ATOM     34  H   UNL     1     -11.174  -7.791  15.196  0.00  0.00    +0.151 HD
ATOM     35  H   UNL     1     -11.880  -5.948  14.680  0.00  0.00    +0.156 HD
BRANCH  10  21
ATOM     21  C   UNL     1     -12.922  -5.140  13.088  0.00  0.00    +0.035 A 
ATOM     24  C   UNL     1     -12.249  -4.447  12.081  0.00  0.00    +0.023 A 
ATOM     25  C   UNL     1     -14.232  -4.793  13.418  0.00  0.00    +0.023 A 
ATOM     29  C   UNL     1     -12.888  -3.407  11.404  0.00  0.00    +0.002 A 
ATOM     30  C   UNL     1     -14.870  -3.755  12.741  0.00  0.00    +0.002 A 
ATOM     31  C   UNL     1     -14.198  -3.061  11.734  0.00  0.00    +0.000 A 
ENDBRANCH  10  21
ENDBRANCH  15   6
BRANCH  14   5
ATOM      5  N   UNL     1      -9.135 -11.454  17.960  0.00  0.00    -0.187 N 
ATOM      7  N   UNL     1     -10.088 -12.158  18.585  0.00  0.00    -0.041 NA
ATOM      8  N   UNL     1      -8.814 -11.098  20.075  0.00  0.00    -0.071 NA
ATOM      9  N   UNL     1      -9.887 -11.938  19.878  0.00  0.00    -0.020 NA
ATOM     18  C   UNL     1      -8.364 -10.810  18.875  0.00  0.00    +0.342 A 
BRANCH  18   3
ATOM      3  O   UNL     1      -7.339 -10.032  18.583  0.00  0.00    -0.423 OA
BRANCH   3  20
ATOM     20  C   UNL     1      -6.066 -10.604  18.426  0.00  0.00    +0.134 A 
ATOM     22  C   UNL     1      -5.351 -10.401  17.246  0.00  0.00    +0.069 A 
ATOM     23  C   UNL     1      -5.516 -11.373  19.452  0.00  0.00    +0.046 A 
ATOM     26  C   UNL     1      -4.086 -10.969  17.091  0.00  0.00    +0.033 A 
ATOM     27  C   UNL     1      -4.251 -11.941  19.297  0.00  0.00    +0.005 A 
ATOM     28  C   UNL     1      -3.536 -11.737  18.117  0.00  0.00    +0.023 A 
BRANCH  26  11
ATOM     11  N   UNL     1      -3.363 -10.763  15.898  0.00  0.00    -0.336 N 
ATOM     32  C   UNL     1      -4.054 -10.693  14.625  0.00  0.00    +0.129 C 
ATOM     33  C   UNL     1      -1.923 -10.611  15.928  0.00  0.00    +0.129 C 
ENDBRANCH  26  11
ENDBRANCH   3  20
ENDBRANCH  18   3
ENDBRANCH  14   5
TORSDOF 6
ENDMDL
MODEL 7
REMARK VINA RESULT:      -7.2      3.162     11.111
REMARK  Name = 40474964
REMARK  8 active torsions:
REMARK  status: ('A' for Active; 'I' for Inactive)
REMARK    1  A    between atoms: O_3  and  C_18
REMARK    2  A    between atoms: O_3  and  C_20
REMARK    3  A    between atoms: N_5  and  C_14
REMARK    4  A    between atoms: N_6  and  C_15
REMARK    5  A    between atoms: N_10  and  C_21
REMARK    6  A    between atoms: N_11  and  C_26
REMARK    7  A    between atoms: N_11  and  C_32
REMARK    8  A    between atoms: N_11  and  C_33
REMARK                            x       y       z     vdW  Elec       q    Type
REMARK                         _______ _______ _______ _____ _____    ______ ____
ROOT
ATOM      1  O   UNL     1     -16.149   3.986  22.376  0.00  0.00    -0.370 OA
ATOM      2  O   UNL     1     -16.763   6.551  24.049  0.00  0.00    -0.370 OA
ATOM     12  C   UNL     1     -15.548   5.980  23.529  0.00  0.00    +0.176 C 
ATOM     13  C   UNL     1     -15.678   4.474  23.643  0.00  0.00    +0.172 C 
ATOM     14  C   UNL     1     -15.447   6.243  22.038  0.00  0.00    +0.171 C 
ATOM     15  C   UNL     1     -16.733   4.272  24.707  0.00  0.00    +0.131 C 
ATOM     16  C   UNL     1     -16.247   5.081  21.454  0.00  0.00    +0.190 C 
ATOM     17  C   UNL     1     -17.610   5.499  24.531  0.00  0.00    +0.185 C 
ENDROOT
BRANCH  15   6
ATOM      4  O   UNL     1     -16.526   1.990  26.426  0.00  0.00    -0.252 OA
ATOM      6  N   UNL     1     -16.145   4.235  26.025  0.00  0.00    -0.292 N 
ATOM     10  N   UNL     1     -15.462   3.339  28.026  0.00  0.00    -0.269 N 
ATOM     19  C   UNL     1     -16.084   3.072  26.803  0.00  0.00    +0.304 C 
ATOM     34  H   UNL     1     -15.698   5.075  26.378  0.00  0.00    +0.151 HD
ATOM     35  H   UNL     1     -15.154   4.296  28.183  0.00  0.00    +0.156 HD
BRANCH  10  21
ATOM     21  C   UNL     1     -15.208   2.436  29.085  0.00  0.00    +0.035 A 
ATOM     24  C   UNL     1     -14.244   2.743  30.046  0.00  0.00    +0.023 A 
ATOM     25  C   UNL     1     -15.921   1.240  29.169  0.00  0.00    +0.023 A 
ATOM     29  C   UNL     1     -13.993   1.853  31.090  0.00  0.00    +0.002 A 
ATOM     30  C   UNL     1     -15.670   0.350  30.213  0.00  0.00    +0.002 A 
ATOM     31  C   UNL     1     -14.705   0.657  31.174  0.00  0.00    +0.000 A 
ENDBRANCH  10  21
ENDBRANCH  15   6
BRANCH  14   5
ATOM      5  N   UNL     1     -14.000   6.332  21.588  0.00  0.00    -0.187 N 
ATOM      7  N   UNL     1     -13.083   5.458  22.025  0.00  0.00    -0.041 NA
ATOM      8  N   UNL     1     -12.145   6.930  20.638  0.00  0.00    -0.071 NA
ATOM      9  N   UNL     1     -11.950   5.828  21.440  0.00  0.00    -0.020 NA
ATOM     18  C   UNL     1     -13.420   7.225  20.745  0.00  0.00    +0.342 A 
BRANCH  18   3
ATOM      3  O   UNL     1     -14.053   8.216  20.144  0.00  0.00    -0.423 OA
BRANCH   3  20
ATOM     20  C   UNL     1     -14.224   8.176  18.751  0.00  0.00    +0.134 A 
ATOM     22  C   UNL     1     -13.159   8.496  17.908  0.00  0.00    +0.069 A 
ATOM     23  C   UNL     1     -15.458   7.815  18.209  0.00  0.00    +0.046 A 
ATOM     26  C   UNL     1     -13.329   8.456  16.524  0.00  0.00    +0.033 A 
ATOM     27  C   UNL     1     -15.627   7.775  16.826  0.00  0.00    +0.005 A 
ATOM     28  C   UNL     1     -14.563   8.095  15.983  0.00  0.00    +0.023 A 
BRANCH  26  11
ATOM     11  N   UNL     1     -12.252   8.780  15.673  0.00  0.00    -0.336 N 
ATOM     32  C   UNL     1     -10.892   8.455  16.055  0.00  0.00    +0.129 C 
ATOM     33  C   UNL     1     -12.491   9.433  14.402  0.00  0.00    +0.129 C 
ENDBRANCH  26  11
ENDBRANCH   3  20
ENDBRANCH  18   3
ENDBRANCH  14   5
TORSDOF 6
ENDMDL
MODEL 8
REMARK VINA RESULT:      -7.2     17.166     20.800
REMARK  Name = 40474964
REMARK  8 active torsions:
REMARK  status: ('A' for Active; 'I' for Inactive)
REMARK    1  A    between atoms: O_3  and  C_18
REMARK    2  A    between atoms: O_3  and  C_20
REMARK    3  A    between atoms: N_5  and  C_14
REMARK    4  A    between atoms: N_6  and  C_15
REMARK    5  A    between atoms: N_10  and  C_21
REMARK    6  A    between atoms: N_11  and  C_26
REMARK    7  A    between atoms: N_11  and  C_32
REMARK    8  A    between atoms: N_11  and  C_33
REMARK                            x       y       z     vdW  Elec       q    Type
REMARK                         _______ _______ _______ _____ _____    ______ ____
ROOT
ATOM      1  O   UNL     1      -9.604 -10.756  15.561  0.00  0.00    -0.370 OA
ATOM      2  O   UNL     1      -8.573  -8.377  17.303  0.00  0.00    -0.370 OA
ATOM     12  C   UNL     1      -8.429  -9.806  17.400  0.00  0.00    +0.176 C 
ATOM     13  C   UNL     1      -9.741 -10.419  16.951  0.00  0.00    +0.172 C 
ATOM     14  C   UNL     1      -7.411 -10.296  16.386  0.00  0.00    +0.171 C 
ATOM     15  C   UNL     1     -10.749  -9.305  17.124  0.00  0.00    +0.131 C 
ATOM     16  C   UNL     1      -8.266 -10.464  15.133  0.00  0.00    +0.190 C 
ATOM     17  C   UNL     1      -9.907  -8.065  16.879  0.00  0.00    +0.185 C 
ENDROOT
BRANCH  15   6
ATOM      4  O   UNL     1     -13.416 -10.038  17.868  0.00  0.00    -0.252 OA
ATOM      6  N   UNL     1     -11.304  -9.306  18.457  0.00  0.00    -0.292 N 
ATOM     10  N   UNL     1     -12.877  -9.582  20.107  0.00  0.00    -0.269 N 
ATOM     19  C   UNL     1     -12.624  -9.680  18.736  0.00  0.00    +0.304 C 
ATOM     34  H   UNL     1     -10.690  -9.086  19.236  0.00  0.00    +0.151 HD
ATOM     35  H   UNL     1     -12.107  -9.265  20.693  0.00  0.00    +0.156 HD
BRANCH  10  21
ATOM     21  C   UNL     1     -14.082  -9.868  20.789  0.00  0.00    +0.035 A 
ATOM     24  C   UNL     1     -14.266 -11.118  21.384  0.00  0.00    +0.023 A 
ATOM     25  C   UNL     1     -15.087  -8.904  20.868  0.00  0.00    +0.023 A 
ATOM     29  C   UNL     1     -15.455 -11.401  22.056  0.00  0.00    +0.002 A 
ATOM     30  C   UNL     1     -16.275  -9.187  21.541  0.00  0.00    +0.002 A 
ATOM     31  C   UNL     1     -16.459 -10.437  22.135  0.00  0.00    +0.000 A 
ENDBRANCH  10  21
ENDBRANCH  15   6
BRANCH  14   5
ATOM      5  N   UNL     1      -6.706 -11.550  16.871  0.00  0.00    -0.187 N 
ATOM      7  N   UNL     1      -7.364 -12.711  16.994  0.00  0.00    -0.041 NA
ATOM      8  N   UNL     1      -5.231 -12.967  17.588  0.00  0.00    -0.071 NA
ATOM      9  N   UNL     1      -6.456 -13.575  17.432  0.00  0.00    -0.020 NA
ATOM     18  C   UNL     1      -5.409 -11.714  17.236  0.00  0.00    +0.342 A 
BRANCH  18   3
ATOM      3  O   UNL     1      -4.497 -10.760  17.229  0.00  0.00    -0.423 OA
BRANCH   3  20
ATOM     20  C   UNL     1      -3.576 -10.699  16.170  0.00  0.00    +0.134 A 
ATOM     22  C   UNL     1      -4.031 -10.597  14.855  0.00  0.00    +0.069 A 
ATOM     23  C   UNL     1      -2.207 -10.736  16.433  0.00  0.00    +0.046 A 
ATOM     26  C   UNL     1      -3.116 -10.536  13.804  0.00  0.00    +0.033 A 
ATOM     27  C   UNL     1      -1.292 -10.674  15.382  0.00  0.00    +0.005 A 
ATOM     28  C   UNL     1      -1.747 -10.573  14.067  0.00  0.00    +0.023 A 
BRANCH  26  11
ATOM     11  N   UNL     1      -3.577 -10.433  12.474  0.00  0.00    -0.336 N 
ATOM     32  C   UNL     1      -4.943 -10.033  12.201  0.00  0.00    +0.129 C 
ATOM     33  C   UNL     1      -2.690 -10.718  11.365  0.00  0.00    +0.129 C 
ENDBRANCH  26  11
ENDBRANCH   3  20
ENDBRANCH  18   3
ENDBRANCH  14   5
TORSDOF 6
ENDMDL
MODEL 9
REMARK VINA RESULT:      -7.1     18.760     22.645
REMARK  Name = 40474964
REMARK  8 active torsions:
REMARK  status: ('A' for Active; 'I' for Inactive)
REMARK    1  A    between atoms: O_3  and  C_18
REMARK    2  A    between atoms: O_3  and  C_20
REMARK    3  A    between atoms: N_5  and  C_14
REMARK    4  A    between atoms: N_6  and  C_15
REMARK    5  A    between atoms: N_10  and  C_21
REMARK    6  A    between atoms: N_11  and  C_26
REMARK    7  A    between atoms: N_11  and  C_32
REMARK    8  A    between atoms: N_11  and  C_33
REMARK                            x       y       z     vdW  Elec       q    Type
REMARK                         _______ _______ _______ _____ _____    ______ ____
ROOT
ATOM      1  O   UNL     1      -6.304 -10.211  16.642  0.00  0.00    -0.370 OA
ATOM      2  O   UNL     1      -5.290 -11.570  19.266  0.00  0.00    -0.370 OA
ATOM     12  C   UNL     1      -5.499 -12.048  17.924  0.00  0.00    +0.176 C 
ATOM     13  C   UNL     1      -6.739 -11.358  17.392  0.00  0.00    +0.172 C 
ATOM     14  C   UNL     1      -4.377 -11.570  17.021  0.00  0.00    +0.171 C 
ATOM     15  C   UNL     1      -7.482 -10.921  18.634  0.00  0.00    +0.131 C 
ATOM     16  C   UNL     1      -4.870 -10.186  16.607  0.00  0.00    +0.190 C 
ATOM     17  C   UNL     1      -6.353 -10.673  19.618  0.00  0.00    +0.185 C 
ENDROOT
BRANCH  15   6
ATOM      4  O   UNL     1      -9.749 -10.589  20.353  0.00  0.00    -0.252 OA
ATOM      6  N   UNL     1      -8.368 -11.959  19.105  0.00  0.00    -0.292 N 
ATOM     10  N   UNL     1     -10.131 -12.902  20.235  0.00  0.00    -0.269 N 
ATOM     19  C   UNL     1      -9.458 -11.711  19.947  0.00  0.00    +0.304 C 
ATOM     34  H   UNL     1      -8.232 -12.904  18.758  0.00  0.00    +0.151 HD
ATOM     35  H   UNL     1      -9.756 -13.751  19.818  0.00  0.00    +0.156 HD
BRANCH  10  21
ATOM     21  C   UNL     1     -11.277 -13.077  21.046  0.00  0.00    +0.035 A 
ATOM     24  C   UNL     1     -12.445 -12.368  20.763  0.00  0.00    +0.023 A 
ATOM     25  C   UNL     1     -11.240 -13.958  22.126  0.00  0.00    +0.023 A 
ATOM     29  C   UNL     1     -13.575 -12.539  21.562  0.00  0.00    +0.002 A 
ATOM     30  C   UNL     1     -12.370 -14.130  22.924  0.00  0.00    +0.002 A 
ATOM     31  C   UNL     1     -13.538 -13.421  22.643  0.00  0.00    +0.000 A 
ENDBRANCH  10  21
ENDBRANCH  15   6
BRANCH  14   5
ATOM      5  N   UNL     1      -4.129 -12.543  15.883  0.00  0.00    -0.187 N 
ATOM      7  N   UNL     1      -4.613 -13.792  15.921  0.00  0.00    -0.041 NA
ATOM      8  N   UNL     1      -3.478 -13.464  14.031  0.00  0.00    -0.071 NA
ATOM      9  N   UNL     1      -4.213 -14.351  14.786  0.00  0.00    -0.020 NA
ATOM     18  C   UNL     1      -3.439 -12.352  14.729  0.00  0.00    +0.342 A 
BRANCH  18   3
ATOM      3  O   UNL     1      -2.838 -11.228  14.388  0.00  0.00    -0.423 OA
BRANCH   3  20
ATOM     20  C   UNL     1      -3.131 -10.642  13.145  0.00  0.00    +0.134 A 
ATOM     22  C   UNL     1      -4.440 -10.266  12.843  0.00  0.00    +0.069 A 
ATOM     23  C   UNL     1      -2.113 -10.436  12.214  0.00  0.00    +0.046 A 
ATOM     26  C   UNL     1      -4.730  -9.684  11.609  0.00  0.00    +0.033 A 
ATOM     27  C   UNL     1      -2.404  -9.854  10.980  0.00  0.00    +0.005 A 
ATOM     28  C   UNL     1      -3.713  -9.478  10.679  0.00  0.00    +0.023 A 
BRANCH  26  11
ATOM     11  N   UNL     1      -6.054  -9.303  11.304  0.00  0.00    -0.336 N 
ATOM     32  C   UNL     1      -7.072  -9.303  12.336  0.00  0.00    +0.129 C 
ATOM     33  C   UNL     1      -6.411  -8.900   9.960  0.00  0.00    +0.129 C 
ENDBRANCH  26  11
ENDBRANCH   3  20
ENDBRANCH  18   3
ENDBRANCH  14   5
TORSDOF 6
ENDMDL
MODEL 10
REMARK VINA RESULT:      -7.1      3.006     10.808
REMARK  Name = 40474964
REMARK  8 active torsions:
REMARK  status: ('A' for Active; 'I' for Inactive)
REMARK    1  A    between atoms: O_3  and  C_18
REMARK    2  A    between atoms: O_3  and  C_20
REMARK    3  A    between atoms: N_5  and  C_14
REMARK    4  A    between atoms: N_6  and  C_15
REMARK    5  A    between atoms: N_10  and  C_21
REMARK    6  A    between atoms: N_11  and  C_26
REMARK    7  A    between atoms: N_11  and  C_32
REMARK    8  A    between atoms: N_11  and  C_33
REMARK                            x       y       z     vdW  Elec       q    Type
REMARK                         _______ _______ _______ _____ _____    ______ ____
ROOT
ATOM      1  O   UNL     1     -16.202   3.486  22.744  0.00  0.00    -0.370 OA
ATOM      2  O   UNL     1     -16.984   5.894  24.575  0.00  0.00    -0.370 OA
ATOM     12  C   UNL     1     -15.782   5.545  23.863  0.00  0.00    +0.176 C 
ATOM     13  C   UNL     1     -15.636   4.038  23.945  0.00  0.00    +0.172 C 
ATOM     14  C   UNL     1     -15.952   5.833  22.383  0.00  0.00    +0.171 C 
ATOM     15  C   UNL     1     -16.470   3.649  25.144  0.00  0.00    +0.131 C 
ATOM     16  C   UNL     1     -16.622   4.555  21.885  0.00  0.00    +0.190 C 
ATOM     17  C   UNL     1     -17.559   4.707  25.140  0.00  0.00    +0.185 C 
ENDROOT
BRANCH  15   6
ATOM      4  O   UNL     1     -16.900   2.109  27.521  0.00  0.00    -0.252 OA
ATOM      6  N   UNL     1     -15.694   3.703  26.360  0.00  0.00    -0.292 N 
ATOM     10  N   UNL     1     -15.056   3.180  28.503  0.00  0.00    -0.269 N 
ATOM     19  C   UNL     1     -15.972   2.913  27.481  0.00  0.00    +0.304 C 
ATOM     34  H   UNL     1     -14.868   4.295  26.380  0.00  0.00    +0.151 HD
ATOM     35  H   UNL     1     -14.344   3.880  28.307  0.00  0.00    +0.156 HD
BRANCH  10  21
ATOM     21  C   UNL     1     -14.995   2.594  29.789  0.00  0.00    +0.035 A 
ATOM     24  C   UNL     1     -15.324   3.351  30.915  0.00  0.00    +0.023 A 
ATOM     25  C   UNL     1     -14.608   1.262  29.932  0.00  0.00    +0.023 A 
ATOM     29  C   UNL     1     -15.263   2.774  32.184  0.00  0.00    +0.002 A 
ATOM     30  C   UNL     1     -14.548   0.686  31.201  0.00  0.00    +0.002 A 
ATOM     31  C   UNL     1     -14.876   1.442  32.327  0.00  0.00    +0.000 A 
ENDBRANCH  10  21
ENDBRANCH  15   6
BRANCH  14   5
ATOM      5  N   UNL     1     -14.625   6.175  21.730  0.00  0.00    -0.187 N 
ATOM      7  N   UNL     1     -13.497   5.540  22.078  0.00  0.00    -0.041 NA
ATOM      8  N   UNL     1     -13.072   7.054  20.498  0.00  0.00    -0.071 NA
ATOM      9  N   UNL     1     -12.550   6.081  21.321  0.00  0.00    -0.020 NA
ATOM     18  C   UNL     1     -14.357   7.095  20.768  0.00  0.00    +0.342 A 
BRANCH  18   3
ATOM      3  O   UNL     1     -15.254   7.887  20.211  0.00  0.00    -0.423 OA
BRANCH   3  20
ATOM     20  C   UNL     1     -15.753   7.571  18.937  0.00  0.00    +0.134 A 
ATOM     22  C   UNL     1     -16.789   6.646  18.803  0.00  0.00    +0.069 A 
ATOM     23  C   UNL     1     -15.214   8.183  17.805  0.00  0.00    +0.046 A 
ATOM     26  C   UNL     1     -17.284   6.333  17.537  0.00  0.00    +0.033 A 
ATOM     27  C   UNL     1     -15.709   7.870  16.540  0.00  0.00    +0.005 A 
ATOM     28  C   UNL     1     -16.745   6.945  16.406  0.00  0.00    +0.023 A 
BRANCH  26  11
ATOM     11  N   UNL     1     -18.332   5.398  17.403  0.00  0.00    -0.336 N 
ATOM     32  C   UNL     1     -18.917   5.135  16.103  0.00  0.00    +0.129 C 
ATOM     33  C   UNL     1     -18.832   4.685  18.560  0.00  0.00    +0.129 C 
ENDBRANCH  26  11
ENDBRANCH   3  20
ENDBRANCH  18   3
ENDBRANCH  14   5
TORSDOF 6
ENDMDL
