REMARK  Name = 71693643
REMARK  9 active torsions:
REMARK  status: ('A' for Active; 'I' for Inactive)
REMARK    1  A    between atoms: O_2  and  C_10
REMARK    2  A    between atoms: N_5  and  C_13
REMARK    3  A    between atoms: N_6  and  C_17
REMARK    4  A    between atoms: C_7  and  C_10
REMARK    5  A    between atoms: C_8  and  C_9
REMARK    6  A    between atoms: C_14  and  C_20
REMARK    7  A    between atoms: C_14  and  C_21
REMARK    8  A    between atoms: C_14  and  C_22
REMARK    9  A    between atoms: C_14  and  C_23
REMARK                            x       y       z     vdW  Elec       q    Type
REMARK                         _______ _______ _______ _____ _____    ______ ____
ROOT
ATOM      9  C   UNL     1       0.824  -0.246   0.190  0.00  0.00    -0.017 A 
ATOM     15  C   UNL     1       0.321  -0.628  -1.053  0.00  0.00    +0.008 A 
ATOM     16  C   UNL     1      -0.049   0.141   1.207  0.00  0.00    +0.008 A 
ATOM     17  C   UNL     1      -1.928  -0.238  -0.263  0.00  0.00    +0.033 A 
ATOM     18  C   UNL     1      -1.056  -0.624  -1.280  0.00  0.00    +0.023 A 
ATOM     19  C   UNL     1      -1.425   0.145   0.981  0.00  0.00    +0.023 A 
ENDROOT
BRANCH   9   8
ATOM      1  O   UNL     1       2.758  -1.604   0.312  0.00  0.00    -0.361 OA
ATOM      3  O   UNL     1       6.286  -1.135   0.137  0.00  0.00    -0.273 OA
ATOM      5  N   UNL     1       4.583   0.356  -0.420  0.00  0.00    -0.295 N 
ATOM      7  C   UNL     1       3.127   0.604  -0.559  0.00  0.00    +0.134 C 
ATOM      8  C   UNL     1       2.319  -0.251   0.436  0.00  0.00    +0.171 C 
ATOM     11  C   UNL     1       4.080  -1.745   0.775  0.00  0.00    +0.256 C 
ATOM     12  C   UNL     1       5.092  -0.829   0.116  0.00  0.00    +0.242 C 
ATOM     13  C   UNL     1       5.503   1.274  -1.085  0.00  0.00    +0.132 C 
BRANCH   7  10
ATOM     10  C   UNL     1       2.767   2.090  -0.411  0.00  0.00    +0.181 C 
BRANCH  10   2
ATOM      2  O   UNL     1       3.061   2.485   0.913  0.00  0.00    -0.393 OA
ATOM     25  H   UNL     1       2.818   3.423   0.994  0.00  0.00    +0.209 HD
ENDBRANCH  10   2
ENDBRANCH   7  10
ENDBRANCH   9   8
BRANCH  17   6
ATOM      4  O   UNL     1      -4.174   0.495   1.558  0.00  0.00    -0.275 OA
ATOM      6  N   UNL     1      -3.305  -0.234  -0.489  0.00  0.00    -0.285 N 
ATOM     20  C   UNL     1      -4.335   0.119   0.399  0.00  0.00    +0.223 C 
ATOM     24  H   UNL     1      -3.579  -0.528  -1.423  0.00  0.00    +0.155 HD
BRANCH  20  14
ATOM     14  C   UNL     1      -5.754  -0.001  -0.210  0.00  0.00    +0.039 C 
ATOM     21  C   UNL     1      -6.814   0.381   0.835  0.00  0.00    +0.020 C 
ATOM     22  C   UNL     1      -5.879   0.901  -1.448  0.00  0.00    +0.020 C 
ATOM     23  C   UNL     1      -6.003  -1.458  -0.643  0.00  0.00    +0.020 C 
ENDBRANCH  20  14
ENDBRANCH  17   6
TORSDOF 5
