REMARK  Name = 71693258
REMARK  7 active torsions:
REMARK  status: ('A' for Active; 'I' for Inactive)
REMARK    1  A    between atoms: O_2  and  C_12
REMARK    2  A    between atoms: N_6  and  C_19
REMARK    3  A    between atoms: N_7  and  C_25
REMARK    4  A    between atoms: CA_9  and  C_12
REMARK    5  A    between atoms: C_10  and  C_11
REMARK    6  A    between atoms: C_20  and  C_21
REMARK    7  A    between atoms: C_22  and  C_24
REMARK                            x       y       z     vdW  Elec       q    Type
REMARK                         _______ _______ _______ _____ _____    ______ ____
ROOT
ATOM     11  C   UNL     1      -2.117   0.001   0.253  0.00  0.00    -0.017 A 
ATOM     15  C   UNL     1      -1.527   1.108  -0.356  0.00  0.00    +0.008 A 
ATOM     16  C   UNL     1      -1.317  -1.015   0.778  0.00  0.00    +0.008 A 
ATOM     17  C   UNL     1      -0.138   1.200  -0.441  0.00  0.00    +0.023 A 
ATOM     18  C   UNL     1       0.072  -0.923   0.693  0.00  0.00    +0.023 A 
ATOM     19  C   UNL     1       0.662   0.184   0.084  0.00  0.00    +0.034 A 
ENDROOT
BRANCH  11  10
ATOM      1  O   UNL     1      -4.082   0.991   1.154  0.00  0.00    -0.361 OA
ATOM      3  O   UNL     1      -7.582   0.849   0.378  0.00  0.00    -0.273 OA
ATOM      5  N   UNL     1      -5.779   0.094  -0.825  0.00  0.00    -0.306 N 
ATOM      9  CA  UNL     1      -4.334  -0.004  -1.013  0.00  0.00    +0.131 C 
ATOM     10  C   UNL     1      -3.624  -0.100   0.346  0.00  0.00    +0.171 C 
ATOM     13  C   UNL     1      -5.450   0.856   1.478  0.00  0.00    +0.256 C 
ATOM     14  C   UNL     1      -6.374   0.628   0.297  0.00  0.00    +0.239 C 
ATOM     26  H   UNL     1      -6.374  -0.071  -1.632  0.00  0.00    +0.149 HD
BRANCH   9  12
ATOM     12  C   UNL     1      -4.013  -1.184  -1.927  0.00  0.00    +0.181 C 
BRANCH  12   2
ATOM      2  O   UNL     1      -4.421  -2.376  -1.282  0.00  0.00    -0.393 OA
ATOM     27  H   UNL     1      -4.208  -3.113  -1.879  0.00  0.00    +0.209 HD
ENDBRANCH  12   2
ENDBRANCH   9  12
ENDBRANCH  11  10
BRANCH  19   6
ATOM      4  O   UNL     1       2.791  -1.698   1.040  0.00  0.00    -0.268 OA
ATOM      6  N   UNL     1       2.051   0.277  -0.001  0.00  0.00    -0.280 N 
ATOM     20  C   UNL     1       3.007  -0.636   0.465  0.00  0.00    +0.268 C 
ATOM     28  H   UNL     1       2.406   1.112  -0.463  0.00  0.00    +0.155 HD
BRANCH  20  21
ATOM      7  N   UNL     1       6.047   0.861  -0.501  0.00  0.00    -0.271 N 
ATOM      8  N   UNL     1       4.704   0.867  -0.445  0.00  0.00    -0.167 NA
ATOM     21  C   UNL     1       4.422  -0.269   0.198  0.00  0.00    +0.148 A 
ATOM     22  C   UNL     1       6.618  -0.232   0.082  0.00  0.00    +0.037 A 
ATOM     23  C   UNL     1       5.576  -0.994   0.551  0.00  0.00    +0.057 A 
ATOM     24  C   UNL     1       8.076  -0.445   0.136  0.00  0.00    +0.065 C 
ATOM     25  C   UNL     1       6.731   1.960  -1.142  0.00  0.00    +0.172 C 
ENDBRANCH  20  21
ENDBRANCH  19   6
TORSDOF 5
