MODEL 1
REMARK VINA RESULT:      -6.2      0.000      0.000
REMARK  Name = 28991027
REMARK  7 active torsions:
REMARK  status: ('A' for Active; 'I' for Inactive)
REMARK    1  A    between atoms: O_3  and  C_21
REMARK    2  A    between atoms: O_3  and  C_22
REMARK    3  A    between atoms: N_5  and  C_14
REMARK    4  A    between atoms: N_6  and  C_15
REMARK    5  A    between atoms: C_8  and  C_14
REMARK    6  A    between atoms: C_9  and  C_15
REMARK    7  A    between atoms: C_20  and  C_21
REMARK                            x       y       z     vdW  Elec       q    Type
REMARK                         _______ _______ _______ _____ _____    ______ ____
ROOT
ATOM      4  N   UNL     1      11.545   7.439  19.892  0.00  0.00    -0.298 NA
ATOM      7  C   UNL     1      13.344   8.954  21.004  0.00  0.00    -0.003 C 
ATOM      8  C   UNL     1      11.920   9.401  21.408  0.00  0.00    +0.020 C 
ATOM      9  C   UNL     1      12.483   7.957  18.859  0.00  0.00    +0.074 C 
ATOM     10  C   UNL     1      13.470   8.978  19.469  0.00  0.00    +0.024 C 
ATOM     11  C   UNL     1      10.896   8.562  20.609  0.00  0.00    +0.089 C 
ATOM     12  C   UNL     1      13.497   7.487  21.451  0.00  0.00    +0.019 C 
ATOM     13  C   UNL     1      12.336   6.658  20.875  0.00  0.00    +0.085 C 
ENDROOT
BRANCH   8  14
ATOM     14  C   UNL     1      11.685  10.898  21.228  0.00  0.00    +0.089 C 
BRANCH  14   5
ATOM      1  O   UNL     1      10.281  12.613  24.792  0.00  0.00    -0.377 OA
ATOM      5  N   UNL     1      11.650  11.579  22.521  0.00  0.00    -0.298 NA
ATOM     16  C   UNL     1      11.112  10.693  23.563  0.00  0.00    +0.112 C 
ATOM     17  C   UNL     1      10.849  12.808  22.442  0.00  0.00    +0.112 C 
ATOM     18  C   UNL     1      11.073  11.428  24.899  0.00  0.00    +0.175 C 
ATOM     19  C   UNL     1      10.818  13.494  23.804  0.00  0.00    +0.175 C 
ENDBRANCH  14   5
ENDBRANCH   8  14
BRANCH   9  15
ATOM     15  C   UNL     1      11.752   8.530  17.642  0.00  0.00    +0.123 C 
BRANCH  15   6
ATOM      2  O   UNL     1      13.141   8.631  15.108  0.00  0.00    -0.273 OA
ATOM      6  N   UNL     1      12.482   9.657  17.087  0.00  0.00    -0.312 N 
ATOM     20  C   UNL     1      13.114   9.602  15.859  0.00  0.00    +0.239 C 
ATOM     23  H   UNL     1      12.524  10.513  17.633  0.00  0.00    +0.149 HD
BRANCH  20  21
ATOM     21  C   UNL     1      13.793  10.914  15.528  0.00  0.00    +0.255 C 
BRANCH  21   3
ATOM      3  O   UNL     1      13.938  11.062  14.131  0.00  0.00    -0.374 OA
ATOM     22  C   UNL     1      14.140  12.422  13.760  0.00  0.00    +0.194 C 
ENDBRANCH  21   3
ENDBRANCH  20  21
ENDBRANCH  15   6
ENDBRANCH   9  15
TORSDOF 6
ENDMDL
MODEL 2
REMARK VINA RESULT:      -5.6      3.629      7.182
REMARK  Name = 28991027
REMARK  7 active torsions:
REMARK  status: ('A' for Active; 'I' for Inactive)
REMARK    1  A    between atoms: O_3  and  C_21
REMARK    2  A    between atoms: O_3  and  C_22
REMARK    3  A    between atoms: N_5  and  C_14
REMARK    4  A    between atoms: N_6  and  C_15
REMARK    5  A    between atoms: C_8  and  C_14
REMARK    6  A    between atoms: C_9  and  C_15
REMARK    7  A    between atoms: C_20  and  C_21
REMARK                            x       y       z     vdW  Elec       q    Type
REMARK                         _______ _______ _______ _____ _____    ______ ____
ROOT
ATOM      4  N   UNL     1      11.958   8.261  22.102  0.00  0.00    -0.298 NA
ATOM      7  C   UNL     1      12.582   7.604  19.662  0.00  0.00    -0.003 C 
ATOM      8  C   UNL     1      13.851   7.801  20.523  0.00  0.00    +0.020 C 
ATOM      9  C   UNL     1      11.272   9.165  21.139  0.00  0.00    +0.074 C 
ATOM     10  C   UNL     1      11.741   8.894  19.692  0.00  0.00    +0.024 C 
ATOM     11  C   UNL     1      13.427   8.328  21.913  0.00  0.00    +0.089 C 
ATOM     12  C   UNL     1      11.748   6.500  20.341  0.00  0.00    +0.019 C 
ATOM     13  C   UNL     1      11.518   6.874  21.816  0.00  0.00    +0.085 C 
ENDROOT
BRANCH   8  14
ATOM     14  C   UNL     1      14.887   8.710  19.868  0.00  0.00    +0.089 C 
BRANCH  14   5
ATOM      1  O   UNL     1      18.041   6.025  20.546  0.00  0.00    -0.377 OA
ATOM      5  N   UNL     1      16.186   8.045  19.784  0.00  0.00    -0.298 NA
ATOM     16  C   UNL     1      16.032   6.653  19.340  0.00  0.00    +0.112 C 
ATOM     17  C   UNL     1      16.878   8.086  21.080  0.00  0.00    +0.112 C 
ATOM     18  C   UNL     1      17.397   5.976  19.272  0.00  0.00    +0.175 C 
ATOM     19  C   UNL     1      18.224   7.377  20.970  0.00  0.00    +0.175 C 
ENDBRANCH  14   5
ENDBRANCH   8  14
BRANCH   9  15
ATOM     15  C   UNL     1      11.420  10.641  21.517  0.00  0.00    +0.123 C 
BRANCH  15   6
ATOM      2  O   UNL     1      10.992  13.132  22.923  0.00  0.00    -0.273 OA
ATOM      6  N   UNL     1      11.267  10.823  22.951  0.00  0.00    -0.312 N 
ATOM     20  C   UNL     1      11.065  12.064  23.525  0.00  0.00    +0.239 C 
ATOM     23  H   UNL     1      11.315  10.000  23.543  0.00  0.00    +0.149 HD
BRANCH  20  21
ATOM     21  C   UNL     1      10.938  11.962  25.030  0.00  0.00    +0.255 C 
BRANCH  21   3
ATOM      3  O   UNL     1      12.177  11.617  25.613  0.00  0.00    -0.374 OA
ATOM     22  C   UNL     1      13.026  12.751  25.763  0.00  0.00    +0.194 C 
ENDBRANCH  21   3
ENDBRANCH  20  21
ENDBRANCH  15   6
ENDBRANCH   9  15
TORSDOF 6
ENDMDL
MODEL 3
REMARK VINA RESULT:      -5.4      3.281      4.328
REMARK  Name = 28991027
REMARK  7 active torsions:
REMARK  status: ('A' for Active; 'I' for Inactive)
REMARK    1  A    between atoms: O_3  and  C_21
REMARK    2  A    between atoms: O_3  and  C_22
REMARK    3  A    between atoms: N_5  and  C_14
REMARK    4  A    between atoms: N_6  and  C_15
REMARK    5  A    between atoms: C_8  and  C_14
REMARK    6  A    between atoms: C_9  and  C_15
REMARK    7  A    between atoms: C_20  and  C_21
REMARK                            x       y       z     vdW  Elec       q    Type
REMARK                         _______ _______ _______ _____ _____    ______ ____
ROOT
ATOM      4  N   UNL     1      11.540   7.469  20.331  0.00  0.00    -0.298 NA
ATOM      7  C   UNL     1      12.210   9.190  22.163  0.00  0.00    -0.003 C 
ATOM      8  C   UNL     1      11.793   9.907  20.858  0.00  0.00    +0.020 C 
ATOM      9  C   UNL     1      12.880   7.131  20.882  0.00  0.00    +0.074 C 
ATOM     10  C   UNL     1      13.367   8.220  21.864  0.00  0.00    +0.024 C 
ATOM     11  C   UNL     1      11.546   8.841  19.767  0.00  0.00    +0.089 C 
ATOM     12  C   UNL     1      11.005   8.340  22.611  0.00  0.00    +0.019 C 
ATOM     13  C   UNL     1      10.565   7.433  21.448  0.00  0.00    +0.085 C 
ENDROOT
BRANCH   8  14
ATOM     14  C   UNL     1      12.800  10.959  20.401  0.00  0.00    +0.089 C 
BRANCH  14   5
ATOM      1  O   UNL     1      11.928  13.964  23.197  0.00  0.00    -0.377 OA
ATOM      5  N   UNL     1      12.496  12.262  20.988  0.00  0.00    -0.298 NA
ATOM     16  C   UNL     1      13.543  12.664  21.937  0.00  0.00    +0.112 C 
ATOM     17  C   UNL     1      11.189  12.240  21.659  0.00  0.00    +0.112 C 
ATOM     18  C   UNL     1      13.199  14.020  22.546  0.00  0.00    +0.175 C 
ATOM     19  C   UNL     1      10.900  13.607  22.273  0.00  0.00    +0.175 C 
ENDBRANCH  14   5
ENDBRANCH   8  14
BRANCH   9  15
ATOM     15  C   UNL     1      13.910   6.853  19.784  0.00  0.00    +0.123 C 
BRANCH  15   6
ATOM      2  O   UNL     1      16.320   5.821  18.563  0.00  0.00    -0.273 OA
ATOM      6  N   UNL     1      15.261   6.923  20.315  0.00  0.00    -0.312 N 
ATOM     20  C   UNL     1      16.350   6.396  19.648  0.00  0.00    +0.239 C 
ATOM     23  H   UNL     1      15.396   7.377  21.214  0.00  0.00    +0.149 HD
BRANCH  20  21
ATOM     21  C   UNL     1      17.631   6.610  20.426  0.00  0.00    +0.255 C 
BRANCH  21   3
ATOM      3  O   UNL     1      17.575   7.817  21.157  0.00  0.00    -0.374 OA
ATOM     22  C   UNL     1      18.801   8.088  21.829  0.00  0.00    +0.194 C 
ENDBRANCH  21   3
ENDBRANCH  20  21
ENDBRANCH  15   6
ENDBRANCH   9  15
TORSDOF 6
ENDMDL
MODEL 4
REMARK VINA RESULT:      -5.4     25.884     28.223
REMARK  Name = 28991027
REMARK  7 active torsions:
REMARK  status: ('A' for Active; 'I' for Inactive)
REMARK    1  A    between atoms: O_3  and  C_21
REMARK    2  A    between atoms: O_3  and  C_22
REMARK    3  A    between atoms: N_5  and  C_14
REMARK    4  A    between atoms: N_6  and  C_15
REMARK    5  A    between atoms: C_8  and  C_14
REMARK    6  A    between atoms: C_9  and  C_15
REMARK    7  A    between atoms: C_20  and  C_21
REMARK                            x       y       z     vdW  Elec       q    Type
REMARK                         _______ _______ _______ _____ _____    ______ ____
ROOT
ATOM      4  N   UNL     1      -6.959 -10.227  18.399  0.00  0.00    -0.298 NA
ATOM      7  C   UNL     1      -5.436 -12.324  18.176  0.00  0.00    -0.003 C 
ATOM      8  C   UNL     1      -5.009 -11.224  17.177  0.00  0.00    +0.020 C 
ATOM      9  C   UNL     1      -7.794 -11.446  18.222  0.00  0.00    +0.074 C 
ATOM     10  C   UNL     1      -6.914 -12.684  17.938  0.00  0.00    +0.024 C 
ATOM     11  C   UNL     1      -6.031 -10.067  17.253  0.00  0.00    +0.089 C 
ATOM     12  C   UNL     1      -5.338 -11.711  19.587  0.00  0.00    +0.019 C 
ATOM     13  C   UNL     1      -6.149 -10.404  19.628  0.00  0.00    +0.085 C 
ENDROOT
BRANCH   8  14
ATOM     14  C   UNL     1      -4.844 -11.737  15.750  0.00  0.00    +0.089 C 
BRANCH  14   5
ATOM      1  O   UNL     1      -1.308  -9.800  14.584  0.00  0.00    -0.377 OA
ATOM      5  N   UNL     1      -3.486 -11.502  15.265  0.00  0.00    -0.298 NA
ATOM     16  C   UNL     1      -2.669 -10.849  16.297  0.00  0.00    +0.112 C 
ATOM     17  C   UNL     1      -3.502 -10.685  14.044  0.00  0.00    +0.112 C 
ATOM     18  C   UNL     1      -1.260 -10.603  15.765  0.00  0.00    +0.175 C 
ATOM     19  C   UNL     1      -2.074 -10.444  13.564  0.00  0.00    +0.175 C 
ENDBRANCH  14   5
ENDBRANCH   8  14
BRANCH   9  15
ATOM     15  C   UNL     1      -8.877 -11.262  17.156  0.00  0.00    +0.123 C 
BRANCH  15   6
ATOM      2  O   UNL     1      -9.033  -9.146  15.190  0.00  0.00    -0.273 OA
ATOM      6  N   UNL     1      -9.533  -9.973  17.305  0.00  0.00    -0.312 N 
ATOM     20  C   UNL     1      -9.550  -9.027  16.298  0.00  0.00    +0.239 C 
ATOM     23  H   UNL     1      -9.990  -9.771  18.189  0.00  0.00    +0.149 HD
BRANCH  20  21
ATOM     21  C   UNL     1     -10.301  -7.783  16.722  0.00  0.00    +0.255 C 
BRANCH  21   3
ATOM      3  O   UNL     1     -10.116  -6.744  15.783  0.00  0.00    -0.374 OA
ATOM     22  C   UNL     1     -11.274  -5.924  15.666  0.00  0.00    +0.194 C 
ENDBRANCH  21   3
ENDBRANCH  20  21
ENDBRANCH  15   6
ENDBRANCH   9  15
TORSDOF 6
ENDMDL
MODEL 5
REMARK VINA RESULT:      -5.2     23.433     24.529
REMARK  Name = 28991027
REMARK  7 active torsions:
REMARK  status: ('A' for Active; 'I' for Inactive)
REMARK    1  A    between atoms: O_3  and  C_21
REMARK    2  A    between atoms: O_3  and  C_22
REMARK    3  A    between atoms: N_5  and  C_14
REMARK    4  A    between atoms: N_6  and  C_15
REMARK    5  A    between atoms: C_8  and  C_14
REMARK    6  A    between atoms: C_9  and  C_15
REMARK    7  A    between atoms: C_20  and  C_21
REMARK                            x       y       z     vdW  Elec       q    Type
REMARK                         _______ _______ _______ _____ _____    ______ ____
ROOT
ATOM      4  N   UNL     1     -13.514   8.988  19.531  0.00  0.00    -0.298 NA
ATOM      7  C   UNL     1     -11.146   7.916  19.656  0.00  0.00    -0.003 C 
ATOM      8  C   UNL     1     -11.061   9.456  19.758  0.00  0.00    +0.020 C 
ATOM      9  C   UNL     1     -13.311   8.065  18.382  0.00  0.00    +0.074 C 
ATOM     10  C   UNL     1     -11.861   7.530  18.348  0.00  0.00    +0.024 C 
ATOM     11  C   UNL     1     -12.473  10.044  19.534  0.00  0.00    +0.089 C 
ATOM     12  C   UNL     1     -12.036   7.439  20.821  0.00  0.00    +0.019 C 
ATOM     13  C   UNL     1     -13.374   8.198  20.779  0.00  0.00    +0.085 C 
ENDROOT
BRANCH   8  14
ATOM     14  C   UNL     1     -10.039  10.067  18.804  0.00  0.00    +0.089 C 
BRANCH  14   5
ATOM      1  O   UNL     1     -10.657  12.671  15.570  0.00  0.00    -0.377 OA
ATOM      5  N   UNL     1     -10.696  10.893  17.793  0.00  0.00    -0.298 NA
ATOM     16  C   UNL     1     -10.364  10.424  16.440  0.00  0.00    +0.112 C 
ATOM     17  C   UNL     1     -10.317  12.304  17.944  0.00  0.00    +0.112 C 
ATOM     18  C   UNL     1     -11.051  11.308  15.402  0.00  0.00    +0.175 C 
ATOM     19  C   UNL     1     -11.007  13.143  16.872  0.00  0.00    +0.175 C 
ENDBRANCH  14   5
ENDBRANCH   8  14
BRANCH   9  15
ATOM     15  C   UNL     1     -13.714   8.698  17.047  0.00  0.00    +0.123 C 
BRANCH  15   6
ATOM      2  O   UNL     1     -14.177   9.073  14.217  0.00  0.00    -0.273 OA
ATOM      6  N   UNL     1     -12.963   8.110  15.950  0.00  0.00    -0.312 N 
ATOM     20  C   UNL     1     -13.268   8.355  14.625  0.00  0.00    +0.239 C 
ATOM     23  H   UNL     1     -12.189   7.494  16.180  0.00  0.00    +0.149 HD
BRANCH  20  21
ATOM     21  C   UNL     1     -12.327   7.618  13.696  0.00  0.00    +0.255 C 
BRANCH  21   3
ATOM      3  O   UNL     1     -11.064   8.250  13.663  0.00  0.00    -0.374 OA
ATOM     22  C   UNL     1     -10.093   7.456  12.988  0.00  0.00    +0.194 C 
ENDBRANCH  21   3
ENDBRANCH  20  21
ENDBRANCH  15   6
ENDBRANCH   9  15
TORSDOF 6
ENDMDL
MODEL 6
REMARK VINA RESULT:      -5.1     13.945     16.224
REMARK  Name = 28991027
REMARK  7 active torsions:
REMARK  status: ('A' for Active; 'I' for Inactive)
REMARK    1  A    between atoms: O_3  and  C_21
REMARK    2  A    between atoms: O_3  and  C_22
REMARK    3  A    between atoms: N_5  and  C_14
REMARK    4  A    between atoms: N_6  and  C_15
REMARK    5  A    between atoms: C_8  and  C_14
REMARK    6  A    between atoms: C_9  and  C_15
REMARK    7  A    between atoms: C_20  and  C_21
REMARK                            x       y       z     vdW  Elec       q    Type
REMARK                         _______ _______ _______ _____ _____    ______ ____
ROOT
ATOM      4  N   UNL     1       9.914   5.399   6.046  0.00  0.00    -0.298 NA
ATOM      7  C   UNL     1       9.713   7.332   7.776  0.00  0.00    -0.003 C 
ATOM      8  C   UNL     1       8.515   7.339   6.798  0.00  0.00    +0.020 C 
ATOM      9  C   UNL     1      11.171   6.195   6.068  0.00  0.00    +0.074 C 
ATOM     10  C   UNL     1      11.024   7.437   6.976  0.00  0.00    +0.024 C 
ATOM     11  C   UNL     1       8.759   6.267   5.712  0.00  0.00    +0.089 C 
ATOM     12  C   UNL     1       9.713   5.957   8.473  0.00  0.00    +0.019 C 
ATOM     13  C   UNL     1       9.700   4.848   7.407  0.00  0.00    +0.085 C 
ENDROOT
BRANCH   8  14
ATOM     14  C   UNL     1       8.246   8.710   6.186  0.00  0.00    +0.089 C 
BRANCH  14   5
ATOM      1  O   UNL     1       8.805  10.006   2.233  0.00  0.00    -0.377 OA
ATOM      5  N   UNL     1       8.567   8.717   4.760  0.00  0.00    -0.298 NA
ATOM     16  C   UNL     1       9.661   9.657   4.477  0.00  0.00    +0.112 C 
ATOM     17  C   UNL     1       7.385   9.066   3.960  0.00  0.00    +0.112 C 
ATOM     18  C   UNL     1       9.971   9.658   2.983  0.00  0.00    +0.175 C 
ATOM     19  C   UNL     1       7.748   9.077   2.478  0.00  0.00    +0.175 C 
ENDBRANCH  14   5
ENDBRANCH   8  14
BRANCH   9  15
ATOM     15  C   UNL     1      11.648   6.571   4.663  0.00  0.00    +0.123 C 
BRANCH  15   6
ATOM      2  O   UNL     1       9.995   6.176   2.323  0.00  0.00    -0.273 OA
ATOM      6  N   UNL     1      11.632   5.412   3.786  0.00  0.00    -0.312 N 
ATOM     20  C   UNL     1      10.799   5.323   2.687  0.00  0.00    +0.239 C 
ATOM     23  H   UNL     1      12.260   4.644   4.002  0.00  0.00    +0.149 HD
BRANCH  20  21
ATOM     21  C   UNL     1      10.992   4.012   1.954  0.00  0.00    +0.255 C 
BRANCH  21   3
ATOM      3  O   UNL     1      12.262   3.465   2.237  0.00  0.00    -0.374 OA
ATOM     22  C   UNL     1      13.020   3.245   1.051  0.00  0.00    +0.194 C 
ENDBRANCH  21   3
ENDBRANCH  20  21
ENDBRANCH  15   6
ENDBRANCH   9  15
TORSDOF 6
ENDMDL
MODEL 7
REMARK VINA RESULT:      -5.0     13.796     17.270
REMARK  Name = 28991027
REMARK  7 active torsions:
REMARK  status: ('A' for Active; 'I' for Inactive)
REMARK    1  A    between atoms: O_3  and  C_21
REMARK    2  A    between atoms: O_3  and  C_22
REMARK    3  A    between atoms: N_5  and  C_14
REMARK    4  A    between atoms: N_6  and  C_15
REMARK    5  A    between atoms: C_8  and  C_14
REMARK    6  A    between atoms: C_9  and  C_15
REMARK    7  A    between atoms: C_20  and  C_21
REMARK                            x       y       z     vdW  Elec       q    Type
REMARK                         _______ _______ _______ _____ _____    ______ ____
ROOT
ATOM      4  N   UNL     1      10.055   6.991   7.316  0.00  0.00    -0.298 NA
ATOM      7  C   UNL     1       9.624   5.229   5.451  0.00  0.00    -0.003 C 
ATOM      8  C   UNL     1      10.938   6.001   5.188  0.00  0.00    +0.020 C 
ATOM      9  C   UNL     1       8.686   7.162   6.760  0.00  0.00    +0.074 C 
ATOM     10  C   UNL     1       8.457   6.228   5.551  0.00  0.00    +0.024 C 
ATOM     11  C   UNL     1      11.068   7.125   6.241  0.00  0.00    +0.089 C 
ATOM     12  C   UNL     1       9.768   4.557   6.830  0.00  0.00    +0.019 C 
ATOM     13  C   UNL     1      10.153   5.620   7.874  0.00  0.00    +0.085 C 
ENDROOT
BRANCH   8  14
ATOM     14  C   UNL     1      11.042   6.546   3.767  0.00  0.00    +0.089 C 
BRANCH  14   5
ATOM      1  O   UNL     1      11.315   4.326   0.215  0.00  0.00    -0.377 OA
ATOM      5  N   UNL     1      10.888   5.474   2.784  0.00  0.00    -0.298 NA
ATOM     16  C   UNL     1      12.197   4.935   2.392  0.00  0.00    +0.112 C 
ATOM     17  C   UNL     1      10.165   5.954   1.598  0.00  0.00    +0.112 C 
ATOM     18  C   UNL     1      12.013   3.828   1.358  0.00  0.00    +0.175 C 
ATOM     19  C   UNL     1      10.027   4.822   0.584  0.00  0.00    +0.175 C 
ENDBRANCH  14   5
ENDBRANCH   8  14
BRANCH   9  15
ATOM     15  C   UNL     1       8.373   8.621   6.419  0.00  0.00    +0.123 C 
BRANCH  15   6
ATOM      2  O   UNL     1       7.524  11.031   5.063  0.00  0.00    -0.273 OA
ATOM      6  N   UNL     1       7.622   8.711   5.179  0.00  0.00    -0.312 N 
ATOM     20  C   UNL     1       7.265   9.919   4.611  0.00  0.00    +0.239 C 
ATOM     23  H   UNL     1       7.352   7.844   4.722  0.00  0.00    +0.149 HD
BRANCH  20  21
ATOM     21  C   UNL     1       6.491   9.718   3.325  0.00  0.00    +0.255 C 
BRANCH  21   3
ATOM      3  O   UNL     1       5.196  10.271   3.430  0.00  0.00    -0.374 OA
ATOM     22  C   UNL     1       4.439  10.078   2.239  0.00  0.00    +0.194 C 
ENDBRANCH  21   3
ENDBRANCH  20  21
ENDBRANCH  15   6
ENDBRANCH   9  15
TORSDOF 6
ENDMDL
MODEL 8
REMARK VINA RESULT:      -5.0     26.273     28.281
REMARK  Name = 28991027
REMARK  7 active torsions:
REMARK  status: ('A' for Active; 'I' for Inactive)
REMARK    1  A    between atoms: O_3  and  C_21
REMARK    2  A    between atoms: O_3  and  C_22
REMARK    3  A    between atoms: N_5  and  C_14
REMARK    4  A    between atoms: N_6  and  C_15
REMARK    5  A    between atoms: C_8  and  C_14
REMARK    6  A    between atoms: C_9  and  C_15
REMARK    7  A    between atoms: C_20  and  C_21
REMARK                            x       y       z     vdW  Elec       q    Type
REMARK                         _______ _______ _______ _____ _____    ______ ____
ROOT
ATOM      4  N   UNL     1      -6.725 -12.751  18.322  0.00  0.00    -0.298 NA
ATOM      7  C   UNL     1      -6.086 -10.246  18.620  0.00  0.00    -0.003 C 
ATOM      8  C   UNL     1      -7.308 -10.397  17.685  0.00  0.00    +0.020 C 
ATOM      9  C   UNL     1      -5.279 -12.555  18.028  0.00  0.00    +0.074 C 
ATOM     10  C   UNL     1      -4.906 -11.055  18.052  0.00  0.00    +0.024 C 
ATOM     11  C   UNL     1      -7.551 -11.901  17.430  0.00  0.00    +0.089 C 
ATOM     12  C   UNL     1      -6.472 -10.888  19.967  0.00  0.00    +0.019 C 
ATOM     13  C   UNL     1      -6.967 -12.324  19.721  0.00  0.00    +0.085 C 
ENDROOT
BRANCH   8  14
ATOM     14  C   UNL     1      -7.166  -9.620  16.379  0.00  0.00    +0.089 C 
BRANCH  14   5
ATOM      1  O   UNL     1     -11.163  -8.360  16.144  0.00  0.00    -0.377 OA
ATOM      5  N   UNL     1      -8.351  -8.802  16.128  0.00  0.00    -0.298 NA
ATOM     16  C   UNL     1      -9.081  -8.542  17.376  0.00  0.00    +0.112 C 
ATOM     17  C   UNL     1      -9.237  -9.453  15.153  0.00  0.00    +0.112 C 
ATOM     18  C   UNL     1     -10.319  -7.698  17.088  0.00  0.00    +0.175 C 
ATOM     19  C   UNL     1     -10.470  -8.586  14.916  0.00  0.00    +0.175 C 
ENDBRANCH  14   5
ENDBRANCH   8  14
BRANCH   9  15
ATOM     15  C   UNL     1      -4.854 -13.226  16.719  0.00  0.00    +0.123 C 
BRANCH  15   6
ATOM      2  O   UNL     1      -4.277 -12.997  13.894  0.00  0.00    -0.273 OA
ATOM      6  N   UNL     1      -3.752 -12.505  16.105  0.00  0.00    -0.312 N 
ATOM     20  C   UNL     1      -3.565 -12.457  14.737  0.00  0.00    +0.239 C 
ATOM     23  H   UNL     1      -3.099 -12.024  16.716  0.00  0.00    +0.149 HD
BRANCH  20  21
ATOM     21  C   UNL     1      -2.345 -11.638  14.374  0.00  0.00    +0.255 C 
BRANCH  21   3
ATOM      3  O   UNL     1      -1.534 -11.421  15.510  0.00  0.00    -0.374 OA
ATOM     22  C   UNL     1      -1.082 -10.072  15.589  0.00  0.00    +0.194 C 
ENDBRANCH  21   3
ENDBRANCH  20  21
ENDBRANCH  15   6
ENDBRANCH   9  15
TORSDOF 6
ENDMDL
MODEL 9
REMARK VINA RESULT:      -5.0      2.393      6.247
REMARK  Name = 28991027
REMARK  7 active torsions:
REMARK  status: ('A' for Active; 'I' for Inactive)
REMARK    1  A    between atoms: O_3  and  C_21
REMARK    2  A    between atoms: O_3  and  C_22
REMARK    3  A    between atoms: N_5  and  C_14
REMARK    4  A    between atoms: N_6  and  C_15
REMARK    5  A    between atoms: C_8  and  C_14
REMARK    6  A    between atoms: C_9  and  C_15
REMARK    7  A    between atoms: C_20  and  C_21
REMARK                            x       y       z     vdW  Elec       q    Type
REMARK                         _______ _______ _______ _____ _____    ______ ____
ROOT
ATOM      4  N   UNL     1      11.247  12.268  22.178  0.00  0.00    -0.298 NA
ATOM      7  C   UNL     1      13.831  11.974  22.230  0.00  0.00    -0.003 C 
ATOM      8  C   UNL     1      13.293  11.870  20.784  0.00  0.00    +0.020 C 
ATOM      9  C   UNL     1      11.620  11.221  23.166  0.00  0.00    +0.074 C 
ATOM     10  C   UNL     1      13.135  10.921  23.111  0.00  0.00    +0.024 C 
ATOM     11  C   UNL     1      11.749  11.907  20.830  0.00  0.00    +0.089 C 
ATOM     12  C   UNL     1      13.417  13.360  22.763  0.00  0.00    +0.019 C 
ATOM     13  C   UNL     1      11.898  13.536  22.589  0.00  0.00    +0.085 C 
ENDROOT
BRANCH   8  14
ATOM     14  C   UNL     1      13.806  10.642  20.038  0.00  0.00    +0.089 C 
BRANCH  14   5
ATOM      1  O   UNL     1      13.866   9.920  15.904  0.00  0.00    -0.377 OA
ATOM      5  N   UNL     1      13.530  10.748  18.607  0.00  0.00    -0.298 NA
ATOM     16  C   UNL     1      12.918   9.512  18.100  0.00  0.00    +0.112 C 
ATOM     17  C   UNL     1      14.761  11.042  17.859  0.00  0.00    +0.112 C 
ATOM     18  C   UNL     1      12.651   9.641  16.603  0.00  0.00    +0.175 C 
ATOM     19  C   UNL     1      14.450  11.137  16.369  0.00  0.00    +0.175 C 
ENDBRANCH  14   5
ENDBRANCH   8  14
BRANCH   9  15
ATOM     15  C   UNL     1      10.783   9.949  23.013  0.00  0.00    +0.123 C 
BRANCH  15   6
ATOM      2  O   UNL     1      10.718   8.333  20.616  0.00  0.00    -0.273 OA
ATOM      6  N   UNL     1      11.629   8.809  22.701  0.00  0.00    -0.312 N 
ATOM     20  C   UNL     1      11.516   8.101  21.520  0.00  0.00    +0.239 C 
ATOM     23  H   UNL     1      12.324   8.530  23.387  0.00  0.00    +0.149 HD
BRANCH  20  21
ATOM     21  C   UNL     1      12.519   6.969  21.457  0.00  0.00    +0.255 C 
BRANCH  21   3
ATOM      3  O   UNL     1      13.004   6.805  20.141  0.00  0.00    -0.374 OA
ATOM     22  C   UNL     1      14.427   6.747  20.105  0.00  0.00    +0.194 C 
ENDBRANCH  21   3
ENDBRANCH  20  21
ENDBRANCH  15   6
ENDBRANCH   9  15
TORSDOF 6
ENDMDL
MODEL 10
REMARK VINA RESULT:      -4.9     26.496     28.427
REMARK  Name = 28991027
REMARK  7 active torsions:
REMARK  status: ('A' for Active; 'I' for Inactive)
REMARK    1  A    between atoms: O_3  and  C_21
REMARK    2  A    between atoms: O_3  and  C_22
REMARK    3  A    between atoms: N_5  and  C_14
REMARK    4  A    between atoms: N_6  and  C_15
REMARK    5  A    between atoms: C_8  and  C_14
REMARK    6  A    between atoms: C_9  and  C_15
REMARK    7  A    between atoms: C_20  and  C_21
REMARK                            x       y       z     vdW  Elec       q    Type
REMARK                         _______ _______ _______ _____ _____    ______ ____
ROOT
ATOM      4  N   UNL     1      -5.647 -12.383  16.798  0.00  0.00    -0.298 NA
ATOM      7  C   UNL     1      -6.712 -10.958  18.696  0.00  0.00    -0.003 C 
ATOM      8  C   UNL     1      -7.389 -10.662  17.338  0.00  0.00    +0.020 C 
ATOM      9  C   UNL     1      -4.586 -11.657  17.547  0.00  0.00    +0.074 C 
ATOM     10  C   UNL     1      -5.200 -10.689  18.582  0.00  0.00    +0.024 C 
ATOM     11  C   UNL     1      -6.625 -11.423  16.231  0.00  0.00    +0.089 C 
ATOM     12  C   UNL     1      -6.888 -12.465  18.965  0.00  0.00    +0.019 C 
ATOM     13  C   UNL     1      -6.363 -13.260  17.756  0.00  0.00    +0.085 C 
ENDROOT
BRANCH   8  14
ATOM     14  C   UNL     1      -7.492  -9.171  17.028  0.00  0.00    +0.089 C 
BRANCH  14   5
ATOM      1  O   UNL     1     -11.601  -9.336  16.193  0.00  0.00    -0.377 OA
ATOM      5  N   UNL     1      -8.884  -8.775  16.828  0.00  0.00    -0.298 NA
ATOM     16  C   UNL     1      -9.766  -9.471  17.774  0.00  0.00    +0.112 C 
ATOM     17  C   UNL     1      -9.311  -9.047  15.448  0.00  0.00    +0.112 C 
ATOM     18  C   UNL     1     -11.214  -9.052  17.538  0.00  0.00    +0.175 C 
ATOM     19  C   UNL     1     -10.769  -8.636  15.267  0.00  0.00    +0.175 C 
ENDBRANCH  14   5
ENDBRANCH   8  14
BRANCH   9  15
ATOM     15  C   UNL     1      -3.599 -10.945  16.618  0.00  0.00    +0.123 C 
BRANCH  15   6
ATOM      2  O   UNL     1      -1.695 -10.355  14.522  0.00  0.00    -0.273 OA
ATOM      6  N   UNL     1      -2.954 -11.895  15.726  0.00  0.00    -0.312 N 
ATOM     20  C   UNL     1      -2.053 -11.507  14.753  0.00  0.00    +0.239 C 
ATOM     23  H   UNL     1      -3.185 -12.878  15.831  0.00  0.00    +0.149 HD
BRANCH  20  21
ATOM     21  C   UNL     1      -1.536 -12.697  13.973  0.00  0.00    +0.255 C 
BRANCH  21   3
ATOM      3  O   UNL     1      -2.521 -13.705  13.892  0.00  0.00    -0.374 OA
ATOM     22  C   UNL     1      -1.966 -15.004  14.082  0.00  0.00    +0.194 C 
ENDBRANCH  21   3
ENDBRANCH  20  21
ENDBRANCH  15   6
ENDBRANCH   9  15
TORSDOF 6
ENDMDL
