MODEL 1
REMARK VINA RESULT:      -7.7      0.000      0.000
REMARK  Name = 7673889
REMARK  4 active torsions:
REMARK  status: ('A' for Active; 'I' for Inactive)
REMARK    1  A    between atoms: N_3  and  C_12
REMARK    2  A    between atoms: C_21  and  C_24
REMARK    3  A    between atoms: C_23  and  C_25
REMARK    4  A    between atoms: C_28  and  C_31
REMARK                            x       y       z     vdW  Elec       q    Type
REMARK                         _______ _______ _______ _____ _____    ______ ____
ROOT
ATOM      1  O   UNL     1      -5.180 -12.641  10.457  0.00  0.00    -0.267 OA
ATOM      3  N   UNL     1      -3.895 -11.077  15.045  0.00  0.00    -0.298 NA
ATOM      4  N   UNL     1      -3.572 -11.933  11.989  0.00  0.00    -0.311 N 
ATOM      7  C   UNL     1      -3.023 -13.241  14.125  0.00  0.00    +0.024 C 
ATOM      8  C   UNL     1      -1.833 -11.157  13.637  0.00  0.00    +0.050 C 
ATOM      9  C   UNL     1      -1.636 -12.635  13.963  0.00  0.00    +0.017 C 
ATOM     10  C   UNL     1      -3.783 -12.525  15.262  0.00  0.00    +0.090 C 
ATOM     11  C   UNL     1      -2.579 -10.467  14.801  0.00  0.00    +0.094 C 
ATOM     13  C   UNL     1      -3.759 -13.158  12.780  0.00  0.00    +0.130 C 
ATOM     14  C   UNL     1      -2.603 -10.989  12.339  0.00  0.00    +0.026 A 
ATOM     19  C   UNL     1      -2.370  -9.935  11.542  0.00  0.00    +0.022 A 
ATOM     20  C   UNL     1      -4.341 -11.813  10.815  0.00  0.00    +0.259 A 
ATOM     21  C   UNL     1      -4.082 -10.602   9.960  0.00  0.00    +0.047 A 
ATOM     22  C   UNL     1      -3.127  -9.739  10.339  0.00  0.00    +0.015 A 
ENDROOT
BRANCH   3  12
ATOM      2  O   UNL     1      -7.432 -11.671  20.023  0.00  0.00    -0.276 OA
ATOM      5  N   UNL     1      -6.606 -10.453  18.226  0.00  0.00    -0.302 N 
ATOM     12  C   UNL     1      -4.572 -10.431  16.166  0.00  0.00    +0.060 C 
ATOM     15  C   UNL     1      -6.054 -10.218  15.833  0.00  0.00    +0.038 C 
ATOM     16  C   UNL     1      -4.425 -11.282  17.433  0.00  0.00    +0.038 C 
ATOM     17  C   UNL     1      -6.805  -9.628  17.027  0.00  0.00    +0.109 C 
ATOM     18  C   UNL     1      -5.207 -10.672  18.595  0.00  0.00    +0.109 C 
ATOM     23  C   UNL     1      -7.624 -10.980  19.020  0.00  0.00    +0.212 C 
ATOM     25  C   UNL     1      -9.038 -10.672  18.598  0.00  0.00    +0.109 C 
ENDBRANCH   3  12
BRANCH  21  24
ATOM     24  C   UNL     1      -4.859 -10.355   8.732  0.00  0.00    -0.011 A 
ATOM     26  C   UNL     1      -4.573 -11.069   7.568  0.00  0.00    +0.027 A 
ATOM     27  C   UNL     1      -5.883  -9.407   8.733  0.00  0.00    +0.009 A 
ATOM     28  C   UNL     1      -5.310 -10.836   6.407  0.00  0.00    +0.052 A 
ATOM     29  C   UNL     1      -6.619  -9.173   7.571  0.00  0.00    +0.002 A 
ATOM     30  C   UNL     1      -6.332  -9.887   6.409  0.00  0.00    +0.019 A 
BRANCH  28  31
ATOM      6  N   UNL     1      -4.777 -12.160   4.244  0.00  0.00    -0.191 NA
ATOM     31  C   UNL     1      -5.016 -11.567   5.214  0.00  0.00    +0.099 C 
ENDBRANCH  28  31
ENDBRANCH  21  24
TORSDOF 3
ENDMDL
MODEL 2
REMARK VINA RESULT:      -7.5      1.852      2.364
REMARK  Name = 7673889
REMARK  4 active torsions:
REMARK  status: ('A' for Active; 'I' for Inactive)
REMARK    1  A    between atoms: N_3  and  C_12
REMARK    2  A    between atoms: C_21  and  C_24
REMARK    3  A    between atoms: C_23  and  C_25
REMARK    4  A    between atoms: C_28  and  C_31
REMARK                            x       y       z     vdW  Elec       q    Type
REMARK                         _______ _______ _______ _____ _____    ______ ____
ROOT
ATOM      1  O   UNL     1      -6.141 -11.883   9.752  0.00  0.00    -0.267 OA
ATOM      3  N   UNL     1      -4.041 -11.017  14.223  0.00  0.00    -0.298 NA
ATOM      4  N   UNL     1      -4.259 -11.531  11.082  0.00  0.00    -0.311 N 
ATOM      7  C   UNL     1      -3.573 -13.134  12.963  0.00  0.00    +0.024 C 
ATOM      8  C   UNL     1      -2.224 -11.141  12.513  0.00  0.00    +0.050 C 
ATOM      9  C   UNL     1      -2.161 -12.659  12.651  0.00  0.00    +0.017 C 
ATOM     10  C   UNL     1      -4.073 -12.484  14.270  0.00  0.00    +0.090 C 
ATOM     11  C   UNL     1      -2.710 -10.521  13.843  0.00  0.00    +0.094 C 
ATOM     13  C   UNL     1      -4.477 -12.816  11.764  0.00  0.00    +0.130 C 
ATOM     14  C   UNL     1      -3.145 -10.741  11.373  0.00  0.00    +0.026 A 
ATOM     19  C   UNL     1      -2.903  -9.628  10.662  0.00  0.00    +0.022 A 
ATOM     20  C   UNL     1      -5.167 -11.194  10.060  0.00  0.00    +0.259 A 
ATOM     21  C   UNL     1      -4.889  -9.923   9.303  0.00  0.00    +0.047 A 
ATOM     22  C   UNL     1      -3.794  -9.214   9.616  0.00  0.00    +0.015 A 
ENDROOT
BRANCH   3  12
ATOM      2  O   UNL     1      -6.657 -11.892  19.703  0.00  0.00    -0.276 OA
ATOM      5  N   UNL     1      -6.101 -10.558  17.884  0.00  0.00    -0.302 N 
ATOM     12  C   UNL     1      -4.470 -10.442  15.495  0.00  0.00    +0.060 C 
ATOM     15  C   UNL     1      -5.974 -10.142  15.456  0.00  0.00    +0.038 C 
ATOM     16  C   UNL     1      -4.145 -11.404  16.645  0.00  0.00    +0.038 C 
ATOM     17  C   UNL     1      -6.465  -9.627  16.809  0.00  0.00    +0.109 C 
ATOM     18  C   UNL     1      -4.672 -10.864  17.973  0.00  0.00    +0.109 C 
ATOM     23  C   UNL     1      -6.987 -11.110  18.808  0.00  0.00    +0.212 C 
ATOM     25  C   UNL     1      -8.435 -10.711  18.677  0.00  0.00    +0.109 C 
ENDBRANCH   3  12
BRANCH  21  24
ATOM     24  C   UNL     1      -5.797  -9.453   8.242  0.00  0.00    -0.011 A 
ATOM     26  C   UNL     1      -6.762  -8.485   8.526  0.00  0.00    +0.027 A 
ATOM     27  C   UNL     1      -5.693  -9.974   6.952  0.00  0.00    +0.009 A 
ATOM     28  C   UNL     1      -7.621  -8.039   7.521  0.00  0.00    +0.052 A 
ATOM     29  C   UNL     1      -6.553  -9.529   5.948  0.00  0.00    +0.002 A 
ATOM     30  C   UNL     1      -7.517  -8.561   6.233  0.00  0.00    +0.019 A 
BRANCH  28  31
ATOM      6  N   UNL     1      -9.414  -6.246   8.050  0.00  0.00    -0.191 NA
ATOM     31  C   UNL     1      -8.610  -7.049   7.814  0.00  0.00    +0.099 C 
ENDBRANCH  28  31
ENDBRANCH  21  24
TORSDOF 3
ENDMDL
MODEL 3
REMARK VINA RESULT:      -7.4     23.177     26.562
REMARK  Name = 7673889
REMARK  4 active torsions:
REMARK  status: ('A' for Active; 'I' for Inactive)
REMARK    1  A    between atoms: N_3  and  C_12
REMARK    2  A    between atoms: C_21  and  C_24
REMARK    3  A    between atoms: C_23  and  C_25
REMARK    4  A    between atoms: C_28  and  C_31
REMARK                            x       y       z     vdW  Elec       q    Type
REMARK                         _______ _______ _______ _____ _____    ______ ____
ROOT
ATOM      1  O   UNL     1      12.037   7.426   4.321  0.00  0.00    -0.267 OA
ATOM      3  N   UNL     1      11.587   5.876  -0.427  0.00  0.00    -0.298 NA
ATOM      4  N   UNL     1      12.265   5.777   2.688  0.00  0.00    -0.311 N 
ATOM      7  C   UNL     1      13.833   6.030   0.675  0.00  0.00    +0.024 C 
ATOM      8  C   UNL     1      12.503   3.991   0.931  0.00  0.00    +0.050 C 
ATOM      9  C   UNL     1      13.926   4.512   0.744  0.00  0.00    +0.017 C 
ATOM     10  C   UNL     1      12.935   6.452  -0.506  0.00  0.00    +0.090 C 
ATOM     11  C   UNL     1      11.636   4.414  -0.276  0.00  0.00    +0.094 C 
ATOM     13  C   UNL     1      13.321   6.556   2.023  0.00  0.00    +0.130 C 
ATOM     14  C   UNL     1      11.904   4.510   2.225  0.00  0.00    +0.026 A 
ATOM     19  C   UNL     1      11.019   3.769   2.911  0.00  0.00    +0.022 A 
ATOM     20  C   UNL     1      11.718   6.327   3.863  0.00  0.00    +0.259 A 
ATOM     21  C   UNL     1      10.703   5.488   4.592  0.00  0.00    +0.047 A 
ATOM     22  C   UNL     1      10.408   4.272   4.108  0.00  0.00    +0.015 A 
ENDROOT
BRANCH   3  12
ATOM      2  O   UNL     1       6.812   9.028  -2.642  0.00  0.00    -0.276 OA
ATOM      5  N   UNL     1       8.319   7.263  -2.721  0.00  0.00    -0.302 N 
ATOM     12  C   UNL     1      10.786   6.255  -1.589  0.00  0.00    +0.060 C 
ATOM     15  C   UNL     1       9.523   5.387  -1.663  0.00  0.00    +0.038 C 
ATOM     16  C   UNL     1      10.411   7.741  -1.508  0.00  0.00    +0.038 C 
ATOM     17  C   UNL     1       8.622   5.829  -2.816  0.00  0.00    +0.109 C 
ATOM     18  C   UNL     1       9.493   8.135  -2.664  0.00  0.00    +0.109 C 
ATOM     23  C   UNL     1       7.041   7.819  -2.724  0.00  0.00    +0.212 C 
ATOM     25  C   UNL     1       5.885   6.856  -2.831  0.00  0.00    +0.109 C 
ENDBRANCH   3  12
BRANCH  21  24
ATOM     24  C   UNL     1      10.035   5.983   5.808  0.00  0.00    -0.011 A 
ATOM     26  C   UNL     1      10.244   5.342   7.030  0.00  0.00    +0.027 A 
ATOM     27  C   UNL     1       9.193   7.094   5.740  0.00  0.00    +0.009 A 
ATOM     28  C   UNL     1       9.612   5.812   8.182  0.00  0.00    +0.052 A 
ATOM     29  C   UNL     1       8.561   7.562   6.891  0.00  0.00    +0.002 A 
ATOM     30  C   UNL     1       8.770   6.922   8.112  0.00  0.00    +0.019 A 
BRANCH  28  31
ATOM      6  N   UNL     1       9.998   4.619  10.450  0.00  0.00    -0.191 NA
ATOM     31  C   UNL     1       9.825   5.154   9.433  0.00  0.00    +0.099 C 
ENDBRANCH  28  31
ENDBRANCH  21  24
TORSDOF 3
ENDMDL
MODEL 4
REMARK VINA RESULT:      -7.4     24.043     27.214
REMARK  Name = 7673889
REMARK  4 active torsions:
REMARK  status: ('A' for Active; 'I' for Inactive)
REMARK    1  A    between atoms: N_3  and  C_12
REMARK    2  A    between atoms: C_21  and  C_24
REMARK    3  A    between atoms: C_23  and  C_25
REMARK    4  A    between atoms: C_28  and  C_31
REMARK                            x       y       z     vdW  Elec       q    Type
REMARK                         _______ _______ _______ _____ _____    ______ ____
ROOT
ATOM      1  O   UNL     1      12.356   7.503   3.006  0.00  0.00    -0.267 OA
ATOM      3  N   UNL     1      13.364   4.573  -0.936  0.00  0.00    -0.298 NA
ATOM      4  N   UNL     1      12.914   5.427   2.104  0.00  0.00    -0.311 N 
ATOM      7  C   UNL     1      15.096   5.017   0.822  0.00  0.00    +0.024 C 
ATOM      8  C   UNL     1      13.506   3.181   1.133  0.00  0.00    +0.050 C 
ATOM      9  C   UNL     1      14.961   3.592   1.342  0.00  0.00    +0.017 C 
ATOM     10  C   UNL     1      14.720   5.071  -0.674  0.00  0.00    +0.090 C 
ATOM     11  C   UNL     1      13.168   3.228  -0.375  0.00  0.00    +0.094 C 
ATOM     13  C   UNL     1      14.225   5.942   1.682  0.00  0.00    +0.130 C 
ATOM     14  C   UNL     1      12.572   4.086   1.915  0.00  0.00    +0.026 A 
ATOM     19  C   UNL     1      11.417   3.610   2.407  0.00  0.00    +0.022 A 
ATOM     20  C   UNL     1      12.073   6.323   2.791  0.00  0.00    +0.259 A 
ATOM     21  C   UNL     1      10.770   5.769   3.301  0.00  0.00    +0.047 A 
ATOM     22  C   UNL     1      10.503   4.469   3.105  0.00  0.00    +0.015 A 
ENDROOT
BRANCH   3  12
ATOM      2  O   UNL     1       9.116   4.708  -5.361  0.00  0.00    -0.276 OA
ATOM      5  N   UNL     1      11.225   4.158  -4.558  0.00  0.00    -0.302 N 
ATOM     12  C   UNL     1      13.067   4.591  -2.367  0.00  0.00    +0.060 C 
ATOM     15  C   UNL     1      12.709   3.179  -2.847  0.00  0.00    +0.038 C 
ATOM     16  C   UNL     1      11.915   5.563  -2.654  0.00  0.00    +0.038 C 
ATOM     17  C   UNL     1      12.303   3.190  -4.321  0.00  0.00    +0.109 C 
ATOM     18  C   UNL     1      11.525   5.526  -4.130  0.00  0.00    +0.109 C 
ATOM     23  C   UNL     1      10.007   3.876  -5.174  0.00  0.00    +0.212 C 
ATOM     25  C   UNL     1       9.793   2.453  -5.626  0.00  0.00    +0.109 C 
ENDBRANCH   3  12
BRANCH  21  24
ATOM     24  C   UNL     1       9.795   6.628   3.997  0.00  0.00    -0.011 A 
ATOM     26  C   UNL     1       9.724   6.616   5.390  0.00  0.00    +0.027 A 
ATOM     27  C   UNL     1       8.944   7.455   3.263  0.00  0.00    +0.009 A 
ATOM     28  C   UNL     1       8.802   7.431   6.049  0.00  0.00    +0.052 A 
ATOM     29  C   UNL     1       8.022   8.268   3.922  0.00  0.00    +0.002 A 
ATOM     30  C   UNL     1       7.951   8.255   5.314  0.00  0.00    +0.019 A 
BRANCH  28  31
ATOM      6  N   UNL     1       8.667   7.405   8.637  0.00  0.00    -0.191 NA
ATOM     31  C   UNL     1       8.727   7.417   7.477  0.00  0.00    +0.099 C 
ENDBRANCH  28  31
ENDBRANCH  21  24
TORSDOF 3
ENDMDL
MODEL 5
REMARK VINA RESULT:      -7.1     27.908     30.662
REMARK  Name = 7673889
REMARK  4 active torsions:
REMARK  status: ('A' for Active; 'I' for Inactive)
REMARK    1  A    between atoms: N_3  and  C_12
REMARK    2  A    between atoms: C_21  and  C_24
REMARK    3  A    between atoms: C_23  and  C_25
REMARK    4  A    between atoms: C_28  and  C_31
REMARK                            x       y       z     vdW  Elec       q    Type
REMARK                         _______ _______ _______ _____ _____    ______ ____
ROOT
ATOM      1  O   UNL     1      16.174   5.847  19.238  0.00  0.00    -0.267 OA
ATOM      3  N   UNL     1      13.850  10.119  18.015  0.00  0.00    -0.298 NA
ATOM      4  N   UNL     1      14.866   7.689  19.814  0.00  0.00    -0.311 N 
ATOM      7  C   UNL     1      12.554   8.118  18.793  0.00  0.00    +0.024 C 
ATOM      8  C   UNL     1      13.462   9.681  20.443  0.00  0.00    +0.050 C 
ATOM      9  C   UNL     1      12.258   8.802  20.120  0.00  0.00    +0.017 C 
ATOM     10  C   UNL     1      12.772   9.176  17.690  0.00  0.00    +0.090 C 
ATOM     11  C   UNL     1      13.642  10.740  19.332  0.00  0.00    +0.094 C 
ATOM     13  C   UNL     1      13.766   7.195  18.971  0.00  0.00    +0.130 C 
ATOM     14  C   UNL     1      14.720   8.843  20.586  0.00  0.00    +0.026 A 
ATOM     19  C   UNL     1      15.692   9.215  21.434  0.00  0.00    +0.022 A 
ATOM     20  C   UNL     1      16.023   6.889  19.878  0.00  0.00    +0.259 A 
ATOM     21  C   UNL     1      17.111   7.350  20.810  0.00  0.00    +0.047 A 
ATOM     22  C   UNL     1      16.906   8.457  21.540  0.00  0.00    +0.015 A 
ENDROOT
BRANCH   3  12
ATOM      2  O   UNL     1      15.526  11.477  12.271  0.00  0.00    -0.276 OA
ATOM      5  N   UNL     1      15.174  12.048  14.495  0.00  0.00    -0.302 N 
ATOM     12  C   UNL     1      13.989  11.134  16.974  0.00  0.00    +0.060 C 
ATOM     15  C   UNL     1      15.440  11.628  16.912  0.00  0.00    +0.038 C 
ATOM     16  C   UNL     1      13.560  10.560  15.617  0.00  0.00    +0.038 C 
ATOM     17  C   UNL     1      15.631  12.623  15.767  0.00  0.00    +0.109 C 
ATOM     18  C   UNL     1      13.789  11.575  14.499  0.00  0.00    +0.109 C 
ATOM     23  C   UNL     1      15.932  11.967  13.328  0.00  0.00    +0.212 C 
ATOM     25  C   UNL     1      17.335  12.516  13.394  0.00  0.00    +0.109 C 
ENDBRANCH   3  12
BRANCH  21  24
ATOM     24  C   UNL     1      18.382   6.613  20.924  0.00  0.00    -0.011 A 
ATOM     26  C   UNL     1      19.233   6.850  22.004  0.00  0.00    +0.027 A 
ATOM     27  C   UNL     1      18.735   5.675  19.952  0.00  0.00    +0.009 A 
ATOM     28  C   UNL     1      20.436   6.151  22.111  0.00  0.00    +0.052 A 
ATOM     29  C   UNL     1      19.938   4.977  20.060  0.00  0.00    +0.002 A 
ATOM     30  C   UNL     1      20.788   5.215  21.139  0.00  0.00    +0.019 A 
BRANCH  28  31
ATOM      6  N   UNL     1      22.019   6.594  24.115  0.00  0.00    -0.191 NA
ATOM     31  C   UNL     1      21.309   6.395  23.217  0.00  0.00    +0.099 C 
ENDBRANCH  28  31
ENDBRANCH  21  24
TORSDOF 3
ENDMDL
MODEL 6
REMARK VINA RESULT:      -7.0     28.751     30.724
REMARK  Name = 7673889
REMARK  4 active torsions:
REMARK  status: ('A' for Active; 'I' for Inactive)
REMARK    1  A    between atoms: N_3  and  C_12
REMARK    2  A    between atoms: C_21  and  C_24
REMARK    3  A    between atoms: C_23  and  C_25
REMARK    4  A    between atoms: C_28  and  C_31
REMARK                            x       y       z     vdW  Elec       q    Type
REMARK                         _______ _______ _______ _____ _____    ______ ____
ROOT
ATOM      1  O   UNL     1      12.795  11.901  19.965  0.00  0.00    -0.267 OA
ATOM      3  N   UNL     1      12.969  13.114  24.828  0.00  0.00    -0.298 NA
ATOM      4  N   UNL     1      11.758  12.152  22.038  0.00  0.00    -0.311 N 
ATOM      7  C   UNL     1      11.555  14.418  23.220  0.00  0.00    +0.024 C 
ATOM      8  C   UNL     1      10.637  12.410  24.277  0.00  0.00    +0.050 C 
ATOM      9  C   UNL     1      10.288  13.824  23.822  0.00  0.00    +0.017 C 
ATOM     10  C   UNL     1      12.680  14.443  24.276  0.00  0.00    +0.090 C 
ATOM     11  C   UNL     1      11.752  12.471  25.346  0.00  0.00    +0.094 C 
ATOM     13  C   UNL     1      11.935  13.610  21.972  0.00  0.00    +0.130 C 
ATOM     14  C   UNL     1      11.075  11.556  23.101  0.00  0.00    +0.026 A 
ATOM     19  C   UNL     1      10.825  10.237  23.087  0.00  0.00    +0.022 A 
ATOM     20  C   UNL     1      12.219  11.407  20.936  0.00  0.00    +0.259 A 
ATOM     21  C   UNL     1      11.956   9.925  20.965  0.00  0.00    +0.047 A 
ATOM     22  C   UNL     1      11.279   9.413  22.004  0.00  0.00    +0.015 A 
ENDROOT
BRANCH   3  12
ATOM      2  O   UNL     1      15.377  10.746  29.950  0.00  0.00    -0.276 OA
ATOM      5  N   UNL     1      14.962  12.518  28.507  0.00  0.00    -0.302 N 
ATOM     12  C   UNL     1      14.001  13.188  25.860  0.00  0.00    +0.060 C 
ATOM     15  C   UNL     1      13.442  13.872  27.114  0.00  0.00    +0.038 C 
ATOM     16  C   UNL     1      14.510  11.781  26.199  0.00  0.00    +0.038 C 
ATOM     17  C   UNL     1      14.475  13.877  28.241  0.00  0.00    +0.109 C 
ATOM     18  C   UNL     1      15.520  11.828  27.343  0.00  0.00    +0.109 C 
ATOM     23  C   UNL     1      14.963  11.891  29.752  0.00  0.00    +0.212 C 
ATOM     25  C   UNL     1      14.412  12.685  30.909  0.00  0.00    +0.109 C 
ENDBRANCH   3  12
BRANCH  21  24
ATOM     24  C   UNL     1      12.432   9.044  19.884  0.00  0.00    -0.011 A 
ATOM     26  C   UNL     1      13.664   8.400  19.999  0.00  0.00    +0.027 A 
ATOM     27  C   UNL     1      11.650   8.852  18.743  0.00  0.00    +0.009 A 
ATOM     28  C   UNL     1      14.114   7.565  18.976  0.00  0.00    +0.052 A 
ATOM     29  C   UNL     1      12.101   8.019  17.720  0.00  0.00    +0.002 A 
ATOM     30  C   UNL     1      13.333   7.375  17.837  0.00  0.00    +0.019 A 
BRANCH  28  31
ATOM      6  N   UNL     1      16.403   6.370  19.190  0.00  0.00    -0.191 NA
ATOM     31  C   UNL     1      15.377   6.906  19.094  0.00  0.00    +0.099 C 
ENDBRANCH  28  31
ENDBRANCH  21  24
TORSDOF 3
ENDMDL
MODEL 7
REMARK VINA RESULT:      -7.0     30.231     32.596
REMARK  Name = 7673889
REMARK  4 active torsions:
REMARK  status: ('A' for Active; 'I' for Inactive)
REMARK    1  A    between atoms: N_3  and  C_12
REMARK    2  A    between atoms: C_21  and  C_24
REMARK    3  A    between atoms: C_23  and  C_25
REMARK    4  A    between atoms: C_28  and  C_31
REMARK                            x       y       z     vdW  Elec       q    Type
REMARK                         _______ _______ _______ _____ _____    ______ ____
ROOT
ATOM      1  O   UNL     1      16.748   8.641  21.716  0.00  0.00    -0.267 OA
ATOM      3  N   UNL     1      21.607   8.399  20.502  0.00  0.00    -0.298 NA
ATOM      4  N   UNL     1      18.730   7.436  21.487  0.00  0.00    -0.311 N 
ATOM      7  C   UNL     1      20.837   7.965  22.848  0.00  0.00    +0.024 C 
ATOM      8  C   UNL     1      20.866   6.128  21.230  0.00  0.00    +0.050 C 
ATOM      9  C   UNL     1      21.133   6.480  22.691  0.00  0.00    +0.017 C 
ATOM     10  C   UNL     1      21.747   8.787  21.911  0.00  0.00    +0.090 C 
ATOM     11  C   UNL     1      21.804   6.953  20.320  0.00  0.00    +0.094 C 
ATOM     13  C   UNL     1      19.345   8.203  22.580  0.00  0.00    +0.130 C 
ATOM     14  C   UNL     1      19.414   6.386  20.869  0.00  0.00    +0.026 A 
ATOM     19  C   UNL     1      18.796   5.626  19.952  0.00  0.00    +0.022 A 
ATOM     20  C   UNL     1      17.394   7.745  21.169  0.00  0.00    +0.259 A 
ATOM     21  C   UNL     1      16.738   6.898  20.112  0.00  0.00    +0.047 A 
ATOM     22  C   UNL     1      17.439   5.892  19.567  0.00  0.00    +0.015 A 
ENDROOT
BRANCH   3  12
ATOM      2  O   UNL     1      27.206  10.787  19.730  0.00  0.00    -0.276 OA
ATOM      5  N   UNL     1      24.916  10.758  19.341  0.00  0.00    -0.302 N 
ATOM     12  C   UNL     1      22.521   9.162  19.655  0.00  0.00    +0.060 C 
ATOM     15  C   UNL     1      22.582  10.620  20.127  0.00  0.00    +0.038 C 
ATOM     16  C   UNL     1      23.919   8.530  19.685  0.00  0.00    +0.038 C 
ATOM     17  C   UNL     1      23.604  11.416  19.316  0.00  0.00    +0.109 C 
ATOM     18  C   UNL     1      24.913   9.368  18.883  0.00  0.00    +0.109 C 
ATOM     23  C   UNL     1      26.115  11.363  19.717  0.00  0.00    +0.212 C 
ATOM     25  C   UNL     1      26.041  12.810  20.132  0.00  0.00    +0.109 C 
ENDBRANCH   3  12
BRANCH  21  24
ATOM     24  C   UNL     1      15.356   7.161  19.672  0.00  0.00    -0.011 A 
ATOM     26  C   UNL     1      14.281   6.710  20.439  0.00  0.00    +0.027 A 
ATOM     27  C   UNL     1      15.121   7.863  18.489  0.00  0.00    +0.009 A 
ATOM     28  C   UNL     1      12.973   6.960  20.022  0.00  0.00    +0.052 A 
ATOM     29  C   UNL     1      13.814   8.112  18.073  0.00  0.00    +0.002 A 
ATOM     30  C   UNL     1      12.740   7.660  18.840  0.00  0.00    +0.019 A 
BRANCH  28  31
ATOM      6  N   UNL     1      10.977   6.117  21.444  0.00  0.00    -0.191 NA
ATOM     31  C   UNL     1      11.872   6.496  20.807  0.00  0.00    +0.099 C 
ENDBRANCH  28  31
ENDBRANCH  21  24
TORSDOF 3
ENDMDL
MODEL 8
REMARK VINA RESULT:      -7.0     28.237     30.863
REMARK  Name = 7673889
REMARK  4 active torsions:
REMARK  status: ('A' for Active; 'I' for Inactive)
REMARK    1  A    between atoms: N_3  and  C_12
REMARK    2  A    between atoms: C_21  and  C_24
REMARK    3  A    between atoms: C_23  and  C_25
REMARK    4  A    between atoms: C_28  and  C_31
REMARK                            x       y       z     vdW  Elec       q    Type
REMARK                         _______ _______ _______ _____ _____    ______ ____
ROOT
ATOM      1  O   UNL     1      17.695   5.800  19.547  0.00  0.00    -0.267 OA
ATOM      3  N   UNL     1      14.306   9.407  18.742  0.00  0.00    -0.298 NA
ATOM      4  N   UNL     1      16.130   7.336  20.340  0.00  0.00    -0.311 N 
ATOM      7  C   UNL     1      13.640   7.207  19.744  0.00  0.00    +0.024 C 
ATOM      8  C   UNL     1      14.450   9.000  21.202  0.00  0.00    +0.050 C 
ATOM      9  C   UNL     1      13.433   7.866  21.101  0.00  0.00    +0.017 C 
ATOM     10  C   UNL     1      13.425   8.239  18.617  0.00  0.00    +0.090 C 
ATOM     11  C   UNL     1      14.195  10.024  20.072  0.00  0.00    +0.094 C 
ATOM     13  C   UNL     1      15.039   6.578  19.708  0.00  0.00    +0.130 C 
ATOM     14  C   UNL     1      15.867   8.462  21.122  0.00  0.00    +0.026 A 
ATOM     19  C   UNL     1      16.864   9.073  21.782  0.00  0.00    +0.022 A 
ATOM     20  C   UNL     1      17.430   6.811  20.200  0.00  0.00    +0.259 A 
ATOM     21  C   UNL     1      18.532   7.536  20.923  0.00  0.00    +0.047 A 
ATOM     22  C   UNL     1      18.216   8.603  21.673  0.00  0.00    +0.015 A 
ENDROOT
BRANCH   3  12
ATOM      2  O   UNL     1      15.269  11.216  12.959  0.00  0.00    -0.276 OA
ATOM      5  N   UNL     1      14.752  11.642  15.183  0.00  0.00    -0.302 N 
ATOM     12  C   UNL     1      14.035  10.383  17.689  0.00  0.00    +0.060 C 
ATOM     15  C   UNL     1      15.186  11.393  17.599  0.00  0.00    +0.038 C 
ATOM     16  C   UNL     1      13.841   9.668  16.345  0.00  0.00    +0.038 C 
ATOM     17  C   UNL     1      14.969  12.367  16.441  0.00  0.00    +0.109 C 
ATOM     18  C   UNL     1      13.652  10.677  15.214  0.00  0.00    +0.109 C 
ATOM     23  C   UNL     1      15.470  11.839  14.004  0.00  0.00    +0.212 C 
ATOM     25  C   UNL     1      16.557  12.883  14.041  0.00  0.00    +0.109 C 
ENDBRANCH   3  12
BRANCH  21  24
ATOM     24  C   UNL     1      19.935   7.099  20.812  0.00  0.00    -0.011 A 
ATOM     26  C   UNL     1      20.264   5.754  20.989  0.00  0.00    +0.027 A 
ATOM     27  C   UNL     1      20.936   8.028  20.527  0.00  0.00    +0.009 A 
ATOM     28  C   UNL     1      21.592   5.340  20.882  0.00  0.00    +0.052 A 
ATOM     29  C   UNL     1      22.264   7.614  20.422  0.00  0.00    +0.002 A 
ATOM     30  C   UNL     1      22.591   6.270  20.599  0.00  0.00    +0.019 A 
BRANCH  28  31
ATOM      6  N   UNL     1      22.201   2.844  21.214  0.00  0.00    -0.191 NA
ATOM     31  C   UNL     1      21.928   3.963  21.065  0.00  0.00    +0.099 C 
ENDBRANCH  28  31
ENDBRANCH  21  24
TORSDOF 3
ENDMDL
MODEL 9
REMARK VINA RESULT:      -6.8      6.996     10.153
REMARK  Name = 7673889
REMARK  4 active torsions:
REMARK  status: ('A' for Active; 'I' for Inactive)
REMARK    1  A    between atoms: N_3  and  C_12
REMARK    2  A    between atoms: C_21  and  C_24
REMARK    3  A    between atoms: C_23  and  C_25
REMARK    4  A    between atoms: C_28  and  C_31
REMARK                            x       y       z     vdW  Elec       q    Type
REMARK                         _______ _______ _______ _____ _____    ______ ____
ROOT
ATOM      1  O   UNL     1     -12.985  -6.657   8.929  0.00  0.00    -0.267 OA
ATOM      3  N   UNL     1      -8.298  -8.423   9.184  0.00  0.00    -0.298 NA
ATOM      4  N   UNL     1     -10.757  -6.623   8.242  0.00  0.00    -0.311 N 
ATOM      7  C   UNL     1      -9.638  -8.612   7.073  0.00  0.00    +0.024 C 
ATOM      8  C   UNL     1      -8.351  -6.575   7.505  0.00  0.00    +0.050 C 
ATOM      9  C   UNL     1      -8.777  -7.547   6.408  0.00  0.00    +0.017 C 
ATOM     10  C   UNL     1      -8.828  -9.339   8.167  0.00  0.00    +0.090 C 
ATOM     11  C   UNL     1      -7.527  -7.330   8.573  0.00  0.00    +0.094 C 
ATOM     13  C   UNL     1     -10.908  -7.948   7.623  0.00  0.00    +0.130 C 
ATOM     14  C   UNL     1      -9.560  -5.911   8.138  0.00  0.00    +0.026 A 
ATOM     19  C   UNL     1      -9.478  -4.657   8.611  0.00  0.00    +0.022 A 
ATOM     20  C   UNL     1     -11.903  -6.073   8.849  0.00  0.00    +0.259 A 
ATOM     21  C   UNL     1     -11.770  -4.679   9.401  0.00  0.00    +0.047 A 
ATOM     22  C   UNL     1     -10.600  -4.038   9.257  0.00  0.00    +0.015 A 
ENDROOT
BRANCH   3  12
ATOM      2  O   UNL     1      -2.791 -10.562  10.839  0.00  0.00    -0.276 OA
ATOM      5  N   UNL     1      -5.113 -10.632  10.868  0.00  0.00    -0.302 N 
ATOM     12  C   UNL     1      -7.495  -9.142  10.170  0.00  0.00    +0.060 C 
ATOM     15  C   UNL     1      -7.300 -10.598   9.728  0.00  0.00    +0.038 C 
ATOM     16  C   UNL     1      -6.138  -8.450  10.350  0.00  0.00    +0.038 C 
ATOM     17  C   UNL     1      -6.384 -11.346  10.696  0.00  0.00    +0.109 C 
ATOM     18  C   UNL     1      -5.246  -9.241  11.306  0.00  0.00    +0.109 C 
ATOM     23  C   UNL     1      -3.846 -11.185  10.689  0.00  0.00    +0.212 C 
ATOM     25  C   UNL     1      -3.793 -12.635  10.281  0.00  0.00    +0.109 C 
ENDBRANCH   3  12
BRANCH  21  24
ATOM     24  C   UNL     1     -12.893  -4.023  10.095  0.00  0.00    -0.011 A 
ATOM     26  C   UNL     1     -13.821  -3.275   9.370  0.00  0.00    +0.027 A 
ATOM     27  C   UNL     1     -13.031  -4.151  11.478  0.00  0.00    +0.009 A 
ATOM     28  C   UNL     1     -14.884  -2.655  10.026  0.00  0.00    +0.052 A 
ATOM     29  C   UNL     1     -14.093  -3.531  12.134  0.00  0.00    +0.002 A 
ATOM     30  C   UNL     1     -15.020  -2.783  11.408  0.00  0.00    +0.019 A 
BRANCH  28  31
ATOM      6  N   UNL     1     -16.605  -1.263   8.679  0.00  0.00    -0.191 NA
ATOM     31  C   UNL     1     -15.834  -1.887   9.283  0.00  0.00    +0.099 C 
ENDBRANCH  28  31
ENDBRANCH  21  24
TORSDOF 3
ENDMDL
MODEL 10
REMARK VINA RESULT:      -6.7     20.150     23.346
REMARK  Name = 7673889
REMARK  4 active torsions:
REMARK  status: ('A' for Active; 'I' for Inactive)
REMARK    1  A    between atoms: N_3  and  C_12
REMARK    2  A    between atoms: C_21  and  C_24
REMARK    3  A    between atoms: C_23  and  C_25
REMARK    4  A    between atoms: C_28  and  C_31
REMARK                            x       y       z     vdW  Elec       q    Type
REMARK                         _______ _______ _______ _____ _____    ______ ____
ROOT
ATOM      1  O   UNL     1      -6.524   9.670   5.456  0.00  0.00    -0.267 OA
ATOM      3  N   UNL     1      -1.809  10.559   3.999  0.00  0.00    -0.298 NA
ATOM      4  N   UNL     1      -4.231   9.299   5.649  0.00  0.00    -0.311 N 
ATOM      7  C   UNL     1      -2.581  11.146   6.312  0.00  0.00    +0.024 C 
ATOM      8  C   UNL     1      -1.756   8.887   5.853  0.00  0.00    +0.050 C 
ATOM      9  C   UNL     1      -1.763  10.002   6.895  0.00  0.00    +0.017 C 
ATOM     10  C   UNL     1      -1.943  11.632   4.993  0.00  0.00    +0.090 C 
ATOM     11  C   UNL     1      -1.095   9.400   4.553  0.00  0.00    +0.094 C 
ATOM     13  C   UNL     1      -4.030  10.675   6.128  0.00  0.00    +0.130 C 
ATOM     14  C   UNL     1      -3.166   8.398   5.576  0.00  0.00    +0.026 A 
ATOM     19  C   UNL     1      -3.389   7.117   5.245  0.00  0.00    +0.022 A 
ATOM     20  C   UNL     1      -5.556   8.913   5.370  0.00  0.00    +0.259 A 
ATOM     21  C   UNL     1      -5.770   7.478   4.968  0.00  0.00    +0.047 A 
ATOM     22  C   UNL     1      -4.711   6.656   4.931  0.00  0.00    +0.015 A 
ENDROOT
BRANCH   3  12
ATOM      2  O   UNL     1       2.790   9.973  -0.019  0.00  0.00    -0.276 OA
ATOM      5  N   UNL     1       1.187  11.231   1.095  0.00  0.00    -0.302 N 
ATOM     12  C   UNL     1      -1.155  11.047   2.787  0.00  0.00    +0.060 C 
ATOM     15  C   UNL     1       0.034  11.944   3.156  0.00  0.00    +0.038 C 
ATOM     16  C   UNL     1      -0.688   9.865   1.928  0.00  0.00    +0.038 C 
ATOM     17  C   UNL     1       0.792  12.390   1.906  0.00  0.00    +0.109 C 
ATOM     18  C   UNL     1       0.084  10.352   0.703  0.00  0.00    +0.109 C 
ATOM     23  C   UNL     1       2.483  10.955   0.662  0.00  0.00    +0.212 C 
ATOM     25  C   UNL     1       3.555  11.933   1.070  0.00  0.00    +0.109 C 
ENDBRANCH   3  12
BRANCH  21  24
ATOM     24  C   UNL     1      -7.110   6.978   4.612  0.00  0.00    -0.011 A 
ATOM     26  C   UNL     1      -7.772   7.488   3.494  0.00  0.00    +0.027 A 
ATOM     27  C   UNL     1      -7.717   5.992   5.391  0.00  0.00    +0.009 A 
ATOM     28  C   UNL     1      -9.040   7.013   3.157  0.00  0.00    +0.052 A 
ATOM     29  C   UNL     1      -8.985   5.519   5.054  0.00  0.00    +0.002 A 
ATOM     30  C   UNL     1      -9.646   6.029   3.937  0.00  0.00    +0.019 A 
BRANCH  28  31
ATOM      6  N   UNL     1     -10.270   7.962   1.083  0.00  0.00    -0.191 NA
ATOM     31  C   UNL     1      -9.719   7.537   2.013  0.00  0.00    +0.099 C 
ENDBRANCH  28  31
ENDBRANCH  21  24
TORSDOF 3
ENDMDL
