MODEL 1
REMARK VINA RESULT:      -7.1      0.000      0.000
REMARK  Name = 40779387
REMARK  8 active torsions:
REMARK  status: ('A' for Active; 'I' for Inactive)
REMARK    1  A    between atoms: S_1  and  N_7
REMARK    2  A    between atoms: S_1  and  C_21
REMARK    3  A    between atoms: N_6  and  C_20
REMARK    4  A    between atoms: N_7  and  C_16
REMARK    5  A    between atoms: C_10  and  C_17
REMARK    6  A    between atoms: C_11  and  C_16
REMARK    7  A    between atoms: C_19  and  C_22
REMARK    8  A    between atoms: C_21  and  C_23
REMARK                            x       y       z     vdW  Elec       q    Type
REMARK                         _______ _______ _______ _____ _____    ______ ____
ROOT
ATOM      5  N   UNL     1      -5.270 -12.599  17.165  0.00  0.00    -0.297 NA
ATOM      9  C   UNL     1      -5.798 -10.699  18.866  0.00  0.00    +0.002 C 
ATOM     10  C   UNL     1      -7.108 -11.398  18.407  0.00  0.00    +0.055 C 
ATOM     11  C   UNL     1      -4.585 -11.345  16.755  0.00  0.00    +0.072 C 
ATOM     12  C   UNL     1      -5.049 -10.160  17.630  0.00  0.00    +0.024 C 
ATOM     13  C   UNL     1      -4.907 -11.791  19.496  0.00  0.00    +0.019 C 
ATOM     14  C   UNL     1      -6.734 -12.372  17.254  0.00  0.00    +0.094 C 
ATOM     15  C   UNL     1      -4.776 -12.967  18.514  0.00  0.00    +0.085 C 
ENDROOT
BRANCH  10  17
ATOM      6  N   UNL     1      -9.467 -10.538  18.777  0.00  0.00    -0.270 N 
ATOM      8  N   UNL     1     -10.403  -9.695  18.306  0.00  0.00    -0.171 NA
ATOM     17  C   UNL     1      -8.306 -10.526  18.062  0.00  0.00    +0.044 A 
ATOM     18  C   UNL     1      -8.494  -9.611  17.053  0.00  0.00    +0.053 A 
ATOM     19  C   UNL     1      -9.803  -9.132  17.254  0.00  0.00    +0.100 A 
ATOM     20  C   UNL     1      -9.761 -11.341  19.940  0.00  0.00    +0.172 C 
BRANCH  19  22
ATOM      2  S   UNL     1     -11.001  -8.406  14.819  0.00  0.00    -0.095 S 
ATOM     22  C   UNL     1     -10.481  -8.120  16.425  0.00  0.00    +0.039 A 
ATOM     24  C   UNL     1     -10.770  -6.839  16.841  0.00  0.00    +0.018 A 
ATOM     25  C   UNL     1     -11.427  -6.083  15.828  0.00  0.00    +0.008 A 
ATOM     28  C   UNL     1     -11.616  -6.815  14.676  0.00  0.00    +0.046 A 
ENDBRANCH  19  22
ENDBRANCH  10  17
BRANCH  11  16
ATOM     16  C   UNL     1      -4.749 -11.052  15.263  0.00  0.00    +0.124 C 
BRANCH  16   7
ATOM      7  N   UNL     1      -3.555 -10.343  14.774  0.00  0.00    -0.193 NA
ATOM     32  H   UNL     1      -3.179  -9.586  15.357  0.00  0.00    +0.148 HD
BRANCH   7   1
ATOM      1  S   UNL     1      -2.545 -11.102  13.625  0.00  0.00    +0.034 S 
ATOM      3  O   UNL     1      -1.914 -12.265  14.219  0.00  0.00    -0.158 OA
ATOM      4  O   UNL     1      -1.752 -10.085  12.963  0.00  0.00    -0.158 OA
BRANCH   1  21
ATOM     21  C   UNL     1      -3.756 -11.675  12.455  0.00  0.00    +0.220 C 
BRANCH  21  23
ATOM     23  C   UNL     1      -4.110 -10.524  11.565  0.00  0.00    -0.025 A 
ATOM     26  C   UNL     1      -3.361 -10.275  10.415  0.00  0.00    +0.005 A 
ATOM     27  C   UNL     1      -5.190  -9.700  11.886  0.00  0.00    +0.005 A 
ATOM     29  C   UNL     1      -3.691  -9.203   9.585  0.00  0.00    +0.000 A 
ATOM     30  C   UNL     1      -5.520  -8.629  11.057  0.00  0.00    +0.000 A 
ATOM     31  C   UNL     1      -4.770  -8.380   9.906  0.00  0.00    +0.000 A 
ENDBRANCH  21  23
ENDBRANCH   1  21
ENDBRANCH   7   1
ENDBRANCH  16   7
ENDBRANCH  11  16
TORSDOF 7
ENDMDL
MODEL 2
REMARK VINA RESULT:      -7.1      2.702      7.348
REMARK  Name = 40779387
REMARK  8 active torsions:
REMARK  status: ('A' for Active; 'I' for Inactive)
REMARK    1  A    between atoms: S_1  and  N_7
REMARK    2  A    between atoms: S_1  and  C_21
REMARK    3  A    between atoms: N_6  and  C_20
REMARK    4  A    between atoms: N_7  and  C_16
REMARK    5  A    between atoms: C_10  and  C_17
REMARK    6  A    between atoms: C_11  and  C_16
REMARK    7  A    between atoms: C_19  and  C_22
REMARK    8  A    between atoms: C_21  and  C_23
REMARK                            x       y       z     vdW  Elec       q    Type
REMARK                         _______ _______ _______ _____ _____    ______ ____
ROOT
ATOM      5  N   UNL     1      -5.148 -10.866  18.380  0.00  0.00    -0.297 NA
ATOM      9  C   UNL     1      -5.199 -12.605  16.441  0.00  0.00    +0.002 C 
ATOM     10  C   UNL     1      -3.988 -11.643  16.279  0.00  0.00    +0.055 C 
ATOM     11  C   UNL     1      -6.505 -10.912  17.774  0.00  0.00    +0.072 C 
ATOM     12  C   UNL     1      -6.501 -11.779  16.496  0.00  0.00    +0.024 C 
ATOM     13  C   UNL     1      -5.040 -13.293  17.814  0.00  0.00    +0.019 C 
ATOM     14  C   UNL     1      -4.140 -10.523  17.346  0.00  0.00    +0.094 C 
ATOM     15  C   UNL     1      -4.836 -12.221  18.898  0.00  0.00    +0.085 C 
ENDROOT
BRANCH  10  17
ATOM      6  N   UNL     1      -2.432 -10.812  14.455  0.00  0.00    -0.270 N 
ATOM      8  N   UNL     1      -2.387 -10.325  13.203  0.00  0.00    -0.171 NA
ATOM     17  C   UNL     1      -3.694 -11.086  14.894  0.00  0.00    +0.044 A 
ATOM     18  C   UNL     1      -4.533 -10.755  13.857  0.00  0.00    +0.053 A 
ATOM     19  C   UNL     1      -3.673 -10.292  12.843  0.00  0.00    +0.100 A 
ATOM     20  C   UNL     1      -1.200 -10.992  15.186  0.00  0.00    +0.172 C 
BRANCH  19  22
ATOM      2  S   UNL     1      -5.690  -9.310  11.152  0.00  0.00    -0.095 S 
ATOM     22  C   UNL     1      -4.094  -9.817  11.514  0.00  0.00    +0.039 A 
ATOM     24  C   UNL     1      -3.264  -9.728  10.419  0.00  0.00    +0.018 A 
ATOM     25  C   UNL     1      -3.945  -9.237   9.268  0.00  0.00    +0.008 A 
ATOM     28  C   UNL     1      -5.272  -8.968   9.528  0.00  0.00    +0.046 A 
ENDBRANCH  19  22
ENDBRANCH  10  17
BRANCH  11  16
ATOM     16  C   UNL     1      -7.075  -9.516  17.514  0.00  0.00    +0.124 C 
BRANCH  16   7
ATOM      7  N   UNL     1      -7.550  -9.437  16.123  0.00  0.00    -0.193 NA
ATOM     32  H   UNL     1      -6.915  -9.764  15.384  0.00  0.00    +0.148 HD
BRANCH   7   1
ATOM      1  S   UNL     1      -9.227  -9.355  15.817  0.00  0.00    +0.034 S 
ATOM      3  O   UNL     1      -9.876 -10.554  16.312  0.00  0.00    -0.158 OA
ATOM      4  O   UNL     1      -9.426  -8.916  14.449  0.00  0.00    -0.158 OA
BRANCH   1  21
ATOM     21  C   UNL     1      -9.687  -8.005  16.879  0.00  0.00    +0.220 C 
BRANCH  21  23
ATOM     23  C   UNL     1     -10.963  -7.425  16.353  0.00  0.00    -0.025 A 
ATOM     26  C   UNL     1     -10.946  -6.212  15.665  0.00  0.00    +0.005 A 
ATOM     27  C   UNL     1     -12.170  -8.096  16.552  0.00  0.00    +0.005 A 
ATOM     29  C   UNL     1     -12.135  -5.671  15.174  0.00  0.00    +0.000 A 
ATOM     30  C   UNL     1     -13.358  -7.556  16.063  0.00  0.00    +0.000 A 
ATOM     31  C   UNL     1     -13.341  -6.343  15.373  0.00  0.00    +0.000 A 
ENDBRANCH  21  23
ENDBRANCH   1  21
ENDBRANCH   7   1
ENDBRANCH  16   7
ENDBRANCH  11  16
TORSDOF 7
ENDMDL
MODEL 3
REMARK VINA RESULT:      -7.0      2.906      5.041
REMARK  Name = 40779387
REMARK  8 active torsions:
REMARK  status: ('A' for Active; 'I' for Inactive)
REMARK    1  A    between atoms: S_1  and  N_7
REMARK    2  A    between atoms: S_1  and  C_21
REMARK    3  A    between atoms: N_6  and  C_20
REMARK    4  A    between atoms: N_7  and  C_16
REMARK    5  A    between atoms: C_10  and  C_17
REMARK    6  A    between atoms: C_11  and  C_16
REMARK    7  A    between atoms: C_19  and  C_22
REMARK    8  A    between atoms: C_21  and  C_23
REMARK                            x       y       z     vdW  Elec       q    Type
REMARK                         _______ _______ _______ _____ _____    ______ ____
ROOT
ATOM      5  N   UNL     1      -6.618 -12.732  17.918  0.00  0.00    -0.297 NA
ATOM      9  C   UNL     1      -5.193 -10.662  17.231  0.00  0.00    +0.002 C 
ATOM     10  C   UNL     1      -6.551 -10.664  16.474  0.00  0.00    +0.055 C 
ATOM     11  C   UNL     1      -5.242 -13.161  17.549  0.00  0.00    +0.072 C 
ATOM     12  C   UNL     1      -4.448 -11.983  16.944  0.00  0.00    +0.024 C 
ATOM     13  C   UNL     1      -5.524 -10.646  18.739  0.00  0.00    +0.019 C 
ATOM     14  C   UNL     1      -7.250 -12.020  16.780  0.00  0.00    +0.094 C 
ATOM     15  C   UNL     1      -6.509 -11.785  19.054  0.00  0.00    +0.085 C 
ENDROOT
BRANCH  10  17
ATOM      6  N   UNL     1      -7.625  -9.819  14.337  0.00  0.00    -0.270 N 
ATOM      8  N   UNL     1      -7.416  -9.605  13.025  0.00  0.00    -0.171 NA
ATOM     17  C   UNL     1      -6.546 -10.339  14.988  0.00  0.00    +0.044 A 
ATOM     18  C   UNL     1      -5.562 -10.475  14.038  0.00  0.00    +0.053 A 
ATOM     19  C   UNL     1      -6.155 -10.007  12.849  0.00  0.00    +0.100 A 
ATOM     20  C   UNL     1      -8.911  -9.494  14.908  0.00  0.00    +0.172 C 
BRANCH  19  22
ATOM      2  S   UNL     1      -5.404 -11.276  10.458  0.00  0.00    -0.095 S 
ATOM     22  C   UNL     1      -5.498  -9.946  11.532  0.00  0.00    +0.039 A 
ATOM     24  C   UNL     1      -4.888  -8.823  11.017  0.00  0.00    +0.018 A 
ATOM     25  C   UNL     1      -4.337  -9.057   9.725  0.00  0.00    +0.008 A 
ATOM     28  C   UNL     1      -4.547 -10.352   9.300  0.00  0.00    +0.046 A 
ENDBRANCH  19  22
ENDBRANCH  10  17
BRANCH  11  16
ATOM     16  C   UNL     1      -5.239 -14.383  16.630  0.00  0.00    +0.124 C 
BRANCH  16   7
ATOM      7  N   UNL     1      -3.914 -14.515  16.002  0.00  0.00    -0.193 NA
ATOM     32  H   UNL     1      -3.136 -14.828  16.595  0.00  0.00    +0.148 HD
BRANCH   7   1
ATOM      1  S   UNL     1      -3.806 -14.693  14.308  0.00  0.00    +0.034 S 
ATOM      3  O   UNL     1      -4.618 -13.684  13.656  0.00  0.00    -0.158 OA
ATOM      4  O   UNL     1      -3.963 -16.097  13.980  0.00  0.00    -0.158 OA
BRANCH   1  21
ATOM     21  C   UNL     1      -2.098 -14.275  14.044  0.00  0.00    +0.220 C 
BRANCH  21  23
ATOM     23  C   UNL     1      -2.027 -12.808  13.750  0.00  0.00    -0.025 A 
ATOM     26  C   UNL     1      -1.863 -11.895  14.791  0.00  0.00    +0.005 A 
ATOM     27  C   UNL     1      -2.127 -12.355  12.434  0.00  0.00    +0.005 A 
ATOM     29  C   UNL     1      -1.797 -10.528  14.517  0.00  0.00    +0.000 A 
ATOM     30  C   UNL     1      -2.062 -10.990  12.160  0.00  0.00    +0.000 A 
ATOM     31  C   UNL     1      -1.897 -10.076  13.202  0.00  0.00    +0.000 A 
ENDBRANCH  21  23
ENDBRANCH   1  21
ENDBRANCH   7   1
ENDBRANCH  16   7
ENDBRANCH  11  16
TORSDOF 7
ENDMDL
MODEL 4
REMARK VINA RESULT:      -7.0      2.798      6.376
REMARK  Name = 40779387
REMARK  8 active torsions:
REMARK  status: ('A' for Active; 'I' for Inactive)
REMARK    1  A    between atoms: S_1  and  N_7
REMARK    2  A    between atoms: S_1  and  C_21
REMARK    3  A    between atoms: N_6  and  C_20
REMARK    4  A    between atoms: N_7  and  C_16
REMARK    5  A    between atoms: C_10  and  C_17
REMARK    6  A    between atoms: C_11  and  C_16
REMARK    7  A    between atoms: C_19  and  C_22
REMARK    8  A    between atoms: C_21  and  C_23
REMARK                            x       y       z     vdW  Elec       q    Type
REMARK                         _______ _______ _______ _____ _____    ______ ____
ROOT
ATOM      5  N   UNL     1      -3.708  -9.200  10.310  0.00  0.00    -0.297 NA
ATOM      9  C   UNL     1      -5.589 -11.001  10.241  0.00  0.00    +0.002 C 
ATOM     10  C   UNL     1      -6.106  -9.699  10.915  0.00  0.00    +0.055 C 
ATOM     11  C   UNL     1      -3.196 -10.491  10.840  0.00  0.00    +0.072 C 
ATOM     12  C   UNL     1      -4.346 -11.509  11.001  0.00  0.00    +0.024 C 
ATOM     13  C   UNL     1      -5.125 -10.613   8.821  0.00  0.00    +0.019 C 
ATOM     14  C   UNL     1      -4.883  -8.756  11.100  0.00  0.00    +0.094 C 
ATOM     15  C   UNL     1      -4.150  -9.427   8.912  0.00  0.00    +0.085 C 
ENDROOT
BRANCH  10  17
ATOM      6  N   UNL     1      -8.297  -9.867  12.184  0.00  0.00    -0.270 N 
ATOM      8  N   UNL     1      -8.838  -9.982  13.409  0.00  0.00    -0.171 NA
ATOM     17  C   UNL     1      -6.934  -9.827  12.185  0.00  0.00    +0.044 A 
ATOM     18  C   UNL     1      -6.556  -9.923  13.503  0.00  0.00    +0.053 A 
ATOM     19  C   UNL     1      -7.770 -10.015  14.210  0.00  0.00    +0.100 A 
ATOM     20  C   UNL     1      -9.167  -9.800  11.032  0.00  0.00    +0.172 C 
BRANCH  19  22
ATOM      2  S   UNL     1      -9.043 -11.161  16.438  0.00  0.00    -0.095 S 
ATOM     22  C   UNL     1      -7.901 -10.139  15.673  0.00  0.00    +0.039 A 
ATOM     24  C   UNL     1      -7.130  -9.453  16.585  0.00  0.00    +0.018 A 
ATOM     25  C   UNL     1      -7.480  -9.771  17.929  0.00  0.00    +0.008 A 
ATOM     28  C   UNL     1      -8.506 -10.689  17.993  0.00  0.00    +0.046 A 
ENDBRANCH  19  22
ENDBRANCH  10  17
BRANCH  11  16
ATOM     16  C   UNL     1      -2.404 -10.316  12.137  0.00  0.00    +0.124 C 
BRANCH  16   7
ATOM      7  N   UNL     1      -1.971 -11.636  12.624  0.00  0.00    -0.193 NA
ATOM     32  H   UNL     1      -1.282 -12.148  12.060  0.00  0.00    +0.148 HD
BRANCH   7   1
ATOM      1  S   UNL     1      -2.158 -12.019  14.277  0.00  0.00    +0.034 S 
ATOM      3  O   UNL     1      -1.076 -11.432  15.043  0.00  0.00    -0.158 OA
ATOM      4  O   UNL     1      -2.466 -13.432  14.391  0.00  0.00    -0.158 OA
BRANCH   1  21
ATOM     21  C   UNL     1      -3.646 -11.121  14.654  0.00  0.00    +0.220 C 
BRANCH  21  23
ATOM     23  C   UNL     1      -4.184 -11.649  15.947  0.00  0.00    -0.025 A 
ATOM     26  C   UNL     1      -5.184 -12.621  15.941  0.00  0.00    +0.005 A 
ATOM     27  C   UNL     1      -3.685 -11.170  17.158  0.00  0.00    +0.005 A 
ATOM     29  C   UNL     1      -5.685 -13.115  17.146  0.00  0.00    +0.000 A 
ATOM     30  C   UNL     1      -4.185 -11.662  18.363  0.00  0.00    +0.000 A 
ATOM     31  C   UNL     1      -5.186 -12.635  18.357  0.00  0.00    +0.000 A 
ENDBRANCH  21  23
ENDBRANCH   1  21
ENDBRANCH   7   1
ENDBRANCH  16   7
ENDBRANCH  11  16
TORSDOF 7
ENDMDL
MODEL 5
REMARK VINA RESULT:      -6.7      2.536      5.691
REMARK  Name = 40779387
REMARK  8 active torsions:
REMARK  status: ('A' for Active; 'I' for Inactive)
REMARK    1  A    between atoms: S_1  and  N_7
REMARK    2  A    between atoms: S_1  and  C_21
REMARK    3  A    between atoms: N_6  and  C_20
REMARK    4  A    between atoms: N_7  and  C_16
REMARK    5  A    between atoms: C_10  and  C_17
REMARK    6  A    between atoms: C_11  and  C_16
REMARK    7  A    between atoms: C_19  and  C_22
REMARK    8  A    between atoms: C_21  and  C_23
REMARK                            x       y       z     vdW  Elec       q    Type
REMARK                         _______ _______ _______ _____ _____    ______ ____
ROOT
ATOM      5  N   UNL     1      -9.939  -8.683  16.428  0.00  0.00    -0.297 NA
ATOM      9  C   UNL     1      -9.342 -10.932  17.598  0.00  0.00    +0.002 C 
ATOM     10  C   UNL     1      -8.176  -9.915  17.746  0.00  0.00    +0.055 C 
ATOM     11  C   UNL     1     -10.192  -9.819  15.503  0.00  0.00    +0.072 C 
ATOM     12  C   UNL     1      -9.652 -11.137  16.100  0.00  0.00    +0.024 C 
ATOM     13  C   UNL     1     -10.588 -10.278  18.233  0.00  0.00    +0.019 C 
ATOM     14  C   UNL     1      -8.519  -8.684  16.860  0.00  0.00    +0.094 C 
ATOM     15  C   UNL     1     -10.788  -8.877  17.629  0.00  0.00    +0.085 C 
ENDROOT
BRANCH  10  17
ATOM      6  N   UNL     1      -5.906 -10.725  18.540  0.00  0.00    -0.270 N 
ATOM      8  N   UNL     1      -4.696 -11.143  18.129  0.00  0.00    -0.171 NA
ATOM     17  C   UNL     1      -6.756 -10.412  17.520  0.00  0.00    +0.044 A 
ATOM     18  C   UNL     1      -6.054 -10.641  16.361  0.00  0.00    +0.053 A 
ATOM     19  C   UNL     1      -4.792 -11.090  16.798  0.00  0.00    +0.100 A 
ATOM     20  C   UNL     1      -6.183 -10.649  19.955  0.00  0.00    +0.172 C 
BRANCH  19  22
ATOM      2  S   UNL     1      -2.156 -10.675  15.922  0.00  0.00    -0.095 S 
ATOM     22  C   UNL     1      -3.671 -11.473  15.923  0.00  0.00    +0.039 A 
ATOM     24  C   UNL     1      -3.711 -12.506  15.013  0.00  0.00    +0.018 A 
ATOM     25  C   UNL     1      -2.482 -12.645  14.305  0.00  0.00    +0.008 A 
ATOM     28  C   UNL     1      -1.548 -11.712  14.702  0.00  0.00    +0.046 A 
ENDBRANCH  19  22
ENDBRANCH  10  17
BRANCH  11  16
ATOM     16  C   UNL     1      -9.643  -9.561  14.099  0.00  0.00    +0.124 C 
BRANCH  16   7
ATOM      7  N   UNL     1      -8.622 -10.574  13.784  0.00  0.00    -0.193 NA
ATOM     32  H   UNL     1      -8.713 -11.496  14.228  0.00  0.00    +0.148 HD
BRANCH   7   1
ATOM      1  S   UNL     1      -7.701 -10.415  12.355  0.00  0.00    +0.034 S 
ATOM      3  O   UNL     1      -8.440  -9.637  11.380  0.00  0.00    -0.158 OA
ATOM      4  O   UNL     1      -7.157 -11.714  12.009  0.00  0.00    -0.158 OA
BRANCH   1  21
ATOM     21  C   UNL     1      -6.353  -9.416  12.945  0.00  0.00    +0.220 C 
BRANCH  21  23
ATOM     23  C   UNL     1      -5.292  -9.411  11.889  0.00  0.00    -0.025 A 
ATOM     26  C   UNL     1      -4.146 -10.189  12.049  0.00  0.00    +0.005 A 
ATOM     27  C   UNL     1      -5.449  -8.629  10.744  0.00  0.00    +0.005 A 
ATOM     29  C   UNL     1      -3.156 -10.186  11.065  0.00  0.00    +0.000 A 
ATOM     30  C   UNL     1      -4.462  -8.625   9.761  0.00  0.00    +0.000 A 
ATOM     31  C   UNL     1      -3.314  -9.404   9.921  0.00  0.00    +0.000 A 
ENDBRANCH  21  23
ENDBRANCH   1  21
ENDBRANCH   7   1
ENDBRANCH  16   7
ENDBRANCH  11  16
TORSDOF 7
ENDMDL
MODEL 6
REMARK VINA RESULT:      -6.6      3.225      8.476
REMARK  Name = 40779387
REMARK  8 active torsions:
REMARK  status: ('A' for Active; 'I' for Inactive)
REMARK    1  A    between atoms: S_1  and  N_7
REMARK    2  A    between atoms: S_1  and  C_21
REMARK    3  A    between atoms: N_6  and  C_20
REMARK    4  A    between atoms: N_7  and  C_16
REMARK    5  A    between atoms: C_10  and  C_17
REMARK    6  A    between atoms: C_11  and  C_16
REMARK    7  A    between atoms: C_19  and  C_22
REMARK    8  A    between atoms: C_21  and  C_23
REMARK                            x       y       z     vdW  Elec       q    Type
REMARK                         _______ _______ _______ _____ _____    ______ ____
ROOT
ATOM      5  N   UNL     1      -6.493 -10.734  17.995  0.00  0.00    -0.297 NA
ATOM      9  C   UNL     1      -4.311 -12.067  17.494  0.00  0.00    +0.002 C 
ATOM     10  C   UNL     1      -4.289 -10.693  16.767  0.00  0.00    +0.055 C 
ATOM     11  C   UNL     1      -6.829 -12.115  17.559  0.00  0.00    +0.072 C 
ATOM     12  C   UNL     1      -5.567 -12.852  17.061  0.00  0.00    +0.024 C 
ATOM     13  C   UNL     1      -4.459 -11.770  19.001  0.00  0.00    +0.019 C 
ATOM     14  C   UNL     1      -5.694 -10.051  16.947  0.00  0.00    +0.094 C 
ATOM     15  C   UNL     1      -5.661 -10.834  19.219  0.00  0.00    +0.085 C 
ENDROOT
BRANCH  10  17
ATOM      6  N   UNL     1      -2.501 -10.571  14.971  0.00  0.00    -0.270 N 
ATOM      8  N   UNL     1      -2.294 -10.546  13.642  0.00  0.00    -0.171 NA
ATOM     17  C   UNL     1      -3.816 -10.653  15.321  0.00  0.00    +0.044 A 
ATOM     18  C   UNL     1      -4.519 -10.684  14.140  0.00  0.00    +0.053 A 
ATOM     19  C   UNL     1      -3.530 -10.615  13.141  0.00  0.00    +0.100 A 
ATOM     20  C   UNL     1      -1.367 -10.512  15.862  0.00  0.00    +0.172 C 
BRANCH  19  22
ATOM      2  S   UNL     1      -3.785 -12.040  10.733  0.00  0.00    -0.095 S 
ATOM     22  C   UNL     1      -3.779 -10.619  11.689  0.00  0.00    +0.039 A 
ATOM     24  C   UNL     1      -4.031  -9.491  10.939  0.00  0.00    +0.018 A 
ATOM     25  C   UNL     1      -4.232  -9.797   9.562  0.00  0.00    +0.008 A 
ATOM     28  C   UNL     1      -4.127 -11.148   9.312  0.00  0.00    +0.046 A 
ENDBRANCH  19  22
ENDBRANCH  10  17
BRANCH  11  16
ATOM     16  C   UNL     1      -7.952 -12.142  16.520  0.00  0.00    +0.124 C 
BRANCH  16   7
ATOM      7  N   UNL     1      -9.250 -12.207  17.211  0.00  0.00    -0.193 NA
ATOM     32  H   UNL     1      -9.409 -12.993  17.853  0.00  0.00    +0.148 HD
BRANCH   7   1
ATOM      1  S   UNL     1     -10.182 -10.784  17.374  0.00  0.00    +0.034 S 
ATOM      3  O   UNL     1     -11.587 -11.097  17.206  0.00  0.00    -0.158 OA
ATOM      4  O   UNL     1      -9.557  -9.732  16.596  0.00  0.00    -0.158 OA
BRANCH   1  21
ATOM     21  C   UNL     1      -9.906 -10.409  19.091  0.00  0.00    +0.220 C 
BRANCH  21  23
ATOM     23  C   UNL     1     -11.137 -10.802  19.847  0.00  0.00    -0.025 A 
ATOM     26  C   UNL     1     -11.299 -12.117  20.280  0.00  0.00    +0.005 A 
ATOM     27  C   UNL     1     -12.122  -9.852  20.118  0.00  0.00    +0.005 A 
ATOM     29  C   UNL     1     -12.446 -12.484  20.985  0.00  0.00    +0.000 A 
ATOM     30  C   UNL     1     -13.268 -10.218  20.822  0.00  0.00    +0.000 A 
ATOM     31  C   UNL     1     -13.431 -11.534  21.256  0.00  0.00    +0.000 A 
ENDBRANCH  21  23
ENDBRANCH   1  21
ENDBRANCH   7   1
ENDBRANCH  16   7
ENDBRANCH  11  16
TORSDOF 7
ENDMDL
MODEL 7
REMARK VINA RESULT:      -6.6      4.334      9.756
REMARK  Name = 40779387
REMARK  8 active torsions:
REMARK  status: ('A' for Active; 'I' for Inactive)
REMARK    1  A    between atoms: S_1  and  N_7
REMARK    2  A    between atoms: S_1  and  C_21
REMARK    3  A    between atoms: N_6  and  C_20
REMARK    4  A    between atoms: N_7  and  C_16
REMARK    5  A    between atoms: C_10  and  C_17
REMARK    6  A    between atoms: C_11  and  C_16
REMARK    7  A    between atoms: C_19  and  C_22
REMARK    8  A    between atoms: C_21  and  C_23
REMARK                            x       y       z     vdW  Elec       q    Type
REMARK                         _______ _______ _______ _____ _____    ______ ____
ROOT
ATOM      5  N   UNL     1      -5.287 -10.334  11.234  0.00  0.00    -0.297 NA
ATOM      9  C   UNL     1      -4.541  -8.763   9.294  0.00  0.00    +0.002 C 
ATOM     10  C   UNL     1      -5.608  -9.777   8.794  0.00  0.00    +0.055 C 
ATOM     11  C   UNL     1      -3.802 -10.291  11.156  0.00  0.00    +0.072 C 
ATOM     12  C   UNL     1      -3.345  -9.534   9.890  0.00  0.00    +0.024 C 
ATOM     13  C   UNL     1      -5.188  -7.968  10.449  0.00  0.00    +0.019 C 
ATOM     14  C   UNL     1      -5.850 -10.798   9.942  0.00  0.00    +0.094 C 
ATOM     15  C   UNL     1      -5.768  -8.952  11.479  0.00  0.00    +0.085 C 
ENDROOT
BRANCH  10  17
ATOM      6  N   UNL     1      -6.036 -10.096   6.314  0.00  0.00    -0.270 N 
ATOM      8  N   UNL     1      -5.692 -10.823   5.236  0.00  0.00    -0.171 NA
ATOM     17  C   UNL     1      -5.380 -10.458   7.453  0.00  0.00    +0.044 A 
ATOM     18  C   UNL     1      -4.548 -11.492   7.097  0.00  0.00    +0.053 A 
ATOM     19  C   UNL     1      -4.784 -11.673   5.720  0.00  0.00    +0.100 A 
ATOM     20  C   UNL     1      -7.022  -9.050   6.174  0.00  0.00    +0.172 C 
BRANCH  19  22
ATOM      2  S   UNL     1      -4.679 -14.286   4.691  0.00  0.00    -0.095 S 
ATOM     22  C   UNL     1      -4.125 -12.675   4.864  0.00  0.00    +0.039 A 
ATOM     24  C   UNL     1      -2.996 -12.434   4.112  0.00  0.00    +0.018 A 
ATOM     25  C   UNL     1      -2.581 -13.586   3.384  0.00  0.00    +0.008 A 
ATOM     28  C   UNL     1      -3.410 -14.665   3.607  0.00  0.00    +0.046 A 
ENDBRANCH  19  22
ENDBRANCH  10  17
BRANCH  11  16
ATOM     16  C   UNL     1      -3.174 -11.683  11.247  0.00  0.00    +0.124 C 
BRANCH  16   7
ATOM      7  N   UNL     1      -1.956 -11.612  12.071  0.00  0.00    -0.193 NA
ATOM     32  H   UNL     1      -1.104 -11.246  11.630  0.00  0.00    +0.148 HD
BRANCH   7   1
ATOM      1  S   UNL     1      -2.099 -11.593  13.773  0.00  0.00    +0.034 S 
ATOM      3  O   UNL     1      -2.023 -10.228  14.256  0.00  0.00    -0.158 OA
ATOM      4  O   UNL     1      -1.237 -12.623  14.320  0.00  0.00    -0.158 OA
BRANCH   1  21
ATOM     21  C   UNL     1      -3.778 -12.149  13.965  0.00  0.00    +0.220 C 
BRANCH  21  23
ATOM     23  C   UNL     1      -4.362 -11.436  15.144  0.00  0.00    -0.025 A 
ATOM     26  C   UNL     1      -5.237 -10.368  14.951  0.00  0.00    +0.005 A 
ATOM     27  C   UNL     1      -4.030 -11.839  16.438  0.00  0.00    +0.005 A 
ATOM     29  C   UNL     1      -5.782  -9.703  16.050  0.00  0.00    +0.000 A 
ATOM     30  C   UNL     1      -4.574 -11.175  17.537  0.00  0.00    +0.000 A 
ATOM     31  C   UNL     1      -5.450 -10.107  17.343  0.00  0.00    +0.000 A 
ENDBRANCH  21  23
ENDBRANCH   1  21
ENDBRANCH   7   1
ENDBRANCH  16   7
ENDBRANCH  11  16
TORSDOF 7
ENDMDL
MODEL 8
REMARK VINA RESULT:      -6.6      1.994      2.880
REMARK  Name = 40779387
REMARK  8 active torsions:
REMARK  status: ('A' for Active; 'I' for Inactive)
REMARK    1  A    between atoms: S_1  and  N_7
REMARK    2  A    between atoms: S_1  and  C_21
REMARK    3  A    between atoms: N_6  and  C_20
REMARK    4  A    between atoms: N_7  and  C_16
REMARK    5  A    between atoms: C_10  and  C_17
REMARK    6  A    between atoms: C_11  and  C_16
REMARK    7  A    between atoms: C_19  and  C_22
REMARK    8  A    between atoms: C_21  and  C_23
REMARK                            x       y       z     vdW  Elec       q    Type
REMARK                         _______ _______ _______ _____ _____    ______ ____
ROOT
ATOM      5  N   UNL     1      -5.644 -12.289  15.432  0.00  0.00    -0.297 NA
ATOM      9  C   UNL     1      -5.617 -10.396  17.222  0.00  0.00    +0.002 C 
ATOM     10  C   UNL     1      -6.995 -11.114  17.210  0.00  0.00    +0.055 C 
ATOM     11  C   UNL     1      -5.146 -11.025  14.828  0.00  0.00    +0.072 C 
ATOM     12  C   UNL     1      -5.317  -9.847  15.812  0.00  0.00    +0.024 C 
ATOM     13  C   UNL     1      -4.555 -11.475  17.523  0.00  0.00    +0.019 C 
ATOM     14  C   UNL     1      -7.003 -12.083  15.993  0.00  0.00    +0.094 C 
ATOM     15  C   UNL     1      -4.734 -12.650  16.546  0.00  0.00    +0.085 C 
ENDROOT
BRANCH  10  17
ATOM      6  N   UNL     1      -9.113 -10.281  18.333  0.00  0.00    -0.270 N 
ATOM      8  N   UNL     1     -10.163  -9.452  18.195  0.00  0.00    -0.171 NA
ATOM     17  C   UNL     1      -8.252 -10.259  17.276  0.00  0.00    +0.044 A 
ATOM     18  C   UNL     1      -8.774  -9.353  16.384  0.00  0.00    +0.053 A 
ATOM     19  C   UNL     1      -9.951  -8.889  17.003  0.00  0.00    +0.100 A 
ATOM     20  C   UNL     1      -8.997 -11.081  19.530  0.00  0.00    +0.172 C 
BRANCH  19  22
ATOM      2  S   UNL     1     -12.568  -8.132  16.319  0.00  0.00    -0.095 S 
ATOM     22  C   UNL     1     -10.877  -7.891  16.442  0.00  0.00    +0.039 A 
ATOM     24  C   UNL     1     -10.494  -6.661  15.953  0.00  0.00    +0.018 A 
ATOM     25  C   UNL     1     -11.603  -5.907  15.472  0.00  0.00    +0.008 A 
ATOM     28  C   UNL     1     -12.792  -6.589  15.612  0.00  0.00    +0.046 A 
ENDBRANCH  19  22
ENDBRANCH  10  17
BRANCH  11  16
ATOM     16  C   UNL     1      -5.790 -10.733  13.471  0.00  0.00    +0.124 C 
BRANCH  16   7
ATOM      7  N   UNL     1      -4.847  -9.965  12.642  0.00  0.00    -0.193 NA
ATOM     32  H   UNL     1      -4.190  -9.339  13.124  0.00  0.00    +0.148 HD
BRANCH   7   1
ATOM      1  S   UNL     1      -4.488 -10.509  11.063  0.00  0.00    +0.034 S 
ATOM      3  O   UNL     1      -4.931  -9.525  10.094  0.00  0.00    -0.158 OA
ATOM      4  O   UNL     1      -4.893 -11.896  10.950  0.00  0.00    -0.158 OA
BRANCH   1  21
ATOM     21  C   UNL     1      -2.710 -10.476  11.103  0.00  0.00    +0.220 C 
BRANCH  21  23
ATOM     23  C   UNL     1      -2.277 -10.902  12.472  0.00  0.00    -0.025 A 
ATOM     26  C   UNL     1      -2.264 -12.255  12.810  0.00  0.00    +0.005 A 
ATOM     27  C   UNL     1      -1.887  -9.946  13.410  0.00  0.00    +0.005 A 
ATOM     29  C   UNL     1      -1.860 -12.653  14.084  0.00  0.00    +0.000 A 
ATOM     30  C   UNL     1      -1.484 -10.342  14.684  0.00  0.00    +0.000 A 
ATOM     31  C   UNL     1      -1.470 -11.697  15.022  0.00  0.00    +0.000 A 
ENDBRANCH  21  23
ENDBRANCH   1  21
ENDBRANCH   7   1
ENDBRANCH  16   7
ENDBRANCH  11  16
TORSDOF 7
ENDMDL
MODEL 9
REMARK VINA RESULT:      -6.5      1.958      2.192
REMARK  Name = 40779387
REMARK  8 active torsions:
REMARK  status: ('A' for Active; 'I' for Inactive)
REMARK    1  A    between atoms: S_1  and  N_7
REMARK    2  A    between atoms: S_1  and  C_21
REMARK    3  A    between atoms: N_6  and  C_20
REMARK    4  A    between atoms: N_7  and  C_16
REMARK    5  A    between atoms: C_10  and  C_17
REMARK    6  A    between atoms: C_11  and  C_16
REMARK    7  A    between atoms: C_19  and  C_22
REMARK    8  A    between atoms: C_21  and  C_23
REMARK                            x       y       z     vdW  Elec       q    Type
REMARK                         _______ _______ _______ _____ _____    ______ ____
ROOT
ATOM      5  N   UNL     1      -5.719 -12.731  16.986  0.00  0.00    -0.297 NA
ATOM      9  C   UNL     1      -5.800 -10.428  18.201  0.00  0.00    +0.002 C 
ATOM     10  C   UNL     1      -7.180 -11.139  18.289  0.00  0.00    +0.055 C 
ATOM     11  C   UNL     1      -5.171 -11.669  16.101  0.00  0.00    +0.072 C 
ATOM     12  C   UNL     1      -5.400 -10.273  16.720  0.00  0.00    +0.024 C 
ATOM     13  C   UNL     1      -4.770 -11.375  18.852  0.00  0.00    +0.019 C 
ATOM     14  C   UNL     1      -7.111 -12.397  17.378  0.00  0.00    +0.094 C 
ATOM     15  C   UNL     1      -4.890 -12.770  18.216  0.00  0.00    +0.085 C 
ENDROOT
BRANCH  10  17
ATOM      6  N   UNL     1      -9.548 -10.394  18.816  0.00  0.00    -0.270 N 
ATOM      8  N   UNL     1     -10.544  -9.581  18.425  0.00  0.00    -0.171 NA
ATOM     17  C   UNL     1      -8.432 -10.311  18.037  0.00  0.00    +0.044 A 
ATOM     18  C   UNL     1      -8.717  -9.378  17.069  0.00  0.00    +0.053 A 
ATOM     19  C   UNL     1     -10.032  -8.963  17.358  0.00  0.00    +0.100 A 
ATOM     20  C   UNL     1      -9.740 -11.241  19.970  0.00  0.00    +0.172 C 
BRANCH  19  22
ATOM      2  S   UNL     1     -12.493  -8.041  16.367  0.00  0.00    -0.095 S 
ATOM     22  C   UNL     1     -10.799  -7.960  16.599  0.00  0.00    +0.039 A 
ATOM     24  C   UNL     1     -10.247  -6.853  15.993  0.00  0.00    +0.018 A 
ATOM     25  C   UNL     1     -11.228  -6.061  15.330  0.00  0.00    +0.008 A 
ATOM     28  C   UNL     1     -12.493  -6.592  15.455  0.00  0.00    +0.046 A 
ENDBRANCH  19  22
ENDBRANCH  10  17
BRANCH  11  16
ATOM     16  C   UNL     1      -5.718 -11.758  14.675  0.00  0.00    +0.124 C 
BRANCH  16   7
ATOM      7  N   UNL     1      -6.589 -10.600  14.416  0.00  0.00    -0.193 NA
ATOM     32  H   UNL     1      -6.725  -9.927  15.180  0.00  0.00    +0.148 HD
BRANCH   7   1
ATOM      1  S   UNL     1      -6.875 -10.114  12.804  0.00  0.00    +0.034 S 
ATOM      3  O   UNL     1      -6.319  -8.793  12.584  0.00  0.00    -0.158 OA
ATOM      4  O   UNL     1      -8.257 -10.402  12.474  0.00  0.00    -0.158 OA
BRANCH   1  21
ATOM     21  C   UNL     1      -5.865 -11.286  11.927  0.00  0.00    +0.220 C 
BRANCH  21  23
ATOM     23  C   UNL     1      -4.687 -10.548  11.372  0.00  0.00    -0.025 A 
ATOM     26  C   UNL     1      -4.805  -9.844  10.174  0.00  0.00    +0.005 A 
ATOM     27  C   UNL     1      -3.469 -10.565  12.053  0.00  0.00    +0.005 A 
ATOM     29  C   UNL     1      -3.707  -9.155   9.657  0.00  0.00    +0.000 A 
ATOM     30  C   UNL     1      -2.371  -9.878  11.537  0.00  0.00    +0.000 A 
ATOM     31  C   UNL     1      -2.491  -9.172  10.338  0.00  0.00    +0.000 A 
ENDBRANCH  21  23
ENDBRANCH   1  21
ENDBRANCH   7   1
ENDBRANCH  16   7
ENDBRANCH  11  16
TORSDOF 7
ENDMDL
MODEL 10
REMARK VINA RESULT:      -6.5     24.685     28.857
REMARK  Name = 40779387
REMARK  8 active torsions:
REMARK  status: ('A' for Active; 'I' for Inactive)
REMARK    1  A    between atoms: S_1  and  N_7
REMARK    2  A    between atoms: S_1  and  C_21
REMARK    3  A    between atoms: N_6  and  C_20
REMARK    4  A    between atoms: N_7  and  C_16
REMARK    5  A    between atoms: C_10  and  C_17
REMARK    6  A    between atoms: C_11  and  C_16
REMARK    7  A    between atoms: C_19  and  C_22
REMARK    8  A    between atoms: C_21  and  C_23
REMARK                            x       y       z     vdW  Elec       q    Type
REMARK                         _______ _______ _______ _____ _____    ______ ____
ROOT
ATOM      5  N   UNL     1      13.023   9.064   6.296  0.00  0.00    -0.297 NA
ATOM      9  C   UNL     1      15.457   8.562   5.515  0.00  0.00    +0.002 C 
ATOM     10  C   UNL     1      14.524   8.769   4.289  0.00  0.00    +0.055 C 
ATOM     11  C   UNL     1      13.542   7.857   6.992  0.00  0.00    +0.072 C 
ATOM     12  C   UNL     1      14.899   7.424   6.394  0.00  0.00    +0.024 C 
ATOM     13  C   UNL     1      15.387   9.858   6.352  0.00  0.00    +0.019 C 
ATOM     14  C   UNL     1      13.067   8.861   4.826  0.00  0.00    +0.094 C 
ATOM     15  C   UNL     1      13.914  10.201   6.632  0.00  0.00    +0.085 C 
ENDROOT
BRANCH  10  17
ATOM      6  N   UNL     1      15.709   7.807   2.263  0.00  0.00    -0.270 N 
ATOM      8  N   UNL     1      15.628   6.876   1.296  0.00  0.00    -0.171 NA
ATOM     17  C   UNL     1      14.649   7.804   3.120  0.00  0.00    +0.044 A 
ATOM     18  C   UNL     1      13.816   6.802   2.684  0.00  0.00    +0.053 A 
ATOM     19  C   UNL     1      14.470   6.266   1.558  0.00  0.00    +0.100 A 
ATOM     20  C   UNL     1      16.857   8.683   2.304  0.00  0.00    +0.172 C 
BRANCH  19  22
ATOM      2  S   UNL     1      14.020   5.154  -0.982  0.00  0.00    -0.095 S 
ATOM     22  C   UNL     1      13.975   5.153   0.730  0.00  0.00    +0.039 A 
ATOM     24  C   UNL     1      13.422   3.995   1.230  0.00  0.00    +0.018 A 
ATOM     25  C   UNL     1      13.030   3.097   0.196  0.00  0.00    +0.008 A 
ATOM     28  C   UNL     1      13.300   3.602  -1.057  0.00  0.00    +0.046 A 
ENDBRANCH  19  22
ENDBRANCH  10  17
BRANCH  11  16
ATOM     16  C   UNL     1      12.531   6.709   7.003  0.00  0.00    +0.124 C 
BRANCH  16   7
ATOM      7  N   UNL     1      11.191   7.247   7.288  0.00  0.00    -0.193 NA
ATOM     32  H   UNL     1      10.897   8.089   6.779  0.00  0.00    +0.148 HD
BRANCH   7   1
ATOM      1  S   UNL     1      10.009   6.223   7.974  0.00  0.00    +0.034 S 
ATOM      3  O   UNL     1       8.805   6.982   8.255  0.00  0.00    -0.158 OA
ATOM      4  O   UNL     1      10.637   5.420   9.006  0.00  0.00    -0.158 OA
BRANCH   1  21
ATOM     21  C   UNL     1       9.671   5.148   6.599  0.00  0.00    +0.220 C 
BRANCH  21  23
ATOM     23  C   UNL     1       9.385   6.008   5.407  0.00  0.00    -0.025 A 
ATOM     26  C   UNL     1       8.282   6.862   5.411  0.00  0.00    +0.005 A 
ATOM     27  C   UNL     1      10.221   5.955   4.291  0.00  0.00    +0.005 A 
ATOM     29  C   UNL     1       8.016   7.664   4.301  0.00  0.00    +0.000 A 
ATOM     30  C   UNL     1       9.955   6.756   3.182  0.00  0.00    +0.000 A 
ATOM     31  C   UNL     1       8.852   7.611   3.187  0.00  0.00    +0.000 A 
ENDBRANCH  21  23
ENDBRANCH   1  21
ENDBRANCH   7   1
ENDBRANCH  16   7
ENDBRANCH  11  16
TORSDOF 7
ENDMDL
