MODEL 1
REMARK VINA RESULT:      -7.8      0.000      0.000
REMARK  Name = 11941654
REMARK  8 active torsions:
REMARK  status: ('A' for Active; 'I' for Inactive)
REMARK    1  A    between atoms: O_5  and  C_27
REMARK    2  A    between atoms: O_5  and  C_33
REMARK    3  A    between atoms: O_6  and  C_28
REMARK    4  A    between atoms: O_6  and  C_34
REMARK    5  A    between atoms: N_7  and  C_14
REMARK    6  A    between atoms: N_8  and  C_15
REMARK    7  A    between atoms: N_9  and  C_21
REMARK    8  A    between atoms: C_20  and  C_24
REMARK                            x       y       z     vdW  Elec       q    Type
REMARK                         _______ _______ _______ _____ _____    ______ ____
ROOT
ATOM      1  O   UNL     1      21.713   8.195  21.064  0.00  0.00    -0.370 OA
ATOM      2  O   UNL     1      20.312   6.168  22.978  0.00  0.00    -0.370 OA
ATOM     12  C   UNL     1      21.036   6.018  21.746  0.00  0.00    +0.171 C 
ATOM     13  C   UNL     1      20.687   7.207  20.871  0.00  0.00    +0.171 C 
ATOM     14  C   UNL     1      22.519   6.161  21.989  0.00  0.00    +0.130 C 
ATOM     15  C   UNL     1      19.370   7.700  21.428  0.00  0.00    +0.131 C 
ATOM     16  C   UNL     1      22.722   7.665  21.936  0.00  0.00    +0.185 C 
ATOM     17  C   UNL     1      19.485   7.339  22.899  0.00  0.00    +0.185 C 
ENDROOT
BRANCH  14   7
ATOM      7  N   UNL     1      23.260   5.518  20.926  0.00  0.00    -0.306 N 
ATOM     10  N   UNL     1      23.471   3.547  22.136  0.00  0.00    -0.211 NA
ATOM     11  N   UNL     1      24.403   3.763  19.924  0.00  0.00    -0.223 NA
ATOM     18  C   UNL     1      23.731   4.220  20.998  0.00  0.00    +0.216 A 
ATOM     20  C   UNL     1      23.944   2.285  22.172  0.00  0.00    +0.111 A 
ATOM     22  C   UNL     1      24.849   2.493  20.029  0.00  0.00    +0.116 A 
ATOM     23  C   UNL     1      24.647   1.699  21.139  0.00  0.00    +0.051 A 
ATOM     35  H   UNL     1      23.407   6.012  20.052  0.00  0.00    +0.149 HD
BRANCH  20  24
ATOM      4  O   UNL     1      22.603   2.031  24.103  0.00  0.00    -0.461 OA
ATOM     24  C   UNL     1      23.664   1.571  23.390  0.00  0.00    +0.153 A 
ATOM     29  C   UNL     1      24.241   0.494  24.022  0.00  0.00    +0.051 A 
ATOM     31  C   UNL     1      23.486   0.278  25.199  0.00  0.00    +0.042 A 
ATOM     32  C   UNL     1      22.501   1.239  25.203  0.00  0.00    +0.196 A 
ENDBRANCH  20  24
ENDBRANCH  14   7
BRANCH  15   8
ATOM      3  O   UNL     1      16.931   8.897  20.521  0.00  0.00    -0.252 OA
ATOM      8  N   UNL     1      18.256   7.025  20.809  0.00  0.00    -0.292 N 
ATOM      9  N   UNL     1      16.192   6.779  19.831  0.00  0.00    -0.269 N 
ATOM     19  C   UNL     1      17.094   7.686  20.393  0.00  0.00    +0.304 C 
ATOM     36  H   UNL     1      18.344   6.033  20.607  0.00  0.00    +0.151 HD
ATOM     37  H   UNL     1      16.483   5.805  19.803  0.00  0.00    +0.156 HD
BRANCH   9  21
ATOM     21  C   UNL     1      14.911   7.047  19.295  0.00  0.00    +0.042 A 
ATOM     25  C   UNL     1      13.776   6.893  20.091  0.00  0.00    +0.069 A 
ATOM     26  C   UNL     1      14.783   7.466  17.971  0.00  0.00    +0.069 A 
ATOM     27  C   UNL     1      13.521   7.731  17.442  0.00  0.00    +0.125 A 
ATOM     28  C   UNL     1      12.513   7.159  19.561  0.00  0.00    +0.125 A 
ATOM     30  C   UNL     1      12.385   7.577  18.237  0.00  0.00    +0.091 A 
BRANCH  27   5
ATOM      5  O   UNL     1      13.395   8.138  16.149  0.00  0.00    -0.495 OA
ATOM     33  C   UNL     1      12.972   9.483  15.932  0.00  0.00    +0.277 C 
ENDBRANCH  27   5
BRANCH  28   6
ATOM      6  O   UNL     1      11.404   7.008  20.337  0.00  0.00    -0.495 OA
ATOM     34  C   UNL     1      11.517   6.149  21.471  0.00  0.00    +0.277 C 
ENDBRANCH  28   6
ENDBRANCH   9  21
ENDBRANCH  15   8
TORSDOF 6
ENDMDL
MODEL 2
REMARK VINA RESULT:      -7.8      0.198      2.132
REMARK  Name = 11941654
REMARK  8 active torsions:
REMARK  status: ('A' for Active; 'I' for Inactive)
REMARK    1  A    between atoms: O_5  and  C_27
REMARK    2  A    between atoms: O_5  and  C_33
REMARK    3  A    between atoms: O_6  and  C_28
REMARK    4  A    between atoms: O_6  and  C_34
REMARK    5  A    between atoms: N_7  and  C_14
REMARK    6  A    between atoms: N_8  and  C_15
REMARK    7  A    between atoms: N_9  and  C_21
REMARK    8  A    between atoms: C_20  and  C_24
REMARK                            x       y       z     vdW  Elec       q    Type
REMARK                         _______ _______ _______ _____ _____    ______ ____
ROOT
ATOM      1  O   UNL     1      21.647   8.298  21.010  0.00  0.00    -0.370 OA
ATOM      2  O   UNL     1      20.282   6.229  22.905  0.00  0.00    -0.370 OA
ATOM     12  C   UNL     1      20.994   6.105  21.664  0.00  0.00    +0.171 C 
ATOM     13  C   UNL     1      20.627   7.305  20.812  0.00  0.00    +0.171 C 
ATOM     14  C   UNL     1      22.479   6.256  21.894  0.00  0.00    +0.130 C 
ATOM     15  C   UNL     1      19.312   7.778  21.391  0.00  0.00    +0.131 C 
ATOM     16  C   UNL     1      22.670   7.762  21.863  0.00  0.00    +0.185 C 
ATOM     17  C   UNL     1      19.445   7.395  22.854  0.00  0.00    +0.185 C 
ENDROOT
BRANCH  14   7
ATOM      7  N   UNL     1      23.213   5.636  20.813  0.00  0.00    -0.306 N 
ATOM     10  N   UNL     1      23.481   3.659  22.002  0.00  0.00    -0.211 NA
ATOM     11  N   UNL     1      24.372   3.911  19.777  0.00  0.00    -0.223 NA
ATOM     18  C   UNL     1      23.710   4.346  20.866  0.00  0.00    +0.216 A 
ATOM     20  C   UNL     1      23.978   2.405  22.019  0.00  0.00    +0.111 A 
ATOM     22  C   UNL     1      24.842   2.650  19.863  0.00  0.00    +0.116 A 
ATOM     23  C   UNL     1      24.674   1.842  20.969  0.00  0.00    +0.051 A 
ATOM     35  H   UNL     1      23.337   6.140  19.942  0.00  0.00    +0.149 HD
BRANCH  20  24
ATOM      4  O   UNL     1      22.689   2.125  23.981  0.00  0.00    -0.461 OA
ATOM     24  C   UNL     1      23.732   1.676  23.234  0.00  0.00    +0.153 A 
ATOM     29  C   UNL     1      24.327   0.592  23.837  0.00  0.00    +0.051 A 
ATOM     31  C   UNL     1      23.604   0.360  25.031  0.00  0.00    +0.042 A 
ATOM     32  C   UNL     1      22.618   1.319  25.073  0.00  0.00    +0.196 A 
ENDBRANCH  20  24
ENDBRANCH  14   7
BRANCH  15   8
ATOM      3  O   UNL     1      16.858   8.972  20.520  0.00  0.00    -0.252 OA
ATOM      8  N   UNL     1      18.197   7.104  20.772  0.00  0.00    -0.292 N 
ATOM      9  N   UNL     1      16.126   6.859  19.809  0.00  0.00    -0.269 N 
ATOM     19  C   UNL     1      17.028   7.764  20.375  0.00  0.00    +0.304 C 
ATOM     36  H   UNL     1      18.289   6.116  20.556  0.00  0.00    +0.151 HD
ATOM     37  H   UNL     1      16.423   5.887  19.765  0.00  0.00    +0.156 HD
BRANCH   9  21
ATOM     21  C   UNL     1      14.839   7.126  19.288  0.00  0.00    +0.042 A 
ATOM     25  C   UNL     1      14.700   7.596  17.982  0.00  0.00    +0.069 A 
ATOM     26  C   UNL     1      13.710   6.920  20.079  0.00  0.00    +0.069 A 
ATOM     27  C   UNL     1      12.440   7.183  19.566  0.00  0.00    +0.125 A 
ATOM     28  C   UNL     1      13.429   7.859  17.468  0.00  0.00    +0.125 A 
ATOM     30  C   UNL     1      12.300   7.653  18.260  0.00  0.00    +0.091 A 
BRANCH  27   5
ATOM      5  O   UNL     1      11.337   6.983  20.338  0.00  0.00    -0.495 OA
ATOM     33  C   UNL     1      11.478   6.106  21.454  0.00  0.00    +0.277 C 
ENDBRANCH  27   5
BRANCH  28   6
ATOM      6  O   UNL     1      13.292   8.318  16.194  0.00  0.00    -0.495 OA
ATOM     34  C   UNL     1      12.263   9.277  15.956  0.00  0.00    +0.277 C 
ENDBRANCH  28   6
ENDBRANCH   9  21
ENDBRANCH  15   8
TORSDOF 6
ENDMDL
MODEL 3
REMARK VINA RESULT:      -6.8      6.507     14.014
REMARK  Name = 11941654
REMARK  8 active torsions:
REMARK  status: ('A' for Active; 'I' for Inactive)
REMARK    1  A    between atoms: O_5  and  C_27
REMARK    2  A    between atoms: O_5  and  C_33
REMARK    3  A    between atoms: O_6  and  C_28
REMARK    4  A    between atoms: O_6  and  C_34
REMARK    5  A    between atoms: N_7  and  C_14
REMARK    6  A    between atoms: N_8  and  C_15
REMARK    7  A    between atoms: N_9  and  C_21
REMARK    8  A    between atoms: C_20  and  C_24
REMARK                            x       y       z     vdW  Elec       q    Type
REMARK                         _______ _______ _______ _____ _____    ______ ____
ROOT
ATOM      1  O   UNL     1      13.793  14.028  14.480  0.00  0.00    -0.370 OA
ATOM      2  O   UNL     1      14.566  11.790  12.447  0.00  0.00    -0.370 OA
ATOM     12  C   UNL     1      13.318  12.205  13.026  0.00  0.00    +0.171 C 
ATOM     13  C   UNL     1      13.599  12.604  14.462  0.00  0.00    +0.171 C 
ATOM     14  C   UNL     1      12.835  13.479  12.376  0.00  0.00    +0.130 C 
ATOM     15  C   UNL     1      14.891  11.892  14.795  0.00  0.00    +0.131 C 
ATOM     16  C   UNL     1      13.567  14.552  13.163  0.00  0.00    +0.185 C 
ATOM     17  C   UNL     1      15.592  11.844  13.449  0.00  0.00    +0.185 C 
ENDROOT
BRANCH  14   7
ATOM      7  N   UNL     1      11.407  13.616  12.553  0.00  0.00    -0.306 N 
ATOM     10  N   UNL     1      10.955  12.178  10.786  0.00  0.00    -0.211 NA
ATOM     11  N   UNL     1       9.177  13.197  12.056  0.00  0.00    -0.223 NA
ATOM     18  C   UNL     1      10.472  12.969  11.765  0.00  0.00    +0.216 A 
ATOM     20  C   UNL     1      10.016  11.563  10.037  0.00  0.00    +0.111 A 
ATOM     22  C   UNL     1       8.294  12.550  11.267  0.00  0.00    +0.116 A 
ATOM     23  C   UNL     1       8.658  11.713  10.233  0.00  0.00    +0.051 A 
ATOM     35  H   UNL     1      11.051  14.171  13.324  0.00  0.00    +0.149 HD
BRANCH  20  24
ATOM      4  O   UNL     1      11.835  10.941   8.659  0.00  0.00    -0.461 OA
ATOM     24  C   UNL     1      10.536  10.720   8.993  0.00  0.00    +0.153 A 
ATOM     29  C   UNL     1      10.006   9.708   8.227  0.00  0.00    +0.051 A 
ATOM     31  C   UNL     1      11.045   9.279   7.368  0.00  0.00    +0.042 A 
ATOM     32  C   UNL     1      12.137  10.060   7.669  0.00  0.00    +0.196 A 
ENDBRANCH  20  24
ENDBRANCH  14   7
BRANCH  15   8
ATOM      3  O   UNL     1      14.275  11.180  17.501  0.00  0.00    -0.252 OA
ATOM      8  N   UNL     1      14.640  10.565  15.302  0.00  0.00    -0.292 N 
ATOM      9  N   UNL     1      14.151   8.931  16.841  0.00  0.00    -0.269 N 
ATOM     19  C   UNL     1      14.345  10.301  16.645  0.00  0.00    +0.304 C 
ATOM     36  H   UNL     1      14.613   9.793  14.642  0.00  0.00    +0.151 HD
ATOM     37  H   UNL     1      14.247   8.335  16.022  0.00  0.00    +0.156 HD
BRANCH   9  21
ATOM     21  C   UNL     1      13.837   8.262  18.047  0.00  0.00    +0.042 A 
ATOM     25  C   UNL     1      12.539   8.311  18.554  0.00  0.00    +0.069 A 
ATOM     26  C   UNL     1      14.826   7.553  18.728  0.00  0.00    +0.069 A 
ATOM     27  C   UNL     1      14.518   6.893  19.917  0.00  0.00    +0.125 A 
ATOM     28  C   UNL     1      12.230   7.650  19.743  0.00  0.00    +0.125 A 
ATOM     30  C   UNL     1      13.219   6.941  20.425  0.00  0.00    +0.091 A 
BRANCH  27   5
ATOM      5  O   UNL     1      15.483   6.202  20.584  0.00  0.00    -0.495 OA
ATOM     33  C   UNL     1      16.822   6.679  20.464  0.00  0.00    +0.277 C 
ENDBRANCH  27   5
BRANCH  28   6
ATOM      6  O   UNL     1      10.963   7.697  20.239  0.00  0.00    -0.495 OA
ATOM     34  C   UNL     1      10.786   7.326  21.605  0.00  0.00    +0.277 C 
ENDBRANCH  28   6
ENDBRANCH   9  21
ENDBRANCH  15   8
TORSDOF 6
ENDMDL
MODEL 4
REMARK VINA RESULT:      -6.8     14.326     19.311
REMARK  Name = 11941654
REMARK  8 active torsions:
REMARK  status: ('A' for Active; 'I' for Inactive)
REMARK    1  A    between atoms: O_5  and  C_27
REMARK    2  A    between atoms: O_5  and  C_33
REMARK    3  A    between atoms: O_6  and  C_28
REMARK    4  A    between atoms: O_6  and  C_34
REMARK    5  A    between atoms: N_7  and  C_14
REMARK    6  A    between atoms: N_8  and  C_15
REMARK    7  A    between atoms: N_9  and  C_21
REMARK    8  A    between atoms: C_20  and  C_24
REMARK                            x       y       z     vdW  Elec       q    Type
REMARK                         _______ _______ _______ _____ _____    ______ ____
ROOT
ATOM      1  O   UNL     1       8.666   7.525   6.462  0.00  0.00    -0.370 OA
ATOM      2  O   UNL     1      10.819   5.823   7.946  0.00  0.00    -0.370 OA
ATOM     12  C   UNL     1      10.898   6.924   7.027  0.00  0.00    +0.171 C 
ATOM     13  C   UNL     1       9.785   6.744   6.012  0.00  0.00    +0.171 C 
ATOM     14  C   UNL     1      10.554   8.217   7.727  0.00  0.00    +0.130 C 
ATOM     15  C   UNL     1       9.460   5.269   6.081  0.00  0.00    +0.131 C 
ATOM     16  C   UNL     1       9.038   8.247   7.645  0.00  0.00    +0.185 C 
ATOM     17  C   UNL     1       9.770   4.935   7.529  0.00  0.00    +0.185 C 
ENDROOT
BRANCH  14   7
ATOM      7  N   UNL     1      11.115   9.337   7.004  0.00  0.00    -0.306 N 
ATOM     10  N   UNL     1      11.196  10.652   8.916  0.00  0.00    -0.211 NA
ATOM     11  N   UNL     1      11.953  11.492   6.787  0.00  0.00    -0.223 NA
ATOM     18  C   UNL     1      11.435  10.546   7.595  0.00  0.00    +0.216 A 
ATOM     20  C   UNL     1      11.520  11.844   9.459  0.00  0.00    +0.111 A 
ATOM     22  C   UNL     1      12.253  12.658   7.396  0.00  0.00    +0.116 A 
ATOM     23  C   UNL     1      12.056  12.894   8.741  0.00  0.00    +0.051 A 
ATOM     35  H   UNL     1      11.342   9.232   6.021  0.00  0.00    +0.149 HD
BRANCH  20  24
ATOM      4  O   UNL     1      12.364  12.047  11.659  0.00  0.00    -0.461 OA
ATOM     24  C   UNL     1      11.261  11.953  10.870  0.00  0.00    +0.153 A 
ATOM     29  C   UNL     1      10.118  11.986  11.634  0.00  0.00    +0.051 A 
ATOM     31  C   UNL     1      10.544  12.107  12.977  0.00  0.00    +0.042 A 
ATOM     32  C   UNL     1      11.920  12.140  12.940  0.00  0.00    +0.196 A 
ENDBRANCH  20  24
ENDBRANCH  14   7
BRANCH  15   8
ATOM      3  O   UNL     1       9.956   5.838   3.317  0.00  0.00    -0.252 OA
ATOM      8  N   UNL     1      10.291   4.509   5.179  0.00  0.00    -0.292 N 
ATOM      9  N   UNL     1      11.332   3.940   3.212  0.00  0.00    -0.269 N 
ATOM     19  C   UNL     1      10.481   4.856   3.836  0.00  0.00    +0.304 C 
ATOM     36  H   UNL     1      10.813   3.721   5.551  0.00  0.00    +0.151 HD
ATOM     37  H   UNL     1      11.681   3.177   3.787  0.00  0.00    +0.156 HD
BRANCH   9  21
ATOM     21  C   UNL     1      11.770   3.937   1.867  0.00  0.00    +0.042 A 
ATOM     25  C   UNL     1      10.838   3.983   0.830  0.00  0.00    +0.069 A 
ATOM     26  C   UNL     1      13.133   3.889   1.579  0.00  0.00    +0.069 A 
ATOM     27  C   UNL     1      13.566   3.887   0.253  0.00  0.00    +0.125 A 
ATOM     28  C   UNL     1      11.272   3.982  -0.496  0.00  0.00    +0.125 A 
ATOM     30  C   UNL     1      12.635   3.933  -0.785  0.00  0.00    +0.091 A 
BRANCH  27   5
ATOM      5  O   UNL     1      14.897   3.839  -0.030  0.00  0.00    -0.495 OA
ATOM     33  C   UNL     1      15.302   4.294  -1.320  0.00  0.00    +0.277 C 
ENDBRANCH  27   5
BRANCH  28   6
ATOM      6  O   UNL     1      10.363   4.027  -1.509  0.00  0.00    -0.495 OA
ATOM     34  C   UNL     1       9.782   5.296  -1.804  0.00  0.00    +0.277 C 
ENDBRANCH  28   6
ENDBRANCH   9  21
ENDBRANCH  15   8
TORSDOF 6
ENDMDL
MODEL 5
REMARK VINA RESULT:      -6.7     27.640     31.935
REMARK  Name = 11941654
REMARK  8 active torsions:
REMARK  status: ('A' for Active; 'I' for Inactive)
REMARK    1  A    between atoms: O_5  and  C_27
REMARK    2  A    between atoms: O_5  and  C_33
REMARK    3  A    between atoms: O_6  and  C_28
REMARK    4  A    between atoms: O_6  and  C_34
REMARK    5  A    between atoms: N_7  and  C_14
REMARK    6  A    between atoms: N_8  and  C_15
REMARK    7  A    between atoms: N_9  and  C_21
REMARK    8  A    between atoms: C_20  and  C_24
REMARK                            x       y       z     vdW  Elec       q    Type
REMARK                         _______ _______ _______ _____ _____    ______ ____
ROOT
ATOM      1  O   UNL     1      -4.933  -9.068  10.246  0.00  0.00    -0.370 OA
ATOM      2  O   UNL     1      -5.848 -12.022  10.667  0.00  0.00    -0.370 OA
ATOM     12  C   UNL     1      -4.584 -11.353  10.811  0.00  0.00    +0.171 C 
ATOM     13  C   UNL     1      -4.491 -10.323   9.702  0.00  0.00    +0.171 C 
ATOM     14  C   UNL     1      -4.567 -10.534  12.080  0.00  0.00    +0.130 C 
ATOM     15  C   UNL     1      -5.466 -10.817   8.657  0.00  0.00    +0.131 C 
ATOM     16  C   UNL     1      -5.215  -9.232  11.644  0.00  0.00    +0.185 C 
ATOM     17  C   UNL     1      -6.516 -11.518   9.500  0.00  0.00    +0.185 C 
ENDROOT
BRANCH  14   7
ATOM      7  N   UNL     1      -3.203 -10.297  12.498  0.00  0.00    -0.306 N 
ATOM     10  N   UNL     1      -3.698 -10.786  14.714  0.00  0.00    -0.211 NA
ATOM     11  N   UNL     1      -1.468 -10.170  14.037  0.00  0.00    -0.223 NA
ATOM     18  C   UNL     1      -2.771 -10.423  13.806  0.00  0.00    +0.216 A 
ATOM     20  C   UNL     1      -3.242 -10.900  15.979  0.00  0.00    +0.111 A 
ATOM     22  C   UNL     1      -1.082 -10.303  15.323  0.00  0.00    +0.116 A 
ATOM     23  C   UNL     1      -1.932 -10.668  16.346  0.00  0.00    +0.051 A 
ATOM     35  H   UNL     1      -2.499 -10.076  11.802  0.00  0.00    +0.149 HD
BRANCH  20  24
ATOM      4  O   UNL     1      -4.454 -12.624  17.054  0.00  0.00    -0.461 OA
ATOM     24  C   UNL     1      -4.236 -11.286  16.945  0.00  0.00    +0.153 A 
ATOM     29  C   UNL     1      -5.047 -10.593  17.813  0.00  0.00    +0.051 A 
ATOM     31  C   UNL     1      -5.810 -11.566  18.500  0.00  0.00    +0.042 A 
ATOM     32  C   UNL     1      -5.413 -12.786  18.002  0.00  0.00    +0.196 A 
ENDBRANCH  20  24
ENDBRANCH  14   7
BRANCH  15   8
ATOM      3  O   UNL     1      -5.320 -10.570   5.807  0.00  0.00    -0.252 OA
ATOM      8  N   UNL     1      -4.830 -11.735   7.744  0.00  0.00    -0.292 N 
ATOM      9  N   UNL     1      -4.122 -12.587   5.731  0.00  0.00    -0.269 N 
ATOM     19  C   UNL     1      -4.804 -11.540   6.358  0.00  0.00    +0.304 C 
ATOM     36  H   UNL     1      -4.323 -12.527   8.128  0.00  0.00    +0.151 HD
ATOM     37  H   UNL     1      -3.755 -13.318   6.336  0.00  0.00    +0.156 HD
BRANCH   9  21
ATOM     21  C   UNL     1      -3.878 -12.762   4.349  0.00  0.00    +0.042 A 
ATOM     25  C   UNL     1      -4.942 -12.753   3.447  0.00  0.00    +0.069 A 
ATOM     26  C   UNL     1      -2.574 -12.943   3.889  0.00  0.00    +0.069 A 
ATOM     27  C   UNL     1      -2.333 -13.115   2.527  0.00  0.00    +0.125 A 
ATOM     28  C   UNL     1      -4.700 -12.924   2.084  0.00  0.00    +0.125 A 
ATOM     30  C   UNL     1      -3.396 -13.105   1.623  0.00  0.00    +0.091 A 
BRANCH  27   5
ATOM      5  O   UNL     1      -1.060 -13.292   2.076  0.00  0.00    -0.495 OA
ATOM     33  C   UNL     1      -0.708 -14.601   1.631  0.00  0.00    +0.277 C 
ENDBRANCH  27   5
BRANCH  28   6
ATOM      6  O   UNL     1      -5.737 -12.916   1.202  0.00  0.00    -0.495 OA
ATOM     34  C   UNL     1      -5.450 -13.294  -0.143  0.00  0.00    +0.277 C 
ENDBRANCH  28   6
ENDBRANCH   9  21
ENDBRANCH  15   8
TORSDOF 6
ENDMDL
MODEL 6
REMARK VINA RESULT:      -6.7     27.934     32.073
REMARK  Name = 11941654
REMARK  8 active torsions:
REMARK  status: ('A' for Active; 'I' for Inactive)
REMARK    1  A    between atoms: O_5  and  C_27
REMARK    2  A    between atoms: O_5  and  C_33
REMARK    3  A    between atoms: O_6  and  C_28
REMARK    4  A    between atoms: O_6  and  C_34
REMARK    5  A    between atoms: N_7  and  C_14
REMARK    6  A    between atoms: N_8  and  C_15
REMARK    7  A    between atoms: N_9  and  C_21
REMARK    8  A    between atoms: C_20  and  C_24
REMARK                            x       y       z     vdW  Elec       q    Type
REMARK                         _______ _______ _______ _____ _____    ______ ____
ROOT
ATOM      1  O   UNL     1      -4.865  -9.114  10.349  0.00  0.00    -0.370 OA
ATOM      2  O   UNL     1      -6.197 -11.921  10.631  0.00  0.00    -0.370 OA
ATOM     12  C   UNL     1      -4.857 -11.443  10.835  0.00  0.00    +0.171 C 
ATOM     13  C   UNL     1      -4.585 -10.399   9.769  0.00  0.00    +0.171 C 
ATOM     14  C   UNL     1      -4.766 -10.678  12.134  0.00  0.00    +0.130 C 
ATOM     15  C   UNL     1      -5.586 -10.715   8.680  0.00  0.00    +0.131 C 
ATOM     16  C   UNL     1      -5.212  -9.284  11.731  0.00  0.00    +0.185 C 
ATOM     17  C   UNL     1      -6.750 -11.289   9.467  0.00  0.00    +0.185 C 
ENDROOT
BRANCH  14   7
ATOM      7  N   UNL     1      -3.396 -10.651  12.598  0.00  0.00    -0.306 N 
ATOM     10  N   UNL     1      -4.051 -10.644  14.826  0.00  0.00    -0.211 NA
ATOM     11  N   UNL     1      -1.722 -10.611  14.207  0.00  0.00    -0.223 NA
ATOM     18  C   UNL     1      -3.041 -10.635  13.934  0.00  0.00    +0.216 A 
ATOM     20  C   UNL     1      -3.669 -10.629  16.120  0.00  0.00    +0.111 A 
ATOM     22  C   UNL     1      -1.412 -10.596  15.520  0.00  0.00    +0.116 A 
ATOM     23  C   UNL     1      -2.352 -10.604  16.530  0.00  0.00    +0.051 A 
ATOM     35  H   UNL     1      -2.641 -10.697  11.923  0.00  0.00    +0.149 HD
BRANCH  20  24
ATOM      4  O   UNL     1      -5.911 -10.075  16.633  0.00  0.00    -0.461 OA
ATOM     24  C   UNL     1      -4.752 -10.637  17.068  0.00  0.00    +0.153 A 
ATOM     29  C   UNL     1      -4.892 -11.098  18.356  0.00  0.00    +0.051 A 
ATOM     31  C   UNL     1      -6.221 -10.800  18.738  0.00  0.00    +0.042 A 
ATOM     32  C   UNL     1      -6.800 -10.178  17.656  0.00  0.00    +0.196 A 
ENDBRANCH  20  24
ENDBRANCH  14   7
BRANCH  15   8
ATOM      3  O   UNL     1      -5.322 -10.396   5.846  0.00  0.00    -0.252 OA
ATOM      8  N   UNL     1      -5.056 -11.681   7.749  0.00  0.00    -0.292 N 
ATOM      9  N   UNL     1      -4.412 -12.556   5.725  0.00  0.00    -0.269 N 
ATOM     19  C   UNL     1      -4.962 -11.446   6.372  0.00  0.00    +0.304 C 
ATOM     36  H   UNL     1      -4.674 -12.548   8.117  0.00  0.00    +0.151 HD
ATOM     37  H   UNL     1      -4.168 -13.350   6.311  0.00  0.00    +0.156 HD
BRANCH   9  21
ATOM     21  C   UNL     1      -4.154 -12.716   4.344  0.00  0.00    +0.042 A 
ATOM     25  C   UNL     1      -2.844 -12.880   3.894  0.00  0.00    +0.069 A 
ATOM     26  C   UNL     1      -5.209 -12.710   3.432  0.00  0.00    +0.069 A 
ATOM     27  C   UNL     1      -4.955 -12.868   2.070  0.00  0.00    +0.125 A 
ATOM     28  C   UNL     1      -2.590 -13.038   2.532  0.00  0.00    +0.125 A 
ATOM     30  C   UNL     1      -3.645 -13.032   1.620  0.00  0.00    +0.091 A 
BRANCH  27   5
ATOM      5  O   UNL     1      -5.984 -12.861   1.179  0.00  0.00    -0.495 OA
ATOM     33  C   UNL     1      -5.698 -13.311  -0.144  0.00  0.00    +0.277 C 
ENDBRANCH  27   5
BRANCH  28   6
ATOM      6  O   UNL     1      -1.312 -13.199   2.092  0.00  0.00    -0.495 OA
ATOM     34  C   UNL     1      -0.849 -14.537   1.914  0.00  0.00    +0.277 C 
ENDBRANCH  28   6
ENDBRANCH   9  21
ENDBRANCH  15   8
TORSDOF 6
ENDMDL
MODEL 7
REMARK VINA RESULT:      -6.7     17.705     23.368
REMARK  Name = 11941654
REMARK  8 active torsions:
REMARK  status: ('A' for Active; 'I' for Inactive)
REMARK    1  A    between atoms: O_5  and  C_27
REMARK    2  A    between atoms: O_5  and  C_33
REMARK    3  A    between atoms: O_6  and  C_28
REMARK    4  A    between atoms: O_6  and  C_34
REMARK    5  A    between atoms: N_7  and  C_14
REMARK    6  A    between atoms: N_8  and  C_15
REMARK    7  A    between atoms: N_9  and  C_21
REMARK    8  A    between atoms: C_20  and  C_24
REMARK                            x       y       z     vdW  Elec       q    Type
REMARK                         _______ _______ _______ _____ _____    ______ ____
ROOT
ATOM      1  O   UNL     1      12.496   6.158  -0.350  0.00  0.00    -0.370 OA
ATOM      2  O   UNL     1      12.676   3.122   0.344  0.00  0.00    -0.370 OA
ATOM     12  C   UNL     1      11.620   3.954  -0.161  0.00  0.00    +0.171 C 
ATOM     13  C   UNL     1      11.743   5.302   0.524  0.00  0.00    +0.171 C 
ATOM     14  C   UNL     1      11.846   4.260  -1.622  0.00  0.00    +0.130 C 
ATOM     15  C   UNL     1      12.531   5.006   1.780  0.00  0.00    +0.131 C 
ATOM     16  C   UNL     1      12.777   5.458  -1.571  0.00  0.00    +0.185 C 
ATOM     17  C   UNL     1      13.407   3.844   1.347  0.00  0.00    +0.185 C 
ENDROOT
BRANCH  14   7
ATOM      7  N   UNL     1      10.596   4.625  -2.251  0.00  0.00    -0.306 N 
ATOM     10  N   UNL     1      11.243   3.707  -4.284  0.00  0.00    -0.211 NA
ATOM     11  N   UNL     1       9.088   4.752  -4.013  0.00  0.00    -0.223 NA
ATOM     18  C   UNL     1      10.296   4.349  -3.573  0.00  0.00    +0.216 A 
ATOM     20  C   UNL     1      10.917   3.454  -5.569  0.00  0.00    +0.111 A 
ATOM     22  C   UNL     1       8.829   4.467  -5.306  0.00  0.00    +0.116 A 
ATOM     23  C   UNL     1       9.714   3.814  -6.140  0.00  0.00    +0.051 A 
ATOM     35  H   UNL     1       9.868   5.060  -1.697  0.00  0.00    +0.149 HD
BRANCH  20  24
ATOM      4  O   UNL     1      11.488   2.092  -7.416  0.00  0.00    -0.461 OA
ATOM     24  C   UNL     1      11.932   2.769  -6.324  0.00  0.00    +0.153 A 
ATOM     29  C   UNL     1      13.295   2.634  -6.194  0.00  0.00    +0.051 A 
ATOM     31  C   UNL     1      13.715   1.824  -7.275  0.00  0.00    +0.042 A 
ATOM     32  C   UNL     1      12.580   1.520  -7.989  0.00  0.00    +0.196 A 
ENDBRANCH  20  24
ENDBRANCH  14   7
BRANCH  15   8
ATOM      3  O   UNL     1      11.911   6.567   4.101  0.00  0.00    -0.252 OA
ATOM      8  N   UNL     1      11.660   4.628   2.866  0.00  0.00    -0.292 N 
ATOM      9  N   UNL     1      10.531   4.825   4.857  0.00  0.00    -0.269 N 
ATOM     19  C   UNL     1      11.409   5.453   3.969  0.00  0.00    +0.304 C 
ATOM     36  H   UNL     1      11.155   3.749   2.797  0.00  0.00    +0.151 HD
ATOM     37  H   UNL     1      10.208   3.896   4.598  0.00  0.00    +0.156 HD
BRANCH   9  21
ATOM     21  C   UNL     1      10.033   5.323   6.083  0.00  0.00    +0.042 A 
ATOM     25  C   UNL     1      10.116   4.545   7.237  0.00  0.00    +0.069 A 
ATOM     26  C   UNL     1       9.457   6.592   6.138  0.00  0.00    +0.069 A 
ATOM     27  C   UNL     1       8.966   7.084   7.346  0.00  0.00    +0.125 A 
ATOM     28  C   UNL     1       9.624   5.037   8.447  0.00  0.00    +0.125 A 
ATOM     30  C   UNL     1       9.049   6.306   8.501  0.00  0.00    +0.091 A 
BRANCH  27   5
ATOM      5  O   UNL     1       8.403   8.323   7.401  0.00  0.00    -0.495 OA
ATOM     33  C   UNL     1       9.287   9.429   7.573  0.00  0.00    +0.277 C 
ENDBRANCH  27   5
BRANCH  28   6
ATOM      6  O   UNL     1       9.705   4.278   9.574  0.00  0.00    -0.495 OA
ATOM     34  C   UNL     1       8.722   4.505  10.582  0.00  0.00    +0.277 C 
ENDBRANCH  28   6
ENDBRANCH   9  21
ENDBRANCH  15   8
TORSDOF 6
ENDMDL
MODEL 8
REMARK VINA RESULT:      -6.6     17.743     23.498
REMARK  Name = 11941654
REMARK  8 active torsions:
REMARK  status: ('A' for Active; 'I' for Inactive)
REMARK    1  A    between atoms: O_5  and  C_27
REMARK    2  A    between atoms: O_5  and  C_33
REMARK    3  A    between atoms: O_6  and  C_28
REMARK    4  A    between atoms: O_6  and  C_34
REMARK    5  A    between atoms: N_7  and  C_14
REMARK    6  A    between atoms: N_8  and  C_15
REMARK    7  A    between atoms: N_9  and  C_21
REMARK    8  A    between atoms: C_20  and  C_24
REMARK                            x       y       z     vdW  Elec       q    Type
REMARK                         _______ _______ _______ _____ _____    ______ ____
ROOT
ATOM      1  O   UNL     1      12.644   6.064  -0.445  0.00  0.00    -0.370 OA
ATOM      2  O   UNL     1      12.800   3.031   0.274  0.00  0.00    -0.370 OA
ATOM     12  C   UNL     1      11.732   3.883  -0.171  0.00  0.00    +0.171 C 
ATOM     13  C   UNL     1      11.931   5.235   0.488  0.00  0.00    +0.171 C 
ATOM     14  C   UNL     1      11.867   4.167  -1.648  0.00  0.00    +0.130 C 
ATOM     15  C   UNL     1      12.794   4.934   1.692  0.00  0.00    +0.131 C 
ATOM     16  C   UNL     1      12.828   5.343  -1.673  0.00  0.00    +0.185 C 
ATOM     17  C   UNL     1      13.612   3.747   1.216  0.00  0.00    +0.185 C 
ENDROOT
BRANCH  14   7
ATOM      7  N   UNL     1      10.587   4.555  -2.197  0.00  0.00    -0.306 N 
ATOM     10  N   UNL     1      11.149   3.767  -4.308  0.00  0.00    -0.211 NA
ATOM     11  N   UNL     1       9.000   4.770  -3.878  0.00  0.00    -0.223 NA
ATOM     18  C   UNL     1      10.230   4.355  -3.518  0.00  0.00    +0.216 A 
ATOM     20  C   UNL     1      10.767   3.587  -5.590  0.00  0.00    +0.111 A 
ATOM     22  C   UNL     1       8.685   4.559  -5.174  0.00  0.00    +0.116 A 
ATOM     23  C   UNL     1       9.536   3.967  -6.084  0.00  0.00    +0.051 A 
ATOM     35  H   UNL     1       9.881   4.949  -1.586  0.00  0.00    +0.149 HD
BRANCH  20  24
ATOM      4  O   UNL     1      12.873   2.529  -5.791  0.00  0.00    -0.461 OA
ATOM     24  C   UNL     1      11.752   2.959  -6.430  0.00  0.00    +0.153 A 
ATOM     29  C   UNL     1      11.827   2.683  -7.775  0.00  0.00    +0.051 A 
ATOM     31  C   UNL     1      13.072   2.043  -7.977  0.00  0.00    +0.042 A 
ATOM     32  C   UNL     1      13.671   1.973  -6.740  0.00  0.00    +0.196 A 
ENDBRANCH  20  24
ENDBRANCH  14   7
BRANCH  15   8
ATOM      3  O   UNL     1      11.823   6.726   3.705  0.00  0.00    -0.252 OA
ATOM      8  N   UNL     1      11.989   4.589   2.838  0.00  0.00    -0.292 N 
ATOM      9  N   UNL     1      10.796   4.907   4.775  0.00  0.00    -0.269 N 
ATOM     19  C   UNL     1      11.554   5.530   3.780  0.00  0.00    +0.304 C 
ATOM     36  H   UNL     1      11.668   3.630   2.933  0.00  0.00    +0.151 HD
ATOM     37  H   UNL     1      10.668   3.902   4.689  0.00  0.00    +0.156 HD
BRANCH   9  21
ATOM     21  C   UNL     1      10.180   5.505   5.899  0.00  0.00    +0.042 A 
ATOM     25  C   UNL     1       9.306   6.579   5.727  0.00  0.00    +0.069 A 
ATOM     26  C   UNL     1      10.446   5.021   7.180  0.00  0.00    +0.069 A 
ATOM     27  C   UNL     1       9.840   5.610   8.288  0.00  0.00    +0.125 A 
ATOM     28  C   UNL     1       8.699   7.168   6.836  0.00  0.00    +0.125 A 
ATOM     30  C   UNL     1       8.966   6.683   8.117  0.00  0.00    +0.091 A 
BRANCH  27   5
ATOM      5  O   UNL     1      10.100   5.139   9.539  0.00  0.00    -0.495 OA
ATOM     33  C   UNL     1       9.002   4.590  10.266  0.00  0.00    +0.277 C 
ENDBRANCH  27   5
BRANCH  28   6
ATOM      6  O   UNL     1       7.846   8.215   6.669  0.00  0.00    -0.495 OA
ATOM     34  C   UNL     1       8.250   9.244   5.766  0.00  0.00    +0.277 C 
ENDBRANCH  28   6
ENDBRANCH   9  21
ENDBRANCH  15   8
TORSDOF 6
ENDMDL
MODEL 9
REMARK VINA RESULT:      -6.5      2.057     11.194
REMARK  Name = 11941654
REMARK  8 active torsions:
REMARK  status: ('A' for Active; 'I' for Inactive)
REMARK    1  A    between atoms: O_5  and  C_27
REMARK    2  A    between atoms: O_5  and  C_33
REMARK    3  A    between atoms: O_6  and  C_28
REMARK    4  A    between atoms: O_6  and  C_34
REMARK    5  A    between atoms: N_7  and  C_14
REMARK    6  A    between atoms: N_8  and  C_15
REMARK    7  A    between atoms: N_9  and  C_21
REMARK    8  A    between atoms: C_20  and  C_24
REMARK                            x       y       z     vdW  Elec       q    Type
REMARK                         _______ _______ _______ _____ _____    ______ ____
ROOT
ATOM      1  O   UNL     1      19.849   8.356  22.880  0.00  0.00    -0.370 OA
ATOM      2  O   UNL     1      19.880   6.796  20.178  0.00  0.00    -0.370 OA
ATOM     12  C   UNL     1      18.966   6.824  21.287  0.00  0.00    +0.171 C 
ATOM     13  C   UNL     1      19.796   6.958  22.549  0.00  0.00    +0.171 C 
ATOM     14  C   UNL     1      18.139   8.087  21.253  0.00  0.00    +0.130 C 
ATOM     15  C   UNL     1      21.166   6.461  22.144  0.00  0.00    +0.131 C 
ATOM     16  C   UNL     1      19.035   9.092  21.954  0.00  0.00    +0.185 C 
ATOM     17  C   UNL     1      21.226   6.838  20.674  0.00  0.00    +0.185 C 
ENDROOT
BRANCH  14   7
ATOM      7  N   UNL     1      16.917   7.899  22.002  0.00  0.00    -0.306 N 
ATOM     10  N   UNL     1      15.599   8.237  20.120  0.00  0.00    -0.211 NA
ATOM     11  N   UNL     1      14.614   7.772  22.270  0.00  0.00    -0.223 NA
ATOM     18  C   UNL     1      15.655   7.972  21.440  0.00  0.00    +0.216 A 
ATOM     20  C   UNL     1      14.353   8.300  19.605  0.00  0.00    +0.111 A 
ATOM     22  C   UNL     1      13.398   7.850  21.688  0.00  0.00    +0.116 A 
ATOM     23  C   UNL     1      13.205   8.114  20.348  0.00  0.00    +0.051 A 
ATOM     35  H   UNL     1      16.968   7.648  22.983  0.00  0.00    +0.149 HD
BRANCH  20  24
ATOM      4  O   UNL     1      14.533   9.878  17.852  0.00  0.00    -0.461 OA
ATOM     24  C   UNL     1      14.299   8.584  18.195  0.00  0.00    +0.153 A 
ATOM     29  C   UNL     1      14.055   7.824  17.075  0.00  0.00    +0.051 A 
ATOM     31  C   UNL     1      14.146   8.706  15.973  0.00  0.00    +0.042 A 
ATOM     32  C   UNL     1      14.438   9.944  16.498  0.00  0.00    +0.196 A 
ENDBRANCH  20  24
ENDBRANCH  14   7
BRANCH  15   8
ATOM      3  O   UNL     1      23.404   5.040  23.228  0.00  0.00    -0.252 OA
ATOM      8  N   UNL     1      21.276   5.034  22.323  0.00  0.00    -0.292 N 
ATOM      9  N   UNL     1      22.232   3.030  22.914  0.00  0.00    -0.269 N 
ATOM     19  C   UNL     1      22.411   4.416  22.863  0.00  0.00    +0.304 C 
ATOM     36  H   UNL     1      20.470   4.455  22.108  0.00  0.00    +0.151 HD
ATOM     37  H   UNL     1      21.346   2.672  22.568  0.00  0.00    +0.156 HD
BRANCH   9  21
ATOM     21  C   UNL     1      23.139   2.055  23.390  0.00  0.00    +0.042 A 
ATOM     25  C   UNL     1      24.172   1.604  22.569  0.00  0.00    +0.069 A 
ATOM     26  C   UNL     1      23.000   1.544  24.680  0.00  0.00    +0.069 A 
ATOM     27  C   UNL     1      23.893   0.582  25.150  0.00  0.00    +0.125 A 
ATOM     28  C   UNL     1      25.066   0.642  23.039  0.00  0.00    +0.125 A 
ATOM     30  C   UNL     1      24.927   0.131  24.329  0.00  0.00    +0.091 A 
BRANCH  27   5
ATOM      5  O   UNL     1      23.758   0.082  26.409  0.00  0.00    -0.495 OA
ATOM     33  C   UNL     1      22.432  -0.021  26.926  0.00  0.00    +0.277 C 
ENDBRANCH  27   5
BRANCH  28   6
ATOM      6  O   UNL     1      26.075   0.201  22.238  0.00  0.00    -0.495 OA
ATOM     34  C   UNL     1      26.511  -1.145  22.424  0.00  0.00    +0.277 C 
ENDBRANCH  28   6
ENDBRANCH   9  21
ENDBRANCH  15   8
TORSDOF 6
ENDMDL
MODEL 10
REMARK VINA RESULT:      -6.5      2.034     11.066
REMARK  Name = 11941654
REMARK  8 active torsions:
REMARK  status: ('A' for Active; 'I' for Inactive)
REMARK    1  A    between atoms: O_5  and  C_27
REMARK    2  A    between atoms: O_5  and  C_33
REMARK    3  A    between atoms: O_6  and  C_28
REMARK    4  A    between atoms: O_6  and  C_34
REMARK    5  A    between atoms: N_7  and  C_14
REMARK    6  A    between atoms: N_8  and  C_15
REMARK    7  A    between atoms: N_9  and  C_21
REMARK    8  A    between atoms: C_20  and  C_24
REMARK                            x       y       z     vdW  Elec       q    Type
REMARK                         _______ _______ _______ _____ _____    ______ ____
ROOT
ATOM      1  O   UNL     1      19.692   8.365  22.856  0.00  0.00    -0.370 OA
ATOM      2  O   UNL     1      19.841   6.858  20.128  0.00  0.00    -0.370 OA
ATOM     12  C   UNL     1      18.905   6.829  21.217  0.00  0.00    +0.171 C 
ATOM     13  C   UNL     1      19.703   6.973  22.499  0.00  0.00    +0.171 C 
ATOM     14  C   UNL     1      18.028   8.058  21.188  0.00  0.00    +0.130 C 
ATOM     15  C   UNL     1      21.099   6.539  22.115  0.00  0.00    +0.131 C 
ATOM     16  C   UNL     1      18.868   9.085  21.925  0.00  0.00    +0.185 C 
ATOM     17  C   UNL     1      21.174   6.945  20.654  0.00  0.00    +0.185 C 
ENDROOT
BRANCH  14   7
ATOM      7  N   UNL     1      16.799   7.807  21.908  0.00  0.00    -0.306 N 
ATOM     10  N   UNL     1      15.503   8.189  20.018  0.00  0.00    -0.211 NA
ATOM     11  N   UNL     1      14.496   7.609  22.130  0.00  0.00    -0.223 NA
ATOM     18  C   UNL     1      15.545   7.871  21.327  0.00  0.00    +0.216 A 
ATOM     20  C   UNL     1      14.265   8.242  19.485  0.00  0.00    +0.111 A 
ATOM     22  C   UNL     1      13.289   7.681  21.531  0.00  0.00    +0.116 A 
ATOM     23  C   UNL     1      13.111   7.995  20.199  0.00  0.00    +0.051 A 
ATOM     35  H   UNL     1      16.841   7.517  22.878  0.00  0.00    +0.149 HD
BRANCH  20  24
ATOM      4  O   UNL     1      14.457   9.891  17.800  0.00  0.00    -0.461 OA
ATOM     24  C   UNL     1      14.226   8.582  18.087  0.00  0.00    +0.153 A 
ATOM     29  C   UNL     1      14.000   7.868  16.934  0.00  0.00    +0.051 A 
ATOM     31  C   UNL     1      14.099   8.795  15.870  0.00  0.00    +0.042 A 
ATOM     32  C   UNL     1      14.378  10.012  16.449  0.00  0.00    +0.196 A 
ENDBRANCH  20  24
ENDBRANCH  14   7
BRANCH  15   8
ATOM      3  O   UNL     1      23.353   5.191  23.259  0.00  0.00    -0.252 OA
ATOM      8  N   UNL     1      21.264   5.114  22.271  0.00  0.00    -0.292 N 
ATOM      9  N   UNL     1      22.281   3.141  22.862  0.00  0.00    -0.269 N 
ATOM     19  C   UNL     1      22.402   4.533  22.843  0.00  0.00    +0.304 C 
ATOM     36  H   UNL     1      20.491   4.507  22.013  0.00  0.00    +0.151 HD
ATOM     37  H   UNL     1      21.425   2.753  22.474  0.00  0.00    +0.156 HD
BRANCH   9  21
ATOM     21  C   UNL     1      23.210   2.195  23.354  0.00  0.00    +0.042 A 
ATOM     25  C   UNL     1      23.209   1.855  24.707  0.00  0.00    +0.069 A 
ATOM     26  C   UNL     1      24.127   1.602  22.487  0.00  0.00    +0.069 A 
ATOM     27  C   UNL     1      25.043   0.669  22.971  0.00  0.00    +0.125 A 
ATOM     28  C   UNL     1      24.126   0.922  25.191  0.00  0.00    +0.125 A 
ATOM     30  C   UNL     1      25.043   0.329  24.324  0.00  0.00    +0.091 A 
BRANCH  27   5
ATOM      5  O   UNL     1      25.940   0.090  22.125  0.00  0.00    -0.495 OA
ATOM     33  C   UNL     1      26.409  -1.211  22.471  0.00  0.00    +0.277 C 
ENDBRANCH  27   5
BRANCH  28   6
ATOM      6  O   UNL     1      24.125   0.590  26.511  0.00  0.00    -0.495 OA
ATOM     34  C   UNL     1      22.899   0.754  27.222  0.00  0.00    +0.277 C 
ENDBRANCH  28   6
ENDBRANCH   9  21
ENDBRANCH  15   8
TORSDOF 6
ENDMDL
