REMARK  Name = 25314828
REMARK  8 active torsions:
REMARK  status: ('A' for Active; 'I' for Inactive)
REMARK    1  A    between atoms: O_3  and  C_12
REMARK    2  A    between atoms: O_5  and  C_23
REMARK    3  A    between atoms: O_5  and  C_31
REMARK    4  A    between atoms: N_6  and  C_11
REMARK    5  A    between atoms: N_7  and  C_13
REMARK    6  A    between atoms: N_8  and  C_22
REMARK    7  A    between atoms: N_9  and  C_27
REMARK    8  A    between atoms: C_32  and  C_35
REMARK                            x       y       z     vdW  Elec       q    Type
REMARK                         _______ _______ _______ _____ _____    ______ ____
ROOT
ATOM      1  O   UNL     1       0.520  -3.205   1.739  0.00  0.00    -0.342 OA
ATOM      2  O   UNL     1       1.218  -5.033   0.493  0.00  0.00    -0.347 OA
ATOM     11  C   UNL     1       1.260  -2.841  -0.527  0.00  0.00    +0.144 C 
ATOM     12  C   UNL     1      -0.182  -3.032  -1.049  0.00  0.00    +0.159 C 
ATOM     13  C   UNL     1      -1.225  -3.208   0.076  0.00  0.00    +0.136 C 
ATOM     14  C   UNL     1       1.478  -3.647   0.767  0.00  0.00    +0.270 C 
ATOM     15  C   UNL     1      -0.656  -3.908   1.328  0.00  0.00    +0.170 C 
ATOM     16  C   UNL     1      -0.077  -5.284   1.060  0.00  0.00    +0.196 C 
ENDROOT
BRANCH  13   7
ATOM      4  O   UNL     1      -3.494  -1.925  -1.111  0.00  0.00    -0.252 OA
ATOM      7  N   UNL     1      -1.783  -1.924   0.444  0.00  0.00    -0.291 N 
ATOM      9  N   UNL     1      -3.206  -0.129   0.373  0.00  0.00    -0.269 N 
ATOM     21  C   UNL     1      -2.897  -1.370  -0.191  0.00  0.00    +0.304 C 
ATOM     36  H   UNL     1      -1.296  -1.370   1.141  0.00  0.00    +0.151 HD
ATOM     38  H   UNL     1      -2.609   0.188   1.132  0.00  0.00    +0.156 HD
BRANCH   9  27
ATOM     27  C   UNL     1      -4.256   0.750   0.017  0.00  0.00    +0.036 A 
ATOM     29  C   UNL     1      -4.414   1.959   0.694  0.00  0.00    +0.042 A 
ATOM     30  C   UNL     1      -5.133   0.406  -1.012  0.00  0.00    +0.023 A 
ATOM     32  C   UNL     1      -5.450   2.825   0.343  0.00  0.00    +0.054 A 
ATOM     33  C   UNL     1      -6.168   1.272  -1.363  0.00  0.00    +0.003 A 
ATOM     34  C   UNL     1      -6.327   2.482  -0.686  0.00  0.00    +0.019 A 
BRANCH  32  35
ATOM     10  N   UNL     1      -5.743   5.070   1.598  0.00  0.00    -0.191 NA
ATOM     35  C   UNL     1      -5.612   4.064   1.035  0.00  0.00    +0.099 C 
ENDBRANCH  32  35
ENDBRANCH   9  27
ENDBRANCH  13   7
BRANCH  11   6
ATOM      6  N   UNL     1       1.521  -1.422  -0.277  0.00  0.00    -0.290 NA
ATOM      8  N   UNL     1       3.061   0.984  -0.268  0.00  0.00    -0.325 N 
ATOM     17  C   UNL     1       1.814  -0.723  -1.534  0.00  0.00    +0.104 C 
ATOM     18  C   UNL     1       2.642  -1.262   0.657  0.00  0.00    +0.104 C 
ATOM     19  C   UNL     1       2.034   0.773  -1.293  0.00  0.00    +0.120 C 
ATOM     20  C   UNL     1       2.888   0.216   0.971  0.00  0.00    +0.120 C 
BRANCH   8  22
ATOM     22  C   UNL     1       3.724   2.214  -0.193  0.00  0.00    +0.072 A 
ATOM     23  C   UNL     1       5.037   2.286   0.272  0.00  0.00    +0.141 A 
ATOM     24  C   UNL     1       3.059   3.375  -0.587  0.00  0.00    +0.027 A 
ATOM     25  C   UNL     1       5.685   3.518   0.343  0.00  0.00    +0.047 A 
ATOM     26  C   UNL     1       3.708   4.608  -0.517  0.00  0.00    +0.002 A 
ATOM     28  C   UNL     1       5.021   4.680  -0.052  0.00  0.00    +0.004 A 
BRANCH  23   5
ATOM      5  O   UNL     1       5.703   1.163   0.663  0.00  0.00    -0.493 OA
ATOM     31  C   UNL     1       6.449   0.472  -0.338  0.00  0.00    +0.277 C 
ENDBRANCH  23   5
ENDBRANCH   8  22
ENDBRANCH  11   6
BRANCH  12   3
ATOM      3  O   UNL     1      -0.195  -4.203  -1.876  0.00  0.00    -0.388 OA
ATOM     37  H   UNL     1      -1.088  -4.287  -2.253  0.00  0.00    +0.210 HD
ENDBRANCH  12   3
TORSDOF 7
