REMARK  Name = 26743532
REMARK  6 active torsions:
REMARK  status: ('A' for Active; 'I' for Inactive)
REMARK    1  A    between atoms: O_1  and  C_11
REMARK    2  A    between atoms: N_3  and  C_13
REMARK    3  A    between atoms: C_9  and  C_14
REMARK    4  A    between atoms: C_13  and  C_15
REMARK    5  A    between atoms: C_18  and  C_22
REMARK    6  A    between atoms: C_21  and  C_23
REMARK                            x       y       z     vdW  Elec       q    Type
REMARK                         _______ _______ _______ _____ _____    ______ ____
ROOT
ATOM      3  N   UNL     1       3.323   1.154   0.459  0.00  0.00    -0.285 NA
ATOM      9  C   UNL     1       3.447   0.209  -0.669  0.00  0.00    +0.149 C 
ATOM     10  C   UNL     1       4.736  -0.583  -0.379  0.00  0.00    +0.061 C 
ATOM     11  C   UNL     1       5.287   0.018   0.908  0.00  0.00    +0.130 C 
ATOM     12  C   UNL     1       4.680   1.408   0.938  0.00  0.00    +0.116 C 
ENDROOT
BRANCH   9  14
ATOM      2  O   UNL     1       1.973  -1.146  -2.070  0.00  0.00    -0.336 OA
ATOM      4  N   UNL     1       1.379  -1.082   0.089  0.00  0.00    -0.189 NA
ATOM      5  N   UNL     1       0.820  -1.934  -1.960  0.00  0.00    -0.054 NA
ATOM     14  C   UNL     1       2.233  -0.683  -0.819  0.00  0.00    +0.245 A 
ATOM     18  C   UNL     1       0.531  -1.847  -0.658  0.00  0.00    +0.222 A 
BRANCH  18  22
ATOM      6  N   UNL     1      -1.368  -3.242  -0.903  0.00  0.00    -0.249 NA
ATOM      8  N   UNL     1      -1.927  -3.028   1.837  0.00  0.00    -0.260 NA
ATOM     22  C   UNL     1      -0.597  -2.513  -0.072  0.00  0.00    +0.129 A 
ATOM     24  C   UNL     1      -0.871  -2.408   1.274  0.00  0.00    +0.142 A 
ATOM     27  C   UNL     1      -2.424  -3.862  -0.339  0.00  0.00    +0.131 A 
ATOM     30  C   UNL     1      -2.699  -3.756   1.006  0.00  0.00    +0.130 A 
ENDBRANCH  18  22
ENDBRANCH   9  14
BRANCH  11   1
ATOM      1  O   UNL     1       6.701   0.064   0.875  0.00  0.00    -0.390 OA
ATOM     31  H   UNL     1       7.020  -0.850   0.779  0.00  0.00    +0.210 HD
ENDBRANCH  11   1
BRANCH   3  13
ATOM     13  C   UNL     1       2.627   2.384   0.104  0.00  0.00    +0.120 C 
BRANCH  13  15
ATOM     15  C   UNL     1       1.134   2.197   0.080  0.00  0.00    -0.033 A 
ATOM     16  C   UNL     1       0.417   2.452  -1.089  0.00  0.00    +0.005 A 
ATOM     17  C   UNL     1       0.466   1.767   1.228  0.00  0.00    +0.005 A 
ATOM     19  C   UNL     1      -0.967   2.278  -1.111  0.00  0.00    +0.010 A 
ATOM     20  C   UNL     1      -0.917   1.593   1.206  0.00  0.00    +0.010 A 
ATOM     21  C   UNL     1      -1.634   1.849   0.036  0.00  0.00    +0.000 A 
BRANCH  21  23
ATOM      7  N   UNL     1      -3.492   0.415   0.290  0.00  0.00    -0.255 NA
ATOM     23  C   UNL     1      -3.070   1.669   0.014  0.00  0.00    +0.071 A 
ATOM     25  C   UNL     1      -3.917   2.727  -0.275  0.00  0.00    +0.028 A 
ATOM     26  C   UNL     1      -5.285   2.482  -0.279  0.00  0.00    +0.004 A 
ATOM     28  C   UNL     1      -4.829   0.215   0.277  0.00  0.00    +0.111 A 
ATOM     29  C   UNL     1      -5.758   1.205   0.001  0.00  0.00    +0.020 A 
ENDBRANCH  21  23
ENDBRANCH  13  15
ENDBRANCH   3  13
TORSDOF 6
