MODEL 1
REMARK VINA RESULT:      -7.6      0.000      0.000
REMARK  Name = 7143793
REMARK  3 active torsions:
REMARK  status: ('A' for Active; 'I' for Inactive)
REMARK    1  A    between atoms: S_1  and  N_6
REMARK    2  A    between atoms: S_1  and  C_19
REMARK    3  A    between atoms: C_17  and  C_20
REMARK                            x       y       z     vdW  Elec       q    Type
REMARK                         _______ _______ _______ _____ _____    ______ ____
ROOT
ATOM      5  O   UNL     1      13.956  11.254  22.557  0.00  0.00    -0.267 OA
ATOM      6  N   UNL     1      13.603   8.124  18.693  0.00  0.00    -0.176 NA
ATOM      7  N   UNL     1      13.557   9.126  21.689  0.00  0.00    -0.311 N 
ATOM      8  C   UNL     1      15.350   7.784  20.446  0.00  0.00    +0.025 C 
ATOM      9  C   UNL     1      13.108   6.829  20.758  0.00  0.00    +0.052 C 
ATOM     10  C   UNL     1      14.597   6.566  20.966  0.00  0.00    +0.017 C 
ATOM     11  C   UNL     1      15.066   7.996  18.949  0.00  0.00    +0.114 C 
ATOM     12  C   UNL     1      12.818   6.984  19.254  0.00  0.00    +0.119 C 
ATOM     13  C   UNL     1      14.966   9.004  21.293  0.00  0.00    +0.130 C 
ATOM     14  C   UNL     1      12.662   8.068  21.511  0.00  0.00    +0.026 A 
ATOM     15  C   UNL     1      11.410   8.158  21.986  0.00  0.00    +0.022 A 
ATOM     16  C   UNL     1      13.186  10.314  22.349  0.00  0.00    +0.260 A 
ATOM     17  C   UNL     1      11.765  10.399  22.839  0.00  0.00    +0.053 A 
ATOM     18  C   UNL     1      10.957   9.345  22.654  0.00  0.00    +0.016 A 
ENDROOT
BRANCH  17  20
ATOM      2  S   UNL     1      10.878  12.999  22.559  0.00  0.00    -0.096 S 
ATOM     20  C   UNL     1      11.257  11.614  23.501  0.00  0.00    +0.024 A 
ATOM     23  C   UNL     1      11.023  11.834  24.846  0.00  0.00    +0.016 A 
ATOM     27  C   UNL     1      10.528  13.146  25.100  0.00  0.00    +0.008 A 
ATOM     28  C   UNL     1      10.402  13.885  23.945  0.00  0.00    +0.046 A 
ENDBRANCH  17  20
BRANCH   6   1
ATOM      1  S   UNL     1      13.168   8.616  17.113  0.00  0.00    +0.061 S 
ATOM      3  O   UNL     1      11.735   8.489  16.956  0.00  0.00    -0.153 OA
ATOM      4  O   UNL     1      14.078   8.010  16.163  0.00  0.00    -0.153 OA
BRANCH   1  19
ATOM     19  C   UNL     1      13.551  10.337  17.209  0.00  0.00    +0.105 A 
ATOM     21  C   UNL     1      13.315  11.019  18.391  0.00  0.00    +0.028 A 
ATOM     22  C   UNL     1      14.081  10.976  16.101  0.00  0.00    +0.028 A 
ATOM     24  C   UNL     1      13.617  12.378  18.467  0.00  0.00    +0.002 A 
ATOM     25  C   UNL     1      14.383  12.336  16.176  0.00  0.00    +0.002 A 
ATOM     26  C   UNL     1      14.151  13.037  17.360  0.00  0.00    +0.000 A 
ENDBRANCH   1  19
ENDBRANCH   6   1
TORSDOF 3
ENDMDL
MODEL 2
REMARK VINA RESULT:      -7.3      2.073      2.777
REMARK  Name = 7143793
REMARK  3 active torsions:
REMARK  status: ('A' for Active; 'I' for Inactive)
REMARK    1  A    between atoms: S_1  and  N_6
REMARK    2  A    between atoms: S_1  and  C_19
REMARK    3  A    between atoms: C_17  and  C_20
REMARK                            x       y       z     vdW  Elec       q    Type
REMARK                         _______ _______ _______ _____ _____    ______ ____
ROOT
ATOM      5  O   UNL     1      15.202   9.982  22.668  0.00  0.00    -0.267 OA
ATOM      6  N   UNL     1      12.239   8.198  19.077  0.00  0.00    -0.176 NA
ATOM      7  N   UNL     1      13.117   9.243  21.926  0.00  0.00    -0.311 N 
ATOM      8  C   UNL     1      12.709   6.845  21.123  0.00  0.00    +0.025 C 
ATOM      9  C   UNL     1      10.860   8.462  21.129  0.00  0.00    +0.052 C 
ATOM     10  C   UNL     1      11.284   7.076  21.608  0.00  0.00    +0.017 C 
ATOM     11  C   UNL     1      12.773   6.903  19.588  0.00  0.00    +0.114 C 
ATOM     12  C   UNL     1      10.870   8.499  19.590  0.00  0.00    +0.119 C 
ATOM     13  C   UNL     1      13.633   7.874  21.787  0.00  0.00    +0.130 C 
ATOM     14  C   UNL     1      11.773   9.537  21.689  0.00  0.00    +0.026 A 
ATOM     15  C   UNL     1      11.298  10.768  21.935  0.00  0.00    +0.022 A 
ATOM     16  C   UNL     1      14.018  10.211  22.412  0.00  0.00    +0.260 A 
ATOM     17  C   UNL     1      13.465  11.592  22.644  0.00  0.00    +0.053 A 
ATOM     18  C   UNL     1      12.162  11.810  22.414  0.00  0.00    +0.016 A 
ENDROOT
BRANCH  17  20
ATOM      2  S   UNL     1      14.566  12.938  24.788  0.00  0.00    -0.096 S 
ATOM     20  C   UNL     1      14.329  12.693  23.106  0.00  0.00    +0.024 A 
ATOM     23  C   UNL     1      15.023  13.623  22.354  0.00  0.00    +0.016 A 
ATOM     27  C   UNL     1      15.754  14.538  23.166  0.00  0.00    +0.008 A 
ATOM     28  C   UNL     1      15.594  14.279  24.510  0.00  0.00    +0.046 A 
ENDBRANCH  17  20
BRANCH   6   1
ATOM      1  S   UNL     1      12.488   8.495  17.411  0.00  0.00    +0.061 S 
ATOM      3  O   UNL     1      11.216   8.801  16.789  0.00  0.00    -0.153 OA
ATOM      4  O   UNL     1      13.352   7.467  16.871  0.00  0.00    -0.153 OA
BRANCH   1  19
ATOM     19  C   UNL     1      13.418   9.993  17.499  0.00  0.00    +0.105 A 
ATOM     21  C   UNL     1      14.192  10.376  16.417  0.00  0.00    +0.028 A 
ATOM     22  C   UNL     1      13.356  10.763  18.650  0.00  0.00    +0.028 A 
ATOM     24  C   UNL     1      14.927  11.560  16.488  0.00  0.00    +0.002 A 
ATOM     25  C   UNL     1      14.091  11.946  18.721  0.00  0.00    +0.002 A 
ATOM     26  C   UNL     1      14.877  12.344  17.639  0.00  0.00    +0.000 A 
ENDBRANCH   1  19
ENDBRANCH   6   1
TORSDOF 3
ENDMDL
MODEL 3
REMARK VINA RESULT:      -7.0      2.445      4.082
REMARK  Name = 7143793
REMARK  3 active torsions:
REMARK  status: ('A' for Active; 'I' for Inactive)
REMARK    1  A    between atoms: S_1  and  N_6
REMARK    2  A    between atoms: S_1  and  C_19
REMARK    3  A    between atoms: C_17  and  C_20
REMARK                            x       y       z     vdW  Elec       q    Type
REMARK                         _______ _______ _______ _____ _____    ______ ____
ROOT
ATOM      5  O   UNL     1      10.543   9.687  22.358  0.00  0.00    -0.267 OA
ATOM      6  N   UNL     1      14.437   7.955  19.770  0.00  0.00    -0.176 NA
ATOM      7  N   UNL     1      11.883   9.687  20.448  0.00  0.00    -0.311 N 
ATOM      8  C   UNL     1      12.109   7.643  18.921  0.00  0.00    +0.025 C 
ATOM      9  C   UNL     1      13.333   9.704  18.389  0.00  0.00    +0.052 C 
ATOM     10  C   UNL     1      12.367   8.667  17.825  0.00  0.00    +0.017 C 
ATOM     11  C   UNL     1      13.420   6.955  19.337  0.00  0.00    +0.114 C 
ATOM     12  C   UNL     1      14.666   9.023  18.752  0.00  0.00    +0.119 C 
ATOM     13  C   UNL     1      11.414   8.339  20.098  0.00  0.00    +0.130 C 
ATOM     14  C   UNL     1      12.745  10.393  19.607  0.00  0.00    +0.026 A 
ATOM     15  C   UNL     1      13.067  11.666  19.887  0.00  0.00    +0.022 A 
ATOM     16  C   UNL     1      11.335  10.264  21.611  0.00  0.00    +0.260 A 
ATOM     17  C   UNL     1      11.743  11.681  21.918  0.00  0.00    +0.053 A 
ATOM     18  C   UNL     1      12.561  12.313  21.064  0.00  0.00    +0.016 A 
ENDROOT
BRANCH  17  20
ATOM      2  S   UNL     1      11.827  11.851  24.672  0.00  0.00    -0.096 S 
ATOM     20  C   UNL     1      11.267  12.366  23.133  0.00  0.00    +0.024 A 
ATOM     23  C   UNL     1      10.385  13.425  23.241  0.00  0.00    +0.016 A 
ATOM     27  C   UNL     1      10.171  13.814  24.595  0.00  0.00    +0.008 A 
ATOM     28  C   UNL     1      10.894  13.040  25.476  0.00  0.00    +0.046 A 
ENDBRANCH  17  20
BRANCH   6   1
ATOM      1  S   UNL     1      15.846   7.312  20.497  0.00  0.00    +0.061 S 
ATOM      3  O   UNL     1      16.754   6.869  19.461  0.00  0.00    -0.153 OA
ATOM      4  O   UNL     1      15.458   6.427  21.576  0.00  0.00    -0.153 OA
BRANCH   1  19
ATOM     19  C   UNL     1      16.520   8.778  21.214  0.00  0.00    +0.105 A 
ATOM     21  C   UNL     1      17.892   8.968  21.206  0.00  0.00    +0.028 A 
ATOM     22  C   UNL     1      15.665   9.715  21.772  0.00  0.00    +0.028 A 
ATOM     24  C   UNL     1      18.424  10.126  21.773  0.00  0.00    +0.002 A 
ATOM     25  C   UNL     1      16.198  10.873  22.338  0.00  0.00    +0.002 A 
ATOM     26  C   UNL     1      17.578  11.078  22.338  0.00  0.00    +0.000 A 
ENDBRANCH   1  19
ENDBRANCH   6   1
TORSDOF 3
ENDMDL
MODEL 4
REMARK VINA RESULT:      -7.0      1.902      4.200
REMARK  Name = 7143793
REMARK  3 active torsions:
REMARK  status: ('A' for Active; 'I' for Inactive)
REMARK    1  A    between atoms: S_1  and  N_6
REMARK    2  A    between atoms: S_1  and  C_19
REMARK    3  A    between atoms: C_17  and  C_20
REMARK                            x       y       z     vdW  Elec       q    Type
REMARK                         _______ _______ _______ _____ _____    ______ ____
ROOT
ATOM      5  O   UNL     1      11.596  13.137  21.078  0.00  0.00    -0.267 OA
ATOM      6  N   UNL     1      13.931   9.362  18.808  0.00  0.00    -0.176 NA
ATOM      7  N   UNL     1      13.553  12.077  20.378  0.00  0.00    -0.311 N 
ATOM      8  C   UNL     1      14.102  11.685  17.907  0.00  0.00    +0.025 C 
ATOM      9  C   UNL     1      15.672  10.932  19.641  0.00  0.00    +0.052 C 
ATOM     10  C   UNL     1      15.553  11.760  18.364  0.00  0.00    +0.017 C 
ATOM     11  C   UNL     1      13.702  10.229  17.618  0.00  0.00    +0.114 C 
ATOM     12  C   UNL     1      15.325   9.463  19.335  0.00  0.00    +0.119 C 
ATOM     13  C   UNL     1      13.212  12.336  18.973  0.00  0.00    +0.130 C 
ATOM     14  C   UNL     1      14.762  11.472  20.729  0.00  0.00    +0.026 A 
ATOM     15  C   UNL     1      15.106  11.352  22.020  0.00  0.00    +0.022 A 
ATOM     16  C   UNL     1      12.655  12.565  21.348  0.00  0.00    +0.260 A 
ATOM     17  C   UNL     1      13.051  12.383  22.788  0.00  0.00    +0.053 A 
ATOM     18  C   UNL     1      14.232  11.810  23.063  0.00  0.00    +0.016 A 
ENDROOT
BRANCH  17  20
ATOM      2  S   UNL     1      12.261  14.425  24.470  0.00  0.00    -0.096 S 
ATOM     20  C   UNL     1      12.165  12.814  23.885  0.00  0.00    +0.024 A 
ATOM     23  C   UNL     1      11.208  12.082  24.563  0.00  0.00    +0.016 A 
ATOM     27  C   UNL     1      10.551  12.851  25.566  0.00  0.00    +0.008 A 
ATOM     28  C   UNL     1      11.026  14.142  25.624  0.00  0.00    +0.046 A 
ENDBRANCH  17  20
BRANCH   6   1
ATOM      1  S   UNL     1      13.292   7.778  18.706  0.00  0.00    +0.061 S 
ATOM      3  O   UNL     1      14.345   6.824  18.981  0.00  0.00    -0.153 OA
ATOM      4  O   UNL     1      12.484   7.672  17.509  0.00  0.00    -0.153 OA
BRANCH   1  19
ATOM     19  C   UNL     1      12.203   7.794  20.095  0.00  0.00    +0.105 A 
ATOM     21  C   UNL     1      11.748   9.007  20.587  0.00  0.00    +0.028 A 
ATOM     22  C   UNL     1      11.819   6.593  20.670  0.00  0.00    +0.028 A 
ATOM     24  C   UNL     1      10.888   9.019  21.684  0.00  0.00    +0.002 A 
ATOM     25  C   UNL     1      10.959   6.606  21.768  0.00  0.00    +0.002 A 
ATOM     26  C   UNL     1      10.493   7.820  22.275  0.00  0.00    +0.000 A 
ENDBRANCH   1  19
ENDBRANCH   6   1
TORSDOF 3
ENDMDL
MODEL 5
REMARK VINA RESULT:      -6.7     24.951     26.546
REMARK  Name = 7143793
REMARK  3 active torsions:
REMARK  status: ('A' for Active; 'I' for Inactive)
REMARK    1  A    between atoms: S_1  and  N_6
REMARK    2  A    between atoms: S_1  and  C_19
REMARK    3  A    between atoms: C_17  and  C_20
REMARK                            x       y       z     vdW  Elec       q    Type
REMARK                         _______ _______ _______ _____ _____    ______ ____
ROOT
ATOM      5  O   UNL     1     -14.939   9.304  19.803  0.00  0.00    -0.267 OA
ATOM      6  N   UNL     1     -11.378   9.505  16.320  0.00  0.00    -0.176 NA
ATOM      7  N   UNL     1     -12.692   9.449  19.192  0.00  0.00    -0.311 N 
ATOM      8  C   UNL     1     -11.746  11.428  17.869  0.00  0.00    +0.025 C 
ATOM      9  C   UNL     1     -10.263   9.589  18.541  0.00  0.00    +0.052 C 
ATOM     10  C   UNL     1     -10.444  11.104  18.589  0.00  0.00    +0.017 C 
ATOM     11  C   UNL     1     -11.686  10.960  16.406  0.00  0.00    +0.114 C 
ATOM     12  C   UNL     1     -10.145   9.131  17.076  0.00  0.00    +0.119 C 
ATOM     13  C   UNL     1     -12.911  10.792  18.640  0.00  0.00    +0.130 C 
ATOM     14  C   UNL     1     -11.417   8.879  19.225  0.00  0.00    +0.026 A 
ATOM     15  C   UNL     1     -11.220   7.703  19.839  0.00  0.00    +0.022 A 
ATOM     16  C   UNL     1     -13.806   8.818  19.780  0.00  0.00    +0.260 A 
ATOM     17  C   UNL     1     -13.561   7.482  20.429  0.00  0.00    +0.053 A 
ATOM     18  C   UNL     1     -12.312   6.994  20.444  0.00  0.00    +0.016 A 
ENDROOT
BRANCH  17  20
ATOM      2  S   UNL     1     -14.758   6.560  22.740  0.00  0.00    -0.096 S 
ATOM     20  C   UNL     1     -14.664   6.712  21.033  0.00  0.00    +0.024 A 
ATOM     23  C   UNL     1     -15.701   6.048  20.405  0.00  0.00    +0.016 A 
ATOM     27  C   UNL     1     -16.577   5.414  21.334  0.00  0.00    +0.008 A 
ATOM     28  C   UNL     1     -16.180   5.612  22.638  0.00  0.00    +0.046 A 
ENDBRANCH  17  20
BRANCH   6   1
ATOM      1  S   UNL     1     -11.533   8.805  14.766  0.00  0.00    +0.061 S 
ATOM      3  O   UNL     1     -10.602   7.703  14.648  0.00  0.00    -0.153 OA
ATOM      4  O   UNL     1     -11.569   9.860  13.775  0.00  0.00    -0.153 OA
BRANCH   1  19
ATOM     19  C   UNL     1     -13.158   8.126  14.894  0.00  0.00    +0.105 A 
ATOM     21  C   UNL     1     -13.849   8.240  16.089  0.00  0.00    +0.028 A 
ATOM     22  C   UNL     1     -13.716   7.490  13.797  0.00  0.00    +0.028 A 
ATOM     24  C   UNL     1     -15.132   7.703  16.190  0.00  0.00    +0.002 A 
ATOM     25  C   UNL     1     -14.999   6.953  13.898  0.00  0.00    +0.002 A 
ATOM     26  C   UNL     1     -15.707   7.060  15.095  0.00  0.00    +0.000 A 
ENDBRANCH   1  19
ENDBRANCH   6   1
TORSDOF 3
ENDMDL
MODEL 6
REMARK VINA RESULT:      -6.5     27.211     29.224
REMARK  Name = 7143793
REMARK  3 active torsions:
REMARK  status: ('A' for Active; 'I' for Inactive)
REMARK    1  A    between atoms: S_1  and  N_6
REMARK    2  A    between atoms: S_1  and  C_19
REMARK    3  A    between atoms: C_17  and  C_20
REMARK                            x       y       z     vdW  Elec       q    Type
REMARK                         _______ _______ _______ _____ _____    ______ ____
ROOT
ATOM      5  O   UNL     1      -6.713 -11.518  14.998  0.00  0.00    -0.267 OA
ATOM      6  N   UNL     1      -2.399 -13.251  13.199  0.00  0.00    -0.176 NA
ATOM      7  N   UNL     1      -4.442 -11.248  14.538  0.00  0.00    -0.311 N 
ATOM      8  C   UNL     1      -3.505 -11.271  12.154  0.00  0.00    +0.025 C 
ATOM      9  C   UNL     1      -1.987 -10.954  14.058  0.00  0.00    +0.052 C 
ATOM     10  C   UNL     1      -2.424 -10.361  12.722  0.00  0.00    +0.017 C 
ATOM     11  C   UNL     1      -2.957 -12.691  11.935  0.00  0.00    +0.114 C 
ATOM     12  C   UNL     1      -1.386 -12.353  13.829  0.00  0.00    +0.119 C 
ATOM     13  C   UNL     1      -4.717 -11.249  13.094  0.00  0.00    +0.130 C 
ATOM     14  C   UNL     1      -3.152 -11.033  15.028  0.00  0.00    +0.026 A 
ATOM     15  C   UNL     1      -2.943 -10.918  16.348  0.00  0.00    +0.022 A 
ATOM     16  C   UNL     1      -5.555 -11.364  15.393  0.00  0.00    +0.260 A 
ATOM     17  C   UNL     1      -5.285 -11.268  16.871  0.00  0.00    +0.053 A 
ATOM     18  C   UNL     1      -4.028 -11.045  17.281  0.00  0.00    +0.016 A 
ENDROOT
BRANCH  17  20
ATOM      2  S   UNL     1      -7.434 -10.112  18.161  0.00  0.00    -0.096 S 
ATOM     20  C   UNL     1      -6.368 -11.423  17.857  0.00  0.00    +0.024 A 
ATOM     23  C   UNL     1      -6.686 -12.525  18.630  0.00  0.00    +0.016 A 
ATOM     27  C   UNL     1      -7.810 -12.289  19.472  0.00  0.00    +0.008 A 
ATOM     28  C   UNL     1      -8.314 -11.017  19.318  0.00  0.00    +0.046 A 
ENDBRANCH  17  20
BRANCH   6   1
ATOM      1  S   UNL     1      -1.990 -14.911  13.156  0.00  0.00    +0.061 S 
ATOM      3  O   UNL     1      -0.567 -15.055  13.381  0.00  0.00    -0.153 OA
ATOM      4  O   UNL     1      -2.628 -15.525  12.010  0.00  0.00    -0.153 OA
BRANCH   1  19
ATOM     19  C   UNL     1      -2.825 -15.473  14.607  0.00  0.00    +0.105 A 
ATOM     21  C   UNL     1      -3.908 -14.755  15.087  0.00  0.00    +0.028 A 
ATOM     22  C   UNL     1      -2.383 -16.623  15.241  0.00  0.00    +0.028 A 
ATOM     24  C   UNL     1      -4.567 -15.198  16.233  0.00  0.00    +0.002 A 
ATOM     25  C   UNL     1      -3.042 -17.066  16.388  0.00  0.00    +0.002 A 
ATOM     26  C   UNL     1      -4.135 -16.353  16.883  0.00  0.00    +0.000 A 
ENDBRANCH   1  19
ENDBRANCH   6   1
TORSDOF 3
ENDMDL
MODEL 7
REMARK VINA RESULT:      -6.4     25.265     27.437
REMARK  Name = 7143793
REMARK  3 active torsions:
REMARK  status: ('A' for Active; 'I' for Inactive)
REMARK    1  A    between atoms: S_1  and  N_6
REMARK    2  A    between atoms: S_1  and  C_19
REMARK    3  A    between atoms: C_17  and  C_20
REMARK                            x       y       z     vdW  Elec       q    Type
REMARK                         _______ _______ _______ _____ _____    ______ ____
ROOT
ATOM      5  O   UNL     1     -14.138   8.560  17.879  0.00  0.00    -0.267 OA
ATOM      6  N   UNL     1     -15.798   8.038  22.550  0.00  0.00    -0.176 NA
ATOM      7  N   UNL     1     -14.289   7.343  19.863  0.00  0.00    -0.311 N 
ATOM      8  C   UNL     1     -16.512   6.445  20.765  0.00  0.00    +0.025 C 
ATOM      9  C   UNL     1     -14.434   6.030  22.007  0.00  0.00    +0.052 C 
ATOM     10  C   UNL     1     -15.654   5.353  21.390  0.00  0.00    +0.017 C 
ATOM     11  C   UNL     1     -16.966   7.453  21.833  0.00  0.00    +0.114 C 
ATOM     12  C   UNL     1     -14.888   6.997  23.117  0.00  0.00    +0.119 C 
ATOM     13  C   UNL     1     -15.721   7.110  19.631  0.00  0.00    +0.130 C 
ATOM     14  C   UNL     1     -13.631   6.774  20.956  0.00  0.00    +0.026 A 
ATOM     15  C   UNL     1     -12.302   6.903  21.084  0.00  0.00    +0.022 A 
ATOM     16  C   UNL     1     -13.599   8.074  18.875  0.00  0.00    +0.260 A 
ATOM     17  C   UNL     1     -12.115   8.232  19.066  0.00  0.00    +0.053 A 
ATOM     18  C   UNL     1     -11.537   7.649  20.126  0.00  0.00    +0.016 A 
ENDROOT
BRANCH  17  20
ATOM      2  S   UNL     1     -10.723  10.567  18.578  0.00  0.00    -0.096 S 
ATOM     20  C   UNL     1     -11.303   9.017  18.119  0.00  0.00    +0.024 A 
ATOM     23  C   UNL     1     -10.907   8.687  16.836  0.00  0.00    +0.016 A 
ATOM     27  C   UNL     1     -10.124   9.712  16.231  0.00  0.00    +0.008 A 
ATOM     28  C   UNL     1      -9.947  10.791  17.068  0.00  0.00    +0.046 A 
ENDBRANCH  17  20
BRANCH   6   1
ATOM      1  S   UNL     1     -16.147   9.356  23.583  0.00  0.00    +0.061 S 
ATOM      3  O   UNL     1     -16.537   8.850  24.882  0.00  0.00    -0.153 OA
ATOM      4  O   UNL     1     -16.979  10.304  22.873  0.00  0.00    -0.153 OA
BRANCH   1  19
ATOM     19  C   UNL     1     -14.536  10.061  23.741  0.00  0.00    +0.105 A 
ATOM     21  C   UNL     1     -14.033  10.329  25.003  0.00  0.00    +0.028 A 
ATOM     22  C   UNL     1     -13.800  10.332  22.598  0.00  0.00    +0.028 A 
ATOM     24  C   UNL     1     -12.760  10.886  25.127  0.00  0.00    +0.002 A 
ATOM     25  C   UNL     1     -12.527  10.889  22.723  0.00  0.00    +0.002 A 
ATOM     26  C   UNL     1     -12.007  11.166  23.988  0.00  0.00    +0.000 A 
ENDBRANCH   1  19
ENDBRANCH   6   1
TORSDOF 3
ENDMDL
MODEL 8
REMARK VINA RESULT:      -6.4     27.158     28.982
REMARK  Name = 7143793
REMARK  3 active torsions:
REMARK  status: ('A' for Active; 'I' for Inactive)
REMARK    1  A    between atoms: S_1  and  N_6
REMARK    2  A    between atoms: S_1  and  C_19
REMARK    3  A    between atoms: C_17  and  C_20
REMARK                            x       y       z     vdW  Elec       q    Type
REMARK                         _______ _______ _______ _____ _____    ______ ____
ROOT
ATOM      5  O   UNL     1      -7.820  -8.900  17.215  0.00  0.00    -0.267 OA
ATOM      6  N   UNL     1      -3.973 -11.676  15.686  0.00  0.00    -0.176 NA
ATOM      7  N   UNL     1      -6.718 -10.951  17.070  0.00  0.00    -0.311 N 
ATOM      8  C   UNL     1      -4.419 -11.359  18.122  0.00  0.00    +0.025 C 
ATOM      9  C   UNL     1      -5.543 -13.172  16.904  0.00  0.00    +0.052 C 
ATOM     10  C   UNL     1      -4.882 -12.806  18.230  0.00  0.00    +0.017 C 
ATOM     11  C   UNL     1      -3.403 -11.201  16.978  0.00  0.00    +0.114 C 
ATOM     12  C   UNL     1      -4.508 -13.068  15.768  0.00  0.00    +0.119 C 
ATOM     13  C   UNL     1      -5.646 -10.456  17.944  0.00  0.00    +0.130 C 
ATOM     14  C   UNL     1      -6.731 -12.272  16.618  0.00  0.00    +0.026 A 
ATOM     15  C   UNL     1      -7.778 -12.735  15.918  0.00  0.00    +0.022 A 
ATOM     16  C   UNL     1      -7.778 -10.061  16.804  0.00  0.00    +0.260 A 
ATOM     17  C   UNL     1      -8.922 -10.598  15.986  0.00  0.00    +0.053 A 
ATOM     18  C   UNL     1      -8.885 -11.881  15.595  0.00  0.00    +0.016 A 
ENDROOT
BRANCH  17  20
ATOM      2  S   UNL     1     -11.405  -9.603  16.666  0.00  0.00    -0.096 S 
ATOM     20  C   UNL     1     -10.060  -9.742  15.609  0.00  0.00    +0.024 A 
ATOM     23  C   UNL     1     -10.231  -8.983  14.466  0.00  0.00    +0.016 A 
ATOM     27  C   UNL     1     -11.474  -8.284  14.463  0.00  0.00    +0.008 A 
ATOM     28  C   UNL     1     -12.210  -8.532  15.599  0.00  0.00    +0.046 A 
ENDBRANCH  17  20
BRANCH   6   1
ATOM      1  S   UNL     1      -3.044 -11.322  14.293  0.00  0.00    +0.061 S 
ATOM      3  O   UNL     1      -2.701 -12.560  13.625  0.00  0.00    -0.153 OA
ATOM      4  O   UNL     1      -2.024 -10.355  14.639  0.00  0.00    -0.153 OA
BRANCH   1  19
ATOM     19  C   UNL     1      -4.261 -10.500  13.312  0.00  0.00    +0.105 A 
ATOM     21  C   UNL     1      -5.504 -10.231  13.858  0.00  0.00    +0.028 A 
ATOM     22  C   UNL     1      -3.950 -10.135  12.012  0.00  0.00    +0.028 A 
ATOM     24  C   UNL     1      -6.465  -9.582  13.083  0.00  0.00    +0.002 A 
ATOM     25  C   UNL     1      -4.911  -9.486  11.237  0.00  0.00    +0.002 A 
ATOM     26  C   UNL     1      -6.169  -9.209  11.773  0.00  0.00    +0.000 A 
ENDBRANCH   1  19
ENDBRANCH   6   1
TORSDOF 3
ENDMDL
MODEL 9
REMARK VINA RESULT:      -6.3     27.061     29.216
REMARK  Name = 7143793
REMARK  3 active torsions:
REMARK  status: ('A' for Active; 'I' for Inactive)
REMARK    1  A    between atoms: S_1  and  N_6
REMARK    2  A    between atoms: S_1  and  C_19
REMARK    3  A    between atoms: C_17  and  C_20
REMARK                            x       y       z     vdW  Elec       q    Type
REMARK                         _______ _______ _______ _____ _____    ______ ____
ROOT
ATOM      5  O   UNL     1      -5.175 -12.725  10.063  0.00  0.00    -0.267 OA
ATOM      6  N   UNL     1      -3.739 -11.773  14.741  0.00  0.00    -0.176 NA
ATOM      7  N   UNL     1      -3.526 -12.160  11.613  0.00  0.00    -0.311 N 
ATOM      8  C   UNL     1      -2.811 -13.733  13.503  0.00  0.00    +0.025 C 
ATOM      9  C   UNL     1      -1.743 -11.533  13.277  0.00  0.00    +0.052 C 
ATOM     10  C   UNL     1      -1.465 -13.030  13.389  0.00  0.00    +0.017 C 
ATOM     11  C   UNL     1      -3.567 -13.254  14.753  0.00  0.00    +0.114 C 
ATOM     12  C   UNL     1      -2.448 -11.044  14.555  0.00  0.00    +0.119 C 
ATOM     13  C   UNL     1      -3.606 -13.499  12.212  0.00  0.00    +0.130 C 
ATOM     14  C   UNL     1      -2.589 -11.224  12.056  0.00  0.00    +0.026 A 
ATOM     15  C   UNL     1      -2.454 -10.051  11.418  0.00  0.00    +0.022 A 
ATOM     16  C   UNL     1      -4.362 -11.912  10.506  0.00  0.00    +0.260 A 
ATOM     17  C   UNL     1      -4.213 -10.573   9.834  0.00  0.00    +0.053 A 
ATOM     18  C   UNL     1      -3.285  -9.722  10.294  0.00  0.00    +0.016 A 
ENDROOT
BRANCH  17  20
ATOM      2  S   UNL     1      -6.415  -9.157   8.959  0.00  0.00    -0.096 S 
ATOM     20  C   UNL     1      -5.069 -10.190   8.697  0.00  0.00    +0.024 A 
ATOM     23  C   UNL     1      -4.958 -10.553   7.368  0.00  0.00    +0.016 A 
ATOM     27  C   UNL     1      -5.983  -9.977   6.563  0.00  0.00    +0.008 A 
ATOM     28  C   UNL     1      -6.844  -9.195   7.302  0.00  0.00    +0.046 A 
ENDBRANCH  17  20
BRANCH   6   1
ATOM      1  S   UNL     1      -4.781 -11.138  15.940  0.00  0.00    +0.061 S 
ATOM      3  O   UNL     1      -4.139 -10.006  16.575  0.00  0.00    -0.153 OA
ATOM      4  O   UNL     1      -5.314 -12.230  16.728  0.00  0.00    -0.153 OA
BRANCH   1  19
ATOM     19  C   UNL     1      -6.083 -10.519  14.922  0.00  0.00    +0.105 A 
ATOM     21  C   UNL     1      -5.809 -10.164  13.611  0.00  0.00    +0.028 A 
ATOM     22  C   UNL     1      -7.358 -10.398  15.450  0.00  0.00    +0.028 A 
ATOM     24  C   UNL     1      -6.838  -9.674  12.807  0.00  0.00    +0.002 A 
ATOM     25  C   UNL     1      -8.387  -9.908  14.646  0.00  0.00    +0.002 A 
ATOM     26  C   UNL     1      -8.126  -9.546  13.324  0.00  0.00    +0.000 A 
ENDBRANCH   1  19
ENDBRANCH   6   1
TORSDOF 3
ENDMDL
MODEL 10
REMARK VINA RESULT:      -6.1     23.209     25.752
REMARK  Name = 7143793
REMARK  3 active torsions:
REMARK  status: ('A' for Active; 'I' for Inactive)
REMARK    1  A    between atoms: S_1  and  N_6
REMARK    2  A    between atoms: S_1  and  C_19
REMARK    3  A    between atoms: C_17  and  C_20
REMARK                            x       y       z     vdW  Elec       q    Type
REMARK                         _______ _______ _______ _____ _____    ______ ____
ROOT
ATOM      5  O   UNL     1       9.243 -11.985  31.752  0.00  0.00    -0.267 OA
ATOM      6  N   UNL     1       6.899  -9.070  35.047  0.00  0.00    -0.176 NA
ATOM      7  N   UNL     1       8.446  -9.897  32.420  0.00  0.00    -0.311 N 
ATOM      8  C   UNL     1       9.308  -8.695  34.510  0.00  0.00    +0.025 C 
ATOM      9  C   UNL     1       7.574  -7.643  33.126  0.00  0.00    +0.052 C 
ATOM     10  C   UNL     1       8.947  -7.423  33.755  0.00  0.00    +0.017 C 
ATOM     11  C   UNL     1       8.275  -8.982  35.612  0.00  0.00    +0.114 C 
ATOM     12  C   UNL     1       6.530  -7.872  34.234  0.00  0.00    +0.119 C 
ATOM     13  C   UNL     1       9.431  -9.850  33.508  0.00  0.00    +0.130 C 
ATOM     14  C   UNL     1       7.594  -8.820  32.168  0.00  0.00    +0.026 A 
ATOM     15  C   UNL     1       6.784  -8.836  31.098  0.00  0.00    +0.022 A 
ATOM     16  C   UNL     1       8.481 -11.031  31.584  0.00  0.00    +0.260 A 
ATOM     17  C   UNL     1       7.535 -11.037  30.413  0.00  0.00    +0.053 A 
ATOM     18  C   UNL     1       6.753  -9.966  30.213  0.00  0.00    +0.016 A 
ENDROOT
BRANCH  17  20
ATOM      2  S   UNL     1       6.371 -13.477  29.854  0.00  0.00    -0.096 S 
ATOM     20  C   UNL     1       7.455 -12.192  29.502  0.00  0.00    +0.024 A 
ATOM     23  C   UNL     1       8.158 -12.426  28.334  0.00  0.00    +0.016 A 
ATOM     27  C   UNL     1       7.801 -13.665  27.727  0.00  0.00    +0.008 A 
ATOM     28  C   UNL     1       6.841 -14.338  28.450  0.00  0.00    +0.046 A 
ENDBRANCH  17  20
BRANCH   6   1
ATOM      1  S   UNL     1       5.692  -9.636  36.120  0.00  0.00    +0.061 S 
ATOM      3  O   UNL     1       4.705  -8.595  36.314  0.00  0.00    -0.153 OA
ATOM      4  O   UNL     1       6.329 -10.278  37.251  0.00  0.00    -0.153 OA
BRANCH   1  19
ATOM     19  C   UNL     1       4.958 -10.895  35.124  0.00  0.00    +0.105 A 
ATOM     21  C   UNL     1       5.707 -11.491  34.123  0.00  0.00    +0.028 A 
ATOM     22  C   UNL     1       3.645 -11.268  35.361  0.00  0.00    +0.028 A 
ATOM     24  C   UNL     1       5.127 -12.485  33.336  0.00  0.00    +0.002 A 
ATOM     25  C   UNL     1       3.065 -12.263  34.574  0.00  0.00    +0.002 A 
ATOM     26  C   UNL     1       3.806 -12.872  33.561  0.00  0.00    +0.000 A 
ENDBRANCH   1  19
ENDBRANCH   6   1
TORSDOF 3
ENDMDL
