REMARK  Name = 75536038
REMARK  5 active torsions:
REMARK  status: ('A' for Active; 'I' for Inactive)
REMARK    1  A    between atoms: O_3  and  C_23
REMARK    2  A    between atoms: O_3  and  C_24
REMARK    3  A    between atoms: N_6  and  C_16
REMARK    4  A    between atoms: C_22  and  C_23
REMARK    5  A    between atoms: C_24  and  C_25
REMARK                            x       y       z     vdW  Elec       q    Type
REMARK                         _______ _______ _______ _____ _____    ______ ____
ROOT
ATOM      1  O   UNL     1       0.686  -2.320  -0.091  0.00  0.00    -0.273 OA
ATOM      2  O   UNL     1       1.093   2.275  -0.653  0.00  0.00    -0.252 OA
ATOM      5  N   UNL     1       2.599   0.511  -0.658  0.00  0.00    -0.267 N 
ATOM      6  N   UNL     1       0.435   0.022  -0.329  0.00  0.00    -0.193 N 
ATOM      7  N   UNL     1       6.207   0.886   0.058  0.00  0.00    -0.347 N 
ATOM      8  N   UNL     1       5.976  -1.113   1.033  0.00  0.00    -0.240 NA
ATOM      9  C   UNL     1       2.583  -0.942  -0.597  0.00  0.00    +0.171 C 
ATOM     10  C   UNL     1       3.526  -1.491   0.489  0.00  0.00    +0.089 C 
ATOM     11  C   UNL     1       3.856   1.246  -0.869  0.00  0.00    +0.165 C 
ATOM     12  C   UNL     1       4.797  -0.724   0.462  0.00  0.00    +0.066 A 
ATOM     13  C   UNL     1       4.913   0.509  -0.143  0.00  0.00    +0.056 A 
ATOM     14  C   UNL     1       1.114  -1.194  -0.310  0.00  0.00    +0.248 C 
ATOM     15  C   UNL     1       1.327   1.078  -0.545  0.00  0.00    +0.317 C 
ATOM     17  C   UNL     1       6.806  -0.123   0.771  0.00  0.00    +0.197 A 
ATOM     26  H   UNL     1       6.647   1.741  -0.256  0.00  0.00    +0.167 HD
ENDROOT
BRANCH   6  16
ATOM     16  C   UNL     1      -0.976   0.170  -0.138  0.00  0.00    +0.045 A 
ATOM     18  C   UNL     1      -1.484   1.335   0.436  0.00  0.00    +0.025 A 
ATOM     19  C   UNL     1      -1.843  -0.852  -0.525  0.00  0.00    +0.025 A 
ATOM     20  C   UNL     1      -2.858   1.479   0.623  0.00  0.00    +0.017 A 
ATOM     21  C   UNL     1      -3.218  -0.708  -0.338  0.00  0.00    +0.017 A 
ATOM     22  C   UNL     1      -3.725   0.457   0.236  0.00  0.00    +0.059 A 
BRANCH  22  23
ATOM      4  O   UNL     1      -5.696   1.605   0.933  0.00  0.00    -0.245 OA
ATOM     23  C   UNL     1      -5.159   0.608   0.432  0.00  0.00    +0.339 C 
BRANCH  23   3
ATOM      3  O   UNL     1      -5.845  -0.492  -0.006  0.00  0.00    -0.461 OA
BRANCH   3  24
ATOM     24  C   UNL     1      -7.269  -0.463   0.133  0.00  0.00    +0.229 C 
ATOM     25  C   UNL     1      -7.843  -1.757  -0.404  0.00  0.00    +0.048 C 
ENDBRANCH   3  24
ENDBRANCH  23   3
ENDBRANCH  22  23
ENDBRANCH   6  16
TORSDOF 4
