REMARK  Name = 28963042
REMARK  13 active torsions:
REMARK  status: ('A' for Active; 'I' for Inactive)
REMARK    1  A    between atoms: O_1  and  C_11
REMARK    2  A    between atoms: O_4  and  C_26
REMARK    3  A    between atoms: O_4  and  C_30
REMARK    4  A    between atoms: N_5  and  C_15
REMARK    5  A    between atoms: N_6  and  C_25
REMARK    6  A    between atoms: C_8  and  C_18
REMARK    7  A    between atoms: C_10  and  C_20
REMARK    8  A    between atoms: C_14  and  C_19
REMARK    9  A    between atoms: C_19  and  C_21
REMARK   10  A    between atoms: C_19  and  C_22
REMARK   11  A    between atoms: C_23  and  C_24
REMARK   12  A    between atoms: C_24  and  C_26
REMARK   13  A    between atoms: C_25  and  C_27
REMARK                            x       y       z     vdW  Elec       q    Type
REMARK                         _______ _______ _______ _____ _____    ______ ____
ROOT
ATOM      8  C   UNL     1       0.456  -0.112   1.428  0.00  0.00    -0.027 C 
ATOM      9  C   UNL     1       0.833   0.662   0.121  0.00  0.00    +0.028 C 
ATOM     10  C   UNL     1       2.336   1.117   0.154  0.00  0.00    +0.012 C 
ATOM     11  C   UNL     1      -0.199   1.785  -0.187  0.00  0.00    +0.122 C 
ATOM     12  C   UNL     1      -0.992  -0.643   1.313  0.00  0.00    +0.007 C 
ATOM     13  C   UNL     1       1.394  -1.332   1.579  0.00  0.00    +0.009 C 
ATOM     14  C   UNL     1      -1.656   1.267  -0.197  0.00  0.00    +0.029 C 
ATOM     15  C   UNL     1       3.265  -0.108   0.382  0.00  0.00    +0.076 C 
ATOM     16  C   UNL     1      -2.010   0.458   1.052  0.00  0.00    +0.007 C 
ATOM     17  C   UNL     1       2.869  -0.955   1.591  0.00  0.00    +0.023 C 
ATOM     18  C   UNL     1       0.563   0.774   2.695  0.00  0.00    +0.011 C 
ATOM     20  C   UNL     1       2.783   1.861  -1.115  0.00  0.00    +0.010 C 
ENDROOT
BRANCH  15   5
ATOM      3  O   UNL     1       5.601  -1.604  -0.414  0.00  0.00    -0.276 OA
ATOM      5  N   UNL     1       4.649   0.289   0.535  0.00  0.00    -0.312 N 
ATOM     23  C   UNL     1       5.707  -0.503   0.119  0.00  0.00    +0.215 C 
ATOM     33  H   UNL     1       4.845   1.158   1.024  0.00  0.00    +0.149 HD
BRANCH  23  24
ATOM     24  C   UNL     1       7.044   0.164   0.401  0.00  0.00    +0.124 C 
BRANCH  24  26
ATOM     26  C   UNL     1       8.232  -0.677  -0.043  0.00  0.00    +0.168 C 
BRANCH  26   4
ATOM      4  O   UNL     1       8.171  -0.876  -1.449  0.00  0.00    -0.382 OA
ATOM     30  C   UNL     1       9.268  -1.651  -1.914  0.00  0.00    +0.194 C 
ENDBRANCH  26   4
ENDBRANCH  24  26
ENDBRANCH  23  24
ENDBRANCH  15   5
BRANCH  11   1
ATOM      1  O   UNL     1       0.052   2.321  -1.486  0.00  0.00    -0.391 OA
ATOM     34  H   UNL     1      -0.030   1.599  -2.133  0.00  0.00    +0.210 HD
ENDBRANCH  11   1
BRANCH  14  19
ATOM     19  C   UNL     1      -2.665   2.409  -0.371  0.00  0.00    +0.077 C 
ATOM     21  C   UNL     1      -2.519   3.416   0.764  0.00  0.00    +0.017 C 
BRANCH  19  22
ATOM      2  O   UNL     1      -4.963   2.173   0.356  0.00  0.00    -0.276 OA
ATOM      6  N   UNL     1      -4.246   0.939  -1.473  0.00  0.00    -0.311 N 
ATOM     22  C   UNL     1      -4.081   1.846  -0.436  0.00  0.00    +0.216 C 
ATOM     35  H   UNL     1      -3.482   0.761  -2.116  0.00  0.00    +0.149 HD
BRANCH   6  25
ATOM     25  C   UNL     1      -5.500   0.271  -1.735  0.00  0.00    +0.141 C 
BRANCH  25  27
ATOM      7  N   UNL     1      -6.557  -2.275   0.854  0.00  0.00    -0.263 NA
ATOM     27  C   UNL     1      -5.612  -1.027  -0.988  0.00  0.00    -0.012 A 
ATOM     28  C   UNL     1      -4.913  -2.155  -1.403  0.00  0.00    +0.008 A 
ATOM     29  C   UNL     1      -6.413  -1.138   0.137  0.00  0.00    +0.115 A 
ATOM     31  C   UNL     1      -5.035  -3.343  -0.691  0.00  0.00    +0.020 A 
ATOM     32  C   UNL     1      -5.862  -3.350   0.421  0.00  0.00    +0.111 A 
ENDBRANCH  25  27
ENDBRANCH   6  25
ENDBRANCH  19  22
ENDBRANCH  14  19
TORSDOF 9
