MODEL 1
REMARK VINA RESULT:      -7.1      0.000      0.000
REMARK  Name = 26743454
REMARK  7 active torsions:
REMARK  status: ('A' for Active; 'I' for Inactive)
REMARK    1  A    between atoms: S_1  and  C_19
REMARK    2  A    between atoms: S_1  and  C_21
REMARK    3  A    between atoms: O_3  and  C_13
REMARK    4  A    between atoms: N_7  and  C_15
REMARK    5  A    between atoms: C_11  and  C_16
REMARK    6  A    between atoms: C_15  and  C_17
REMARK    7  A    between atoms: C_18  and  C_19
REMARK                            x       y       z     vdW  Elec       q    Type
REMARK                         _______ _______ _______ _____ _____    ______ ____
ROOT
ATOM      4  O   UNL     1      -5.394 -11.734  17.012  0.00  0.00    -0.336 OA
ATOM      8  N   UNL     1      -5.569  -9.784  15.924  0.00  0.00    -0.193 NA
ATOM      9  N   UNL     1      -6.605 -11.165  17.425  0.00  0.00    -0.060 NA
ATOM     16  C   UNL     1      -4.848 -10.857  16.130  0.00  0.00    +0.245 A 
ATOM     18  C   UNL     1      -6.637 -10.018  16.741  0.00  0.00    +0.193 A 
ENDROOT
BRANCH  16  11
ATOM      7  N   UNL     1      -3.238 -10.545  14.257  0.00  0.00    -0.283 NA
ATOM     11  C   UNL     1      -3.516 -11.247  15.526  0.00  0.00    +0.149 C 
ATOM     12  C   UNL     1      -2.323 -10.899  16.437  0.00  0.00    +0.061 C 
ATOM     13  C   UNL     1      -1.409 -10.035  15.577  0.00  0.00    +0.130 C 
ATOM     14  C   UNL     1      -1.785 -10.423  14.160  0.00  0.00    +0.117 C 
BRANCH  13   3
ATOM      3  O   UNL     1      -0.051 -10.312  15.855  0.00  0.00    -0.390 OA
ATOM     30  H   UNL     1       0.053 -10.328  16.821  0.00  0.00    +0.210 HD
ENDBRANCH  13   3
BRANCH   7  15
ATOM     15  C   UNL     1      -3.811 -11.212  13.094  0.00  0.00    +0.140 C 
BRANCH  15  17
ATOM     10  N   UNL     1      -5.281  -9.552  12.094  0.00  0.00    -0.259 NA
ATOM     17  C   UNL     1      -4.123 -10.241  11.987  0.00  0.00    +0.055 A 
ATOM     20  C   UNL     1      -3.230 -10.100  10.937  0.00  0.00    +0.024 A 
ATOM     22  C   UNL     1      -3.547  -9.193   9.932  0.00  0.00    +0.003 A 
ATOM     23  C   UNL     1      -5.555  -8.680  11.098  0.00  0.00    +0.111 A 
ATOM     24  C   UNL     1      -4.729  -8.466  10.006  0.00  0.00    +0.020 A 
ENDBRANCH  15  17
ENDBRANCH   7  15
ENDBRANCH  16  11
BRANCH  18  19
ATOM     19  C   UNL     1      -7.752  -9.072  16.861  0.00  0.00    +0.251 C 
BRANCH  19   1
ATOM      1  S   UNL     1      -9.208  -9.823  16.185  0.00  0.00    +0.004 S 
ATOM      5  O   UNL     1      -9.853 -10.564  17.253  0.00  0.00    -0.169 OA
ATOM      6  O   UNL     1      -8.852 -10.481  14.942  0.00  0.00    -0.169 OA
BRANCH   1  21
ATOM      2  F   UNL     1     -12.651  -5.241  14.803  0.00  0.00    -0.205 F 
ATOM     21  C   UNL     1     -10.239  -8.450  15.770  0.00  0.00    +0.089 A 
ATOM     25  C   UNL     1     -10.341  -7.365  16.643  0.00  0.00    +0.030 A 
ATOM     26  C   UNL     1     -10.952  -8.449  14.571  0.00  0.00    +0.030 A 
ATOM     27  C   UNL     1     -11.155  -6.281  16.316  0.00  0.00    +0.040 A 
ATOM     28  C   UNL     1     -11.767  -7.366  14.244  0.00  0.00    +0.040 A 
ATOM     29  C   UNL     1     -11.869  -6.281  15.117  0.00  0.00    +0.124 A 
ENDBRANCH   1  21
ENDBRANCH  19   1
ENDBRANCH  18  19
TORSDOF 7
ENDMDL
MODEL 2
REMARK VINA RESULT:      -6.7      2.202      2.636
REMARK  Name = 26743454
REMARK  7 active torsions:
REMARK  status: ('A' for Active; 'I' for Inactive)
REMARK    1  A    between atoms: S_1  and  C_19
REMARK    2  A    between atoms: S_1  and  C_21
REMARK    3  A    between atoms: O_3  and  C_13
REMARK    4  A    between atoms: N_7  and  C_15
REMARK    5  A    between atoms: C_11  and  C_16
REMARK    6  A    between atoms: C_15  and  C_17
REMARK    7  A    between atoms: C_18  and  C_19
REMARK                            x       y       z     vdW  Elec       q    Type
REMARK                         _______ _______ _______ _____ _____    ______ ____
ROOT
ATOM      4  O   UNL     1      -5.236 -11.605  17.227  0.00  0.00    -0.336 OA
ATOM      8  N   UNL     1      -5.556  -9.796  15.945  0.00  0.00    -0.193 NA
ATOM      9  N   UNL     1      -6.441 -11.031  17.656  0.00  0.00    -0.060 NA
ATOM     16  C   UNL     1      -4.783 -10.816  16.219  0.00  0.00    +0.245 A 
ATOM     18  C   UNL     1      -6.560  -9.970  16.852  0.00  0.00    +0.193 A 
ENDROOT
BRANCH  16  11
ATOM      7  N   UNL     1      -3.230 -10.538  14.292  0.00  0.00    -0.283 NA
ATOM     11  C   UNL     1      -3.477 -11.230  15.573  0.00  0.00    +0.149 C 
ATOM     12  C   UNL     1      -2.250 -10.896  16.443  0.00  0.00    +0.061 C 
ATOM     13  C   UNL     1      -1.351 -10.050  15.550  0.00  0.00    +0.130 C 
ATOM     14  C   UNL     1      -1.779 -10.438  14.148  0.00  0.00    +0.117 C 
BRANCH  13   3
ATOM      3  O   UNL     1       0.011 -10.346  15.784  0.00  0.00    -0.390 OA
ATOM     30  H   UNL     1       0.467 -10.325  14.926  0.00  0.00    +0.210 HD
ENDBRANCH  13   3
BRANCH   7  15
ATOM     15  C   UNL     1      -3.851 -11.202  13.153  0.00  0.00    +0.140 C 
BRANCH  15  17
ATOM     10  N   UNL     1      -5.322  -9.542  12.152  0.00  0.00    -0.259 NA
ATOM     17  C   UNL     1      -4.166 -10.234  12.043  0.00  0.00    +0.055 A 
ATOM     20  C   UNL     1      -3.276 -10.099  10.989  0.00  0.00    +0.024 A 
ATOM     22  C   UNL     1      -3.596  -9.195   9.981  0.00  0.00    +0.003 A 
ATOM     23  C   UNL     1      -5.598  -8.674  11.153  0.00  0.00    +0.111 A 
ATOM     24  C   UNL     1      -4.777  -8.466  10.057  0.00  0.00    +0.020 A 
ENDBRANCH  15  17
ENDBRANCH   7  15
ENDBRANCH  16  11
BRANCH  18  19
ATOM     19  C   UNL     1      -7.701  -9.052  16.942  0.00  0.00    +0.251 C 
BRANCH  19   1
ATOM      1  S   UNL     1      -9.137  -9.869  16.300  0.00  0.00    +0.004 S 
ATOM      5  O   UNL     1      -8.756 -11.230  15.972  0.00  0.00    -0.169 OA
ATOM      6  O   UNL     1      -9.745  -9.013  15.299  0.00  0.00    -0.169 OA
BRANCH   1  21
ATOM      2  F   UNL     1     -12.824 -10.057  20.897  0.00  0.00    -0.205 F 
ATOM     21  C   UNL     1     -10.242  -9.926  17.677  0.00  0.00    +0.089 A 
ATOM     25  C   UNL     1     -11.565  -9.507  17.528  0.00  0.00    +0.030 A 
ATOM     26  C   UNL     1      -9.792 -10.389  18.914  0.00  0.00    +0.030 A 
ATOM     27  C   UNL     1     -12.437  -9.552  18.615  0.00  0.00    +0.040 A 
ATOM     28  C   UNL     1     -10.664 -10.434  20.001  0.00  0.00    +0.040 A 
ATOM     29  C   UNL     1     -11.987 -10.015  19.852  0.00  0.00    +0.124 A 
ENDBRANCH   1  21
ENDBRANCH  19   1
ENDBRANCH  18  19
TORSDOF 7
ENDMDL
MODEL 3
REMARK VINA RESULT:      -6.7      2.423      2.951
REMARK  Name = 26743454
REMARK  7 active torsions:
REMARK  status: ('A' for Active; 'I' for Inactive)
REMARK    1  A    between atoms: S_1  and  C_19
REMARK    2  A    between atoms: S_1  and  C_21
REMARK    3  A    between atoms: O_3  and  C_13
REMARK    4  A    between atoms: N_7  and  C_15
REMARK    5  A    between atoms: C_11  and  C_16
REMARK    6  A    between atoms: C_15  and  C_17
REMARK    7  A    between atoms: C_18  and  C_19
REMARK                            x       y       z     vdW  Elec       q    Type
REMARK                         _______ _______ _______ _____ _____    ______ ____
ROOT
ATOM      4  O   UNL     1      -5.405 -10.356  15.357  0.00  0.00    -0.336 OA
ATOM      8  N   UNL     1      -5.335 -12.247  16.556  0.00  0.00    -0.193 NA
ATOM      9  N   UNL     1      -6.664 -10.482  15.960  0.00  0.00    -0.060 NA
ATOM     16  C   UNL     1      -4.686 -11.435  15.760  0.00  0.00    +0.245 A 
ATOM     18  C   UNL     1      -6.544 -11.620  16.649  0.00  0.00    +0.193 A 
ENDROOT
BRANCH  16  11
ATOM      7  N   UNL     1      -3.028 -10.666  14.070  0.00  0.00    -0.283 NA
ATOM     11  C   UNL     1      -3.267 -11.534  15.241  0.00  0.00    +0.149 C 
ATOM     12  C   UNL     1      -2.220 -11.091  16.280  0.00  0.00    +0.061 C 
ATOM     13  C   UNL     1      -1.412 -10.002  15.585  0.00  0.00    +0.130 C 
ATOM     14  C   UNL     1      -1.615 -10.296  14.111  0.00  0.00    +0.117 C 
BRANCH  13   3
ATOM      3  O   UNL     1      -0.048 -10.077  15.953  0.00  0.00    -0.390 OA
ATOM     30  H   UNL     1       0.084 -10.923  16.413  0.00  0.00    +0.210 HD
ENDBRANCH  13   3
BRANCH   7  15
ATOM     15  C   UNL     1      -3.394 -11.294  12.806  0.00  0.00    +0.140 C 
BRANCH  15  17
ATOM     10  N   UNL     1      -5.076  -9.707  12.048  0.00  0.00    -0.259 NA
ATOM     17  C   UNL     1      -3.879 -10.285  11.799  0.00  0.00    +0.055 A 
ATOM     20  C   UNL     1      -3.095 -10.001  10.693  0.00  0.00    +0.024 A 
ATOM     22  C   UNL     1      -3.571  -9.063   9.783  0.00  0.00    +0.003 A 
ATOM     23  C   UNL     1      -5.505  -8.801  11.141  0.00  0.00    +0.111 A 
ATOM     24  C   UNL     1      -4.797  -8.448  10.003  0.00  0.00    +0.020 A 
ENDBRANCH  15  17
ENDBRANCH   7  15
ENDBRANCH  16  11
BRANCH  18  19
ATOM     19  C   UNL     1      -7.645 -12.160  17.456  0.00  0.00    +0.251 C 
BRANCH  19   1
ATOM      1  S   UNL     1      -7.728 -11.255  18.977  0.00  0.00    +0.004 S 
ATOM      5  O   UNL     1      -6.838 -10.115  18.858  0.00  0.00    -0.169 OA
ATOM      6  O   UNL     1      -7.585 -12.190  20.077  0.00  0.00    -0.169 OA
BRANCH   1  21
ATOM      2  F   UNL     1     -13.269  -9.243  19.119  0.00  0.00    -0.205 F 
ATOM     21  C   UNL     1      -9.388 -10.652  19.021  0.00  0.00    +0.089 A 
ATOM     25  C   UNL     1     -10.238 -11.021  20.064  0.00  0.00    +0.030 A 
ATOM     26  C   UNL     1      -9.850  -9.807  18.011  0.00  0.00    +0.030 A 
ATOM     27  C   UNL     1     -11.548 -10.545  20.097  0.00  0.00    +0.040 A 
ATOM     28  C   UNL     1     -11.160  -9.331  18.044  0.00  0.00    +0.040 A 
ATOM     29  C   UNL     1     -12.010  -9.700  19.088  0.00  0.00    +0.124 A 
ENDBRANCH   1  21
ENDBRANCH  19   1
ENDBRANCH  18  19
TORSDOF 7
ENDMDL
MODEL 4
REMARK VINA RESULT:      -6.6     26.333     29.004
REMARK  Name = 26743454
REMARK  7 active torsions:
REMARK  status: ('A' for Active; 'I' for Inactive)
REMARK    1  A    between atoms: S_1  and  C_19
REMARK    2  A    between atoms: S_1  and  C_21
REMARK    3  A    between atoms: O_3  and  C_13
REMARK    4  A    between atoms: N_7  and  C_15
REMARK    5  A    between atoms: C_11  and  C_16
REMARK    6  A    between atoms: C_15  and  C_17
REMARK    7  A    between atoms: C_18  and  C_19
REMARK                            x       y       z     vdW  Elec       q    Type
REMARK                         _______ _______ _______ _____ _____    ______ ____
ROOT
ATOM      4  O   UNL     1      13.839   9.607  18.085  0.00  0.00    -0.336 OA
ATOM      8  N   UNL     1      12.663  10.806  19.568  0.00  0.00    -0.193 NA
ATOM      9  N   UNL     1      14.284  10.930  17.957  0.00  0.00    -0.060 NA
ATOM     16  C   UNL     1      12.886   9.623  19.053  0.00  0.00    +0.245 A 
ATOM     18  C   UNL     1      13.544  11.575  18.864  0.00  0.00    +0.193 A 
ENDROOT
BRANCH  16  11
ATOM      7  N   UNL     1      13.087   7.453  20.255  0.00  0.00    -0.283 NA
ATOM     11  C   UNL     1      12.240   8.295  19.387  0.00  0.00    +0.149 C 
ATOM     12  C   UNL     1      10.917   8.453  20.160  0.00  0.00    +0.061 C 
ATOM     13  C   UNL     1      11.101   7.628  21.427  0.00  0.00    +0.130 C 
ATOM     14  C   UNL     1      12.176   6.629  21.047  0.00  0.00    +0.117 C 
BRANCH  13   3
ATOM      3  O   UNL     1       9.892   6.988  21.789  0.00  0.00    -0.390 OA
ATOM     30  H   UNL     1       9.290   7.671  22.128  0.00  0.00    +0.210 HD
ENDBRANCH  13   3
BRANCH   7  15
ATOM     15  C   UNL     1      14.049   6.648  19.513  0.00  0.00    +0.140 C 
BRANCH  15  17
ATOM     10  N   UNL     1      15.625   7.807  20.959  0.00  0.00    -0.259 NA
ATOM     17  C   UNL     1      15.461   6.898  19.972  0.00  0.00    +0.055 A 
ATOM     20  C   UNL     1      16.501   6.200  19.379  0.00  0.00    +0.024 A 
ATOM     22  C   UNL     1      17.793   6.453  19.828  0.00  0.00    +0.003 A 
ATOM     23  C   UNL     1      16.895   8.026  21.368  0.00  0.00    +0.111 A 
ATOM     24  C   UNL     1      18.002   7.382  20.840  0.00  0.00    +0.020 A 
ENDBRANCH  15  17
ENDBRANCH   7  15
ENDBRANCH  16  11
BRANCH  18  19
ATOM     19  C   UNL     1      13.673  13.019  19.087  0.00  0.00    +0.251 C 
BRANCH  19   1
ATOM      1  S   UNL     1      14.396  13.284  20.683  0.00  0.00    +0.004 S 
ATOM      5  O   UNL     1      14.933  14.632  20.701  0.00  0.00    -0.169 OA
ATOM      6  O   UNL     1      15.242  12.149  21.000  0.00  0.00    -0.169 OA
BRANCH   1  21
ATOM      2  F   UNL     1       9.793  13.099  24.364  0.00  0.00    -0.205 F 
ATOM     21  C   UNL     1      13.017  13.229  21.786  0.00  0.00    +0.089 A 
ATOM     25  C   UNL     1      13.155  12.650  23.049  0.00  0.00    +0.030 A 
ATOM     26  C   UNL     1      11.789  13.764  21.396  0.00  0.00    +0.030 A 
ATOM     27  C   UNL     1      12.067  12.606  23.919  0.00  0.00    +0.040 A 
ATOM     28  C   UNL     1      10.700  13.720  22.266  0.00  0.00    +0.040 A 
ATOM     29  C   UNL     1      10.839  13.141  23.528  0.00  0.00    +0.124 A 
ENDBRANCH   1  21
ENDBRANCH  19   1
ENDBRANCH  18  19
TORSDOF 7
ENDMDL
MODEL 5
REMARK VINA RESULT:      -6.6      3.245      4.449
REMARK  Name = 26743454
REMARK  7 active torsions:
REMARK  status: ('A' for Active; 'I' for Inactive)
REMARK    1  A    between atoms: S_1  and  C_19
REMARK    2  A    between atoms: S_1  and  C_21
REMARK    3  A    between atoms: O_3  and  C_13
REMARK    4  A    between atoms: N_7  and  C_15
REMARK    5  A    between atoms: C_11  and  C_16
REMARK    6  A    between atoms: C_15  and  C_17
REMARK    7  A    between atoms: C_18  and  C_19
REMARK                            x       y       z     vdW  Elec       q    Type
REMARK                         _______ _______ _______ _____ _____    ______ ____
ROOT
ATOM      4  O   UNL     1      -5.745 -12.210  13.957  0.00  0.00    -0.336 OA
ATOM      8  N   UNL     1      -5.656 -10.400  15.273  0.00  0.00    -0.193 NA
ATOM      9  N   UNL     1      -7.073 -11.875  14.247  0.00  0.00    -0.060 NA
ATOM     16  C   UNL     1      -4.976 -11.292  14.599  0.00  0.00    +0.245 A 
ATOM     18  C   UNL     1      -6.938 -10.798  15.028  0.00  0.00    +0.193 A 
ENDROOT
BRANCH  16  11
ATOM      7  N   UNL     1      -2.910 -10.455  13.491  0.00  0.00    -0.283 NA
ATOM     11  C   UNL     1      -3.477 -11.435  14.438  0.00  0.00    +0.149 C 
ATOM     12  C   UNL     1      -2.712 -11.200  15.754  0.00  0.00    +0.061 C 
ATOM     13  C   UNL     1      -1.707 -10.100  15.434  0.00  0.00    +0.130 C 
ATOM     14  C   UNL     1      -1.540 -10.199  13.931  0.00  0.00    +0.117 C 
BRANCH  13   3
ATOM      3  O   UNL     1      -0.487 -10.322  16.115  0.00  0.00    -0.390 OA
ATOM     30  H   UNL     1      -0.452  -9.701  16.862  0.00  0.00    +0.210 HD
ENDBRANCH  13   3
BRANCH   7  15
ATOM     15  C   UNL     1      -2.968 -10.897  12.103  0.00  0.00    +0.140 C 
BRANCH  15  17
ATOM     10  N   UNL     1      -4.962  -9.538  11.792  0.00  0.00    -0.259 NA
ATOM     17  C   UNL     1      -3.800  -9.973  11.255  0.00  0.00    +0.055 A 
ATOM     20  C   UNL     1      -3.346  -9.617   9.994  0.00  0.00    +0.024 A 
ATOM     22  C   UNL     1      -4.138  -8.761   9.237  0.00  0.00    +0.003 A 
ATOM     23  C   UNL     1      -5.704  -8.708  11.026  0.00  0.00    +0.111 A 
ATOM     24  C   UNL     1      -5.340  -8.293   9.754  0.00  0.00    +0.020 A 
ENDBRANCH  15  17
ENDBRANCH   7  15
ENDBRANCH  16  11
BRANCH  18  19
ATOM     19  C   UNL     1      -8.097 -10.091  15.583  0.00  0.00    +0.251 C 
BRANCH  19   1
ATOM      1  S   UNL     1      -8.640 -10.947  17.037  0.00  0.00    +0.004 S 
ATOM      5  O   UNL     1      -9.244 -12.195  16.609  0.00  0.00    -0.169 OA
ATOM      6  O   UNL     1      -9.380 -10.018  17.869  0.00  0.00    -0.169 OA
BRANCH   1  21
ATOM      2  F   UNL     1      -3.635 -12.220  19.882  0.00  0.00    -0.205 F 
ATOM     21  C   UNL     1      -7.140 -11.328  17.888  0.00  0.00    +0.089 A 
ATOM     25  C   UNL     1      -6.566 -12.594  17.760  0.00  0.00    +0.030 A 
ATOM     26  C   UNL     1      -6.529 -10.364  18.691  0.00  0.00    +0.030 A 
ATOM     27  C   UNL     1      -5.383 -12.895  18.433  0.00  0.00    +0.040 A 
ATOM     28  C   UNL     1      -5.345 -10.665  19.364  0.00  0.00    +0.040 A 
ATOM     29  C   UNL     1      -4.772 -11.931  19.235  0.00  0.00    +0.124 A 
ENDBRANCH   1  21
ENDBRANCH  19   1
ENDBRANCH  18  19
TORSDOF 7
ENDMDL
MODEL 6
REMARK VINA RESULT:      -6.4     23.997     26.498
REMARK  Name = 26743454
REMARK  7 active torsions:
REMARK  status: ('A' for Active; 'I' for Inactive)
REMARK    1  A    between atoms: S_1  and  C_19
REMARK    2  A    between atoms: S_1  and  C_21
REMARK    3  A    between atoms: O_3  and  C_13
REMARK    4  A    between atoms: N_7  and  C_15
REMARK    5  A    between atoms: C_11  and  C_16
REMARK    6  A    between atoms: C_15  and  C_17
REMARK    7  A    between atoms: C_18  and  C_19
REMARK                            x       y       z     vdW  Elec       q    Type
REMARK                         _______ _______ _______ _____ _____    ______ ____
ROOT
ATOM      4  O   UNL     1      11.321   3.777   2.939  0.00  0.00    -0.336 OA
ATOM      8  N   UNL     1      12.028   5.797   2.277  0.00  0.00    -0.193 NA
ATOM      9  N   UNL     1      10.555   4.710   3.650  0.00  0.00    -0.060 NA
ATOM     16  C   UNL     1      12.162   4.501   2.155  0.00  0.00    +0.245 A 
ATOM     18  C   UNL     1      11.031   5.877   3.206  0.00  0.00    +0.193 A 
ENDROOT
BRANCH  16  11
ATOM      7  N   UNL     1      12.953   4.040  -0.160  0.00  0.00    -0.283 NA
ATOM     11  C   UNL     1      13.107   3.714   1.272  0.00  0.00    +0.149 C 
ATOM     12  C   UNL     1      14.589   3.998   1.583  0.00  0.00    +0.061 C 
ATOM     13  C   UNL     1      15.194   4.435   0.255  0.00  0.00    +0.130 C 
ATOM     14  C   UNL     1      14.262   3.829  -0.776  0.00  0.00    +0.117 C 
BRANCH  13   3
ATOM      3  O   UNL     1      16.515   3.948   0.121  0.00  0.00    -0.390 OA
ATOM     30  H   UNL     1      16.700   3.863  -0.830  0.00  0.00    +0.210 HD
ENDBRANCH  13   3
BRANCH   7  15
ATOM     15  C   UNL     1      11.906   3.266  -0.816  0.00  0.00    +0.140 C 
BRANCH  15  17
ATOM     10  N   UNL     1      10.279   3.657  -2.581  0.00  0.00    -0.259 NA
ATOM     17  C   UNL     1      10.886   4.152  -1.479  0.00  0.00    +0.055 A 
ATOM     20  C   UNL     1      10.622   5.402  -0.942  0.00  0.00    +0.024 A 
ATOM     22  C   UNL     1       9.673   6.195  -1.578  0.00  0.00    +0.003 A 
ATOM     23  C   UNL     1       9.363   4.457  -3.171  0.00  0.00    +0.111 A 
ATOM     24  C   UNL     1       9.027   5.721  -2.714  0.00  0.00    +0.020 A 
ENDBRANCH  15  17
ENDBRANCH   7  15
ENDBRANCH  16  11
BRANCH  18  19
ATOM     19  C   UNL     1      10.511   7.162   3.687  0.00  0.00    +0.251 C 
BRANCH  19   1
ATOM      1  S   UNL     1      11.495   7.692   5.063  0.00  0.00    +0.004 S 
ATOM      5  O   UNL     1      11.437   9.141   5.109  0.00  0.00    -0.169 OA
ATOM      6  O   UNL     1      12.773   7.007   5.006  0.00  0.00    -0.169 OA
BRANCH   1  21
ATOM      2  F   UNL     1       8.605   5.593   9.754  0.00  0.00    -0.205 F 
ATOM     21  C   UNL     1      10.630   7.063   6.469  0.00  0.00    +0.089 A 
ATOM     25  C   UNL     1      11.163   6.001   7.200  0.00  0.00    +0.030 A 
ATOM     26  C   UNL     1       9.412   7.629   6.848  0.00  0.00    +0.030 A 
ATOM     27  C   UNL     1      10.480   5.505   8.309  0.00  0.00    +0.040 A 
ATOM     28  C   UNL     1       8.728   7.133   7.958  0.00  0.00    +0.040 A 
ATOM     29  C   UNL     1       9.262   6.070   8.689  0.00  0.00    +0.124 A 
ENDBRANCH   1  21
ENDBRANCH  19   1
ENDBRANCH  18  19
TORSDOF 7
ENDMDL
MODEL 7
REMARK VINA RESULT:      -6.4      3.458      6.735
REMARK  Name = 26743454
REMARK  7 active torsions:
REMARK  status: ('A' for Active; 'I' for Inactive)
REMARK    1  A    between atoms: S_1  and  C_19
REMARK    2  A    between atoms: S_1  and  C_21
REMARK    3  A    between atoms: O_3  and  C_13
REMARK    4  A    between atoms: N_7  and  C_15
REMARK    5  A    between atoms: C_11  and  C_16
REMARK    6  A    between atoms: C_15  and  C_17
REMARK    7  A    between atoms: C_18  and  C_19
REMARK                            x       y       z     vdW  Elec       q    Type
REMARK                         _______ _______ _______ _____ _____    ______ ____
ROOT
ATOM      4  O   UNL     1      -5.008 -11.357  18.135  0.00  0.00    -0.336 OA
ATOM      8  N   UNL     1      -4.800  -9.992  16.371  0.00  0.00    -0.193 NA
ATOM      9  N   UNL     1      -3.763 -11.648  17.562  0.00  0.00    -0.060 NA
ATOM     16  C   UNL     1      -5.552 -10.373  17.373  0.00  0.00    +0.245 A 
ATOM     18  C   UNL     1      -3.713 -10.802  16.528  0.00  0.00    +0.193 A 
ENDROOT
BRANCH  16  11
ATOM      7  N   UNL     1      -8.008 -10.442  16.975  0.00  0.00    -0.283 NA
ATOM     11  C   UNL     1      -6.918  -9.871  17.791  0.00  0.00    +0.149 C 
ATOM     12  C   UNL     1      -7.273 -10.249  19.242  0.00  0.00    +0.061 C 
ATOM     13  C   UNL     1      -8.601 -10.990  19.142  0.00  0.00    +0.130 C 
ATOM     14  C   UNL     1      -9.188 -10.492  17.836  0.00  0.00    +0.117 C 
BRANCH  13   3
ATOM      3  O   UNL     1      -9.432 -10.681  20.244  0.00  0.00    -0.390 OA
ATOM     30  H   UNL     1      -9.040  -9.918  20.701  0.00  0.00    +0.210 HD
ENDBRANCH  13   3
BRANCH   7  15
ATOM     15  C   UNL     1      -8.256  -9.698  15.746  0.00  0.00    +0.140 C 
BRANCH  15  17
ATOM     10  N   UNL     1      -7.610 -11.809  14.726  0.00  0.00    -0.259 NA
ATOM     17  C   UNL     1      -8.083 -10.559  14.524  0.00  0.00    +0.055 A 
ATOM     20  C   UNL     1      -8.410 -10.044  13.279  0.00  0.00    +0.024 A 
ATOM     22  C   UNL     1      -8.240 -10.867  12.171  0.00  0.00    +0.003 A 
ATOM     23  C   UNL     1      -7.458 -12.579  13.624  0.00  0.00    +0.111 A 
ATOM     24  C   UNL     1      -7.755 -12.158  12.338  0.00  0.00    +0.020 A 
ENDBRANCH  15  17
ENDBRANCH   7  15
ENDBRANCH  16  11
BRANCH  18  19
ATOM     19  C   UNL     1      -2.561 -10.751  15.622  0.00  0.00    +0.251 C 
BRANCH  19   1
ATOM      1  S   UNL     1      -2.817 -11.919  14.314  0.00  0.00    +0.004 S 
ATOM      5  O   UNL     1      -4.017 -12.672  14.629  0.00  0.00    -0.169 OA
ATOM      6  O   UNL     1      -1.565 -12.604  14.056  0.00  0.00    -0.169 OA
BRANCH   1  21
ATOM      2  F   UNL     1      -3.952  -8.546   9.613  0.00  0.00    -0.205 F 
ATOM     21  C   UNL     1      -3.157 -10.909  12.905  0.00  0.00    +0.089 A 
ATOM     25  C   UNL     1      -2.126 -10.559  12.032  0.00  0.00    +0.030 A 
ATOM     26  C   UNL     1      -4.456 -10.461  12.665  0.00  0.00    +0.030 A 
ATOM     27  C   UNL     1      -2.395  -9.761  10.920  0.00  0.00    +0.040 A 
ATOM     28  C   UNL     1      -4.725  -9.663  11.553  0.00  0.00    +0.040 A 
ATOM     29  C   UNL     1      -3.694  -9.313  10.680  0.00  0.00    +0.124 A 
ENDBRANCH   1  21
ENDBRANCH  19   1
ENDBRANCH  18  19
TORSDOF 7
ENDMDL
MODEL 8
REMARK VINA RESULT:      -6.3      3.850      6.214
REMARK  Name = 26743454
REMARK  7 active torsions:
REMARK  status: ('A' for Active; 'I' for Inactive)
REMARK    1  A    between atoms: S_1  and  C_19
REMARK    2  A    between atoms: S_1  and  C_21
REMARK    3  A    between atoms: O_3  and  C_13
REMARK    4  A    between atoms: N_7  and  C_15
REMARK    5  A    between atoms: C_11  and  C_16
REMARK    6  A    between atoms: C_15  and  C_17
REMARK    7  A    between atoms: C_18  and  C_19
REMARK                            x       y       z     vdW  Elec       q    Type
REMARK                         _______ _______ _______ _____ _____    ______ ____
ROOT
ATOM      4  O   UNL     1      -9.041 -11.540  15.360  0.00  0.00    -0.336 OA
ATOM      8  N   UNL     1      -7.253 -10.520  14.477  0.00  0.00    -0.193 NA
ATOM      9  N   UNL     1      -9.439 -11.081  14.098  0.00  0.00    -0.060 NA
ATOM     16  C   UNL     1      -7.743 -11.168  15.504  0.00  0.00    +0.245 A 
ATOM     18  C   UNL     1      -8.331 -10.490  13.640  0.00  0.00    +0.193 A 
ENDROOT
BRANCH  16  11
ATOM      7  N   UNL     1      -5.663 -11.107  16.871  0.00  0.00    -0.283 NA
ATOM     11  C   UNL     1      -7.068 -11.555  16.803  0.00  0.00    +0.149 C 
ATOM     12  C   UNL     1      -7.743 -10.924  18.036  0.00  0.00    +0.061 C 
ATOM     13  C   UNL     1      -6.627 -10.178  18.757  0.00  0.00    +0.130 C 
ATOM     14  C   UNL     1      -5.369 -10.880  18.284  0.00  0.00    +0.117 C 
BRANCH  13   3
ATOM      3  O   UNL     1      -6.786 -10.271  20.159  0.00  0.00    -0.390 OA
ATOM     30  H   UNL     1      -6.687 -11.207  20.403  0.00  0.00    +0.210 HD
ENDBRANCH  13   3
BRANCH   7  15
ATOM     15  C   UNL     1      -4.731 -12.047  16.260  0.00  0.00    +0.140 C 
BRANCH  15  17
ATOM     10  N   UNL     1      -2.541 -10.994  16.371  0.00  0.00    -0.259 NA
ATOM     17  C   UNL     1      -3.585 -11.341  15.586  0.00  0.00    +0.055 A 
ATOM     20  C   UNL     1      -3.652 -11.088  14.225  0.00  0.00    +0.024 A 
ATOM     22  C   UNL     1      -2.575 -10.436  13.632  0.00  0.00    +0.003 A 
ATOM     23  C   UNL     1      -1.514 -10.361  15.759  0.00  0.00    +0.111 A 
ATOM     24  C   UNL     1      -1.484 -10.062  14.406  0.00  0.00    +0.020 A 
ENDBRANCH  15  17
ENDBRANCH   7  15
ENDBRANCH  16  11
BRANCH  18  19
ATOM     19  C   UNL     1      -8.279  -9.852  12.321  0.00  0.00    +0.251 C 
BRANCH  19   1
ATOM      1  S   UNL     1      -7.628 -11.015  11.153  0.00  0.00    +0.004 S 
ATOM      5  O   UNL     1      -8.408 -10.896   9.936  0.00  0.00    -0.169 OA
ATOM      6  O   UNL     1      -7.484 -12.299  11.813  0.00  0.00    -0.169 OA
BRANCH   1  21
ATOM      2  F   UNL     1      -2.194  -9.014  10.042  0.00  0.00    -0.205 F 
ATOM     21  C   UNL     1      -6.000 -10.416  10.821  0.00  0.00    +0.089 A 
ATOM     25  C   UNL     1      -5.715  -9.056  10.959  0.00  0.00    +0.030 A 
ATOM     26  C   UNL     1      -4.998 -11.301  10.421  0.00  0.00    +0.030 A 
ATOM     27  C   UNL     1      -4.430  -8.583  10.696  0.00  0.00    +0.040 A 
ATOM     28  C   UNL     1      -3.713 -10.828  10.158  0.00  0.00    +0.040 A 
ATOM     29  C   UNL     1      -3.428  -9.469  10.295  0.00  0.00    +0.124 A 
ENDBRANCH   1  21
ENDBRANCH  19   1
ENDBRANCH  18  19
TORSDOF 7
ENDMDL
MODEL 9
REMARK VINA RESULT:      -6.3     24.759     27.128
REMARK  Name = 26743454
REMARK  7 active torsions:
REMARK  status: ('A' for Active; 'I' for Inactive)
REMARK    1  A    between atoms: S_1  and  C_19
REMARK    2  A    between atoms: S_1  and  C_21
REMARK    3  A    between atoms: O_3  and  C_13
REMARK    4  A    between atoms: N_7  and  C_15
REMARK    5  A    between atoms: C_11  and  C_16
REMARK    6  A    between atoms: C_15  and  C_17
REMARK    7  A    between atoms: C_18  and  C_19
REMARK                            x       y       z     vdW  Elec       q    Type
REMARK                         _______ _______ _______ _____ _____    ______ ____
ROOT
ATOM      4  O   UNL     1      11.290   6.944  -1.474  0.00  0.00    -0.336 OA
ATOM      8  N   UNL     1      10.115   5.395  -0.363  0.00  0.00    -0.193 NA
ATOM      9  N   UNL     1      10.951   7.521  -0.244  0.00  0.00    -0.060 NA
ATOM     16  C   UNL     1      10.759   5.694  -1.462  0.00  0.00    +0.245 A 
ATOM     18  C   UNL     1      10.260   6.547   0.355  0.00  0.00    +0.193 A 
ENDROOT
BRANCH  16  11
ATOM      7  N   UNL     1      11.694   3.586  -2.399  0.00  0.00    -0.283 NA
ATOM     11  C   UNL     1      10.992   4.850  -2.697  0.00  0.00    +0.149 C 
ATOM     12  C   UNL     1       9.680   4.419  -3.380  0.00  0.00    +0.061 C 
ATOM     13  C   UNL     1       9.757   2.899  -3.460  0.00  0.00    +0.130 C 
ATOM     14  C   UNL     1      11.246   2.617  -3.397  0.00  0.00    +0.117 C 
BRANCH  13   3
ATOM      3  O   UNL     1       9.184   2.431  -4.665  0.00  0.00    -0.390 OA
ATOM     30  H   UNL     1       9.047   1.473  -4.571  0.00  0.00    +0.210 HD
ENDBRANCH  13   3
BRANCH   7  15
ATOM     15  C   UNL     1      13.145   3.725  -2.383  0.00  0.00    +0.140 C 
BRANCH  15  17
ATOM     10  N   UNL     1      12.873   3.211  -0.021  0.00  0.00    -0.259 NA
ATOM     17  C   UNL     1      13.697   3.684  -0.982  0.00  0.00    +0.055 A 
ATOM     20  C   UNL     1      14.992   4.120  -0.751  0.00  0.00    +0.024 A 
ATOM     22  C   UNL     1      15.471   4.068   0.554  0.00  0.00    +0.003 A 
ATOM     23  C   UNL     1      13.374   3.176   1.234  0.00  0.00    +0.111 A 
ATOM     24  C   UNL     1      14.654   3.588   1.570  0.00  0.00    +0.020 A 
ENDBRANCH  15  17
ENDBRANCH   7  15
ENDBRANCH  16  11
BRANCH  18  19
ATOM     19  C   UNL     1       9.694   6.708   1.698  0.00  0.00    +0.251 C 
BRANCH  19   1
ATOM      1  S   UNL     1      10.636   5.724   2.832  0.00  0.00    +0.004 S 
ATOM      5  O   UNL     1      12.008   6.194   2.782  0.00  0.00    -0.169 OA
ATOM      6  O   UNL     1      10.327   4.327   2.597  0.00  0.00    -0.169 OA
BRANCH   1  21
ATOM      2  F   UNL     1       8.409   7.128   8.108  0.00  0.00    -0.205 F 
ATOM     21  C   UNL     1       9.969   6.145   4.413  0.00  0.00    +0.089 A 
ATOM     25  C   UNL     1      10.502   5.575   5.569  0.00  0.00    +0.030 A 
ATOM     26  C   UNL     1       8.909   7.047   4.505  0.00  0.00    +0.030 A 
ATOM     27  C   UNL     1       9.975   5.907   6.817  0.00  0.00    +0.040 A 
ATOM     28  C   UNL     1       8.382   7.380   5.753  0.00  0.00    +0.040 A 
ATOM     29  C   UNL     1       8.915   6.809   6.910  0.00  0.00    +0.124 A 
ENDBRANCH   1  21
ENDBRANCH  19   1
ENDBRANCH  18  19
TORSDOF 7
ENDMDL
MODEL 10
REMARK VINA RESULT:      -6.2      3.538      7.905
REMARK  Name = 26743454
REMARK  7 active torsions:
REMARK  status: ('A' for Active; 'I' for Inactive)
REMARK    1  A    between atoms: S_1  and  C_19
REMARK    2  A    between atoms: S_1  and  C_21
REMARK    3  A    between atoms: O_3  and  C_13
REMARK    4  A    between atoms: N_7  and  C_15
REMARK    5  A    between atoms: C_11  and  C_16
REMARK    6  A    between atoms: C_15  and  C_17
REMARK    7  A    between atoms: C_18  and  C_19
REMARK                            x       y       z     vdW  Elec       q    Type
REMARK                         _______ _______ _______ _____ _____    ______ ____
ROOT
ATOM      4  O   UNL     1      -9.920 -11.007  13.563  0.00  0.00    -0.336 OA
ATOM      8  N   UNL     1      -8.276  -9.488  13.490  0.00  0.00    -0.193 NA
ATOM      9  N   UNL     1      -9.124 -11.347  12.462  0.00  0.00    -0.060 NA
ATOM     16  C   UNL     1      -9.351  -9.902  14.112  0.00  0.00    +0.245 A 
ATOM     18  C   UNL     1      -8.176 -10.405  12.485  0.00  0.00    +0.193 A 
ENDROOT
BRANCH  16  11
ATOM      7  N   UNL     1      -9.080  -9.013  16.421  0.00  0.00    -0.283 NA
ATOM     11  C   UNL     1     -10.031  -9.329  15.337  0.00  0.00    +0.149 C 
ATOM     12  C   UNL     1     -10.756  -8.000  15.050  0.00  0.00    +0.061 C 
ATOM     13  C   UNL     1     -10.176  -7.010  16.052  0.00  0.00    +0.130 C 
ATOM     14  C   UNL     1      -9.657  -7.897  17.167  0.00  0.00    +0.117 C 
BRANCH  13   3
ATOM      3  O   UNL     1     -11.173  -6.118  16.510  0.00  0.00    -0.390 OA
ATOM     30  H   UNL     1     -11.926  -6.182  15.899  0.00  0.00    +0.210 HD
ENDBRANCH  13   3
BRANCH   7  15
ATOM     15  C   UNL     1      -8.787 -10.154  17.279  0.00  0.00    +0.140 C 
BRANCH  15  17
ATOM     10  N   UNL     1      -6.495 -10.003  16.477  0.00  0.00    -0.259 NA
ATOM     17  C   UNL     1      -7.308 -10.318  17.510  0.00  0.00    +0.055 A 
ATOM     20  C   UNL     1      -6.860 -10.771  18.740  0.00  0.00    +0.024 A 
ATOM     22  C   UNL     1      -5.488 -10.910  18.921  0.00  0.00    +0.003 A 
ATOM     23  C   UNL     1      -5.169 -10.150  16.690  0.00  0.00    +0.111 A 
ATOM     24  C   UNL     1      -4.620 -10.596  17.882  0.00  0.00    +0.020 A 
ENDBRANCH  15  17
ENDBRANCH   7  15
ENDBRANCH  16  11
BRANCH  18  19
ATOM     19  C   UNL     1      -7.098 -10.364  11.492  0.00  0.00    +0.251 C 
BRANCH  19   1
ATOM      1  S   UNL     1      -5.855 -11.539  11.956  0.00  0.00    +0.004 S 
ATOM      5  O   UNL     1      -5.989 -12.687  11.078  0.00  0.00    -0.169 OA
ATOM      6  O   UNL     1      -5.892 -11.705  13.397  0.00  0.00    -0.169 OA
BRANCH   1  21
ATOM      2  F   UNL     1      -0.788  -8.820  10.653  0.00  0.00    -0.205 F 
ATOM     21  C   UNL     1      -4.336 -10.725  11.565  0.00  0.00    +0.089 A 
ATOM     25  C   UNL     1      -3.183 -11.011  12.297  0.00  0.00    +0.030 A 
ATOM     26  C   UNL     1      -4.290  -9.795  10.526  0.00  0.00    +0.030 A 
ATOM     27  C   UNL     1      -1.984 -10.368  11.988  0.00  0.00    +0.040 A 
ATOM     28  C   UNL     1      -3.092  -9.152  10.218  0.00  0.00    +0.040 A 
ATOM     29  C   UNL     1      -1.938  -9.438  10.949  0.00  0.00    +0.124 A 
ENDBRANCH   1  21
ENDBRANCH  19   1
ENDBRANCH  18  19
TORSDOF 7
ENDMDL
