MODEL 1
REMARK VINA RESULT:      -5.9      0.000      0.000
REMARK  Name = 11886660
REMARK  5 active torsions:
REMARK  status: ('A' for Active; 'I' for Inactive)
REMARK    1  A    between atoms: O_3  and  C_12
REMARK    2  A    between atoms: O_4  and  C_17
REMARK    3  A    between atoms: O_4  and  C_18
REMARK    4  A    between atoms: N_6  and  C_11
REMARK    5  A    between atoms: C_16  and  C_17
REMARK                            x       y       z     vdW  Elec       q    Type
REMARK                         _______ _______ _______ _____ _____    ______ ____
ROOT
ATOM      1  O   UNL     1      12.978   9.163  21.234  0.00  0.00    -0.369 OA
ATOM      2  O   UNL     1      10.430   7.425  21.020  0.00  0.00    -0.369 OA
ATOM      9  C   UNL     1      11.001   8.422  20.144  0.00  0.00    +0.176 C 
ATOM     10  C   UNL     1      11.596   9.497  21.032  0.00  0.00    +0.180 C 
ATOM     11  C   UNL     1      12.191   7.833  19.412  0.00  0.00    +0.166 C 
ATOM     12  C   UNL     1      10.795   9.356  22.305  0.00  0.00    +0.171 C 
ATOM     13  C   UNL     1      13.335   8.055  20.395  0.00  0.00    +0.190 C 
ATOM     14  C   UNL     1      10.575   7.863  22.378  0.00  0.00    +0.194 C 
ENDROOT
BRANCH  11   6
ATOM      6  N   UNL     1      12.381   8.423  18.084  0.00  0.00    -0.243 N 
ATOM      7  N   UNL     1      11.530   8.142  17.088  0.00  0.00    -0.065 NA
ATOM      8  N   UNL     1      11.948   8.812  16.019  0.00  0.00    -0.123 NA
ATOM     15  C   UNL     1      13.363   9.275  17.692  0.00  0.00    +0.145 A 
ATOM     16  C   UNL     1      13.069   9.510  16.372  0.00  0.00    +0.189 A 
BRANCH  16  17
ATOM      5  O   UNL     1      15.006  10.612  15.569  0.00  0.00    -0.243 OA
ATOM     17  C   UNL     1      13.791  10.346  15.466  0.00  0.00    +0.361 C 
BRANCH  17   4
ATOM      4  O   UNL     1      13.030  10.860  14.432  0.00  0.00    -0.463 OA
ATOM     18  C   UNL     1      13.380  12.158  13.940  0.00  0.00    +0.280 C 
ENDBRANCH  17   4
ENDBRANCH  16  17
ENDBRANCH  11   6
BRANCH  12   3
ATOM      3  O   UNL     1      11.459   9.852  23.446  0.00  0.00    -0.387 OA
ATOM     19  H   UNL     1      11.135  10.755  23.604  0.00  0.00    +0.210 HD
ENDBRANCH  12   3
TORSDOF 4
ENDMDL
MODEL 2
REMARK VINA RESULT:      -5.7      3.476      6.441
REMARK  Name = 11886660
REMARK  5 active torsions:
REMARK  status: ('A' for Active; 'I' for Inactive)
REMARK    1  A    between atoms: O_3  and  C_12
REMARK    2  A    between atoms: O_4  and  C_17
REMARK    3  A    between atoms: O_4  and  C_18
REMARK    4  A    between atoms: N_6  and  C_11
REMARK    5  A    between atoms: C_16  and  C_17
REMARK                            x       y       z     vdW  Elec       q    Type
REMARK                         _______ _______ _______ _____ _____    ______ ____
ROOT
ATOM      1  O   UNL     1      10.522   8.382  19.753  0.00  0.00    -0.369 OA
ATOM      2  O   UNL     1      13.440   7.361  19.782  0.00  0.00    -0.369 OA
ATOM      9  C   UNL     1      12.849   8.619  20.175  0.00  0.00    +0.176 C 
ATOM     10  C   UNL     1      11.734   8.907  19.189  0.00  0.00    +0.180 C 
ATOM     11  C   UNL     1      12.143   8.453  21.507  0.00  0.00    +0.166 C 
ATOM     12  C   UNL     1      12.164   8.130  17.967  0.00  0.00    +0.171 C 
ATOM     13  C   UNL     1      10.765   7.943  21.097  0.00  0.00    +0.190 C 
ATOM     14  C   UNL     1      12.806   6.907  18.578  0.00  0.00    +0.194 C 
ENDROOT
BRANCH  11   6
ATOM      6  N   UNL     1      12.146   9.685  22.301  0.00  0.00    -0.243 N 
ATOM      7  N   UNL     1      13.294  10.329  22.548  0.00  0.00    -0.065 NA
ATOM      8  N   UNL     1      12.990  11.397  23.280  0.00  0.00    -0.123 NA
ATOM     15  C   UNL     1      11.078  10.310  22.859  0.00  0.00    +0.145 A 
ATOM     16  C   UNL     1      11.637  11.399  23.479  0.00  0.00    +0.189 A 
BRANCH  16  17
ATOM      5  O   UNL     1      10.422  12.219  25.339  0.00  0.00    -0.243 OA
ATOM     17  C   UNL     1      10.955  12.407  24.227  0.00  0.00    +0.361 C 
BRANCH  17   4
ATOM      4  O   UNL     1      10.923  13.649  23.618  0.00  0.00    -0.463 OA
ATOM     18  C   UNL     1       9.649  14.290  23.499  0.00  0.00    +0.280 C 
ENDBRANCH  17   4
ENDBRANCH  16  17
ENDBRANCH  11   6
BRANCH  12   3
ATOM      3  O   UNL     1      11.097   7.797  17.107  0.00  0.00    -0.387 OA
ATOM     19  H   UNL     1      10.997   8.524  16.468  0.00  0.00    +0.210 HD
ENDBRANCH  12   3
TORSDOF 4
ENDMDL
MODEL 3
REMARK VINA RESULT:      -5.7      4.678      6.525
REMARK  Name = 11886660
REMARK  5 active torsions:
REMARK  status: ('A' for Active; 'I' for Inactive)
REMARK    1  A    between atoms: O_3  and  C_12
REMARK    2  A    between atoms: O_4  and  C_17
REMARK    3  A    between atoms: O_4  and  C_18
REMARK    4  A    between atoms: N_6  and  C_11
REMARK    5  A    between atoms: C_16  and  C_17
REMARK                            x       y       z     vdW  Elec       q    Type
REMARK                         _______ _______ _______ _____ _____    ______ ____
ROOT
ATOM      1  O   UNL     1      14.352   9.434  19.306  0.00  0.00    -0.369 OA
ATOM      2  O   UNL     1      12.975   7.350  17.484  0.00  0.00    -0.369 OA
ATOM      9  C   UNL     1      14.362   7.587  17.810  0.00  0.00    +0.176 C 
ATOM     10  C   UNL     1      14.535   9.089  17.924  0.00  0.00    +0.180 C 
ATOM     11  C   UNL     1      14.652   7.066  19.204  0.00  0.00    +0.166 C 
ATOM     12  C   UNL     1      13.413   9.618  17.062  0.00  0.00    +0.171 C 
ATOM     13  C   UNL     1      14.251   8.239  20.093  0.00  0.00    +0.190 C 
ATOM     14  C   UNL     1      12.315   8.613  17.318  0.00  0.00    +0.194 C 
ENDROOT
BRANCH  11   6
ATOM      6  N   UNL     1      16.035   6.607  19.355  0.00  0.00    -0.243 N 
ATOM      7  N   UNL     1      16.559   5.733  18.486  0.00  0.00    -0.065 NA
ATOM      8  N   UNL     1      17.812   5.506  18.869  0.00  0.00    -0.123 NA
ATOM     15  C   UNL     1      16.924   6.968  20.316  0.00  0.00    +0.145 A 
ATOM     16  C   UNL     1      18.051   6.255  19.989  0.00  0.00    +0.189 A 
BRANCH  16  17
ATOM      5  O   UNL     1      19.681   7.170  21.442  0.00  0.00    -0.243 OA
ATOM     17  C   UNL     1      19.302   6.260  20.678  0.00  0.00    +0.361 C 
BRANCH  17   4
ATOM      4  O   UNL     1      20.094   5.152  20.434  0.00  0.00    -0.463 OA
ATOM     18  C   UNL     1      21.513   5.337  20.471  0.00  0.00    +0.280 C 
ENDBRANCH  17   4
ENDBRANCH  16  17
ENDBRANCH  11   6
BRANCH  12   3
ATOM      3  O   UNL     1      13.019  10.931  17.393  0.00  0.00    -0.387 OA
ATOM     19  H   UNL     1      12.107  11.052  17.078  0.00  0.00    +0.210 HD
ENDBRANCH  12   3
TORSDOF 4
ENDMDL
MODEL 4
REMARK VINA RESULT:      -5.3      4.672      6.283
REMARK  Name = 11886660
REMARK  5 active torsions:
REMARK  status: ('A' for Active; 'I' for Inactive)
REMARK    1  A    between atoms: O_3  and  C_12
REMARK    2  A    between atoms: O_4  and  C_17
REMARK    3  A    between atoms: O_4  and  C_18
REMARK    4  A    between atoms: N_6  and  C_11
REMARK    5  A    between atoms: C_16  and  C_17
REMARK                            x       y       z     vdW  Elec       q    Type
REMARK                         _______ _______ _______ _____ _____    ______ ____
ROOT
ATOM      1  O   UNL     1      13.272   6.707  19.419  0.00  0.00    -0.369 OA
ATOM      2  O   UNL     1      13.461   9.294  21.101  0.00  0.00    -0.369 OA
ATOM      9  C   UNL     1      14.281   8.106  21.055  0.00  0.00    +0.176 C 
ATOM     10  C   UNL     1      13.343   6.935  20.836  0.00  0.00    +0.180 C 
ATOM     11  C   UNL     1      15.147   8.136  19.810  0.00  0.00    +0.166 C 
ATOM     12  C   UNL     1      12.035   7.451  21.386  0.00  0.00    +0.171 C 
ATOM     13  C   UNL     1      14.232   7.536  18.748  0.00  0.00    +0.190 C 
ATOM     14  C   UNL     1      12.082   8.911  21.001  0.00  0.00    +0.194 C 
ENDROOT
BRANCH  11   6
ATOM      6  N   UNL     1      16.426   7.445  20.000  0.00  0.00    -0.243 N 
ATOM      7  N   UNL     1      16.717   6.349  19.288  0.00  0.00    -0.065 NA
ATOM      8  N   UNL     1      17.926   5.948  19.668  0.00  0.00    -0.123 NA
ATOM     15  C   UNL     1      17.427   7.782  20.852  0.00  0.00    +0.145 A 
ATOM     16  C   UNL     1      18.374   6.815  20.626  0.00  0.00    +0.189 A 
BRANCH  16  17
ATOM      5  O   UNL     1      19.806   6.333  22.450  0.00  0.00    -0.243 OA
ATOM     17  C   UNL     1      19.645   6.690  21.265  0.00  0.00    +0.361 C 
BRANCH  17   4
ATOM      4  O   UNL     1      20.725   7.002  20.459  0.00  0.00    -0.463 OA
ATOM     18  C   UNL     1      21.834   6.097  20.465  0.00  0.00    +0.280 C 
ENDBRANCH  17   4
ENDBRANCH  16  17
ENDBRANCH  11   6
BRANCH  12   3
ATOM      3  O   UNL     1      10.903   6.799  20.854  0.00  0.00    -0.387 OA
ATOM     19  H   UNL     1      11.060   5.841  20.916  0.00  0.00    +0.210 HD
ENDBRANCH  12   3
TORSDOF 4
ENDMDL
MODEL 5
REMARK VINA RESULT:      -5.3     28.649     30.117
REMARK  Name = 11886660
REMARK  5 active torsions:
REMARK  status: ('A' for Active; 'I' for Inactive)
REMARK    1  A    between atoms: O_3  and  C_12
REMARK    2  A    between atoms: O_4  and  C_17
REMARK    3  A    between atoms: O_4  and  C_18
REMARK    4  A    between atoms: N_6  and  C_11
REMARK    5  A    between atoms: C_16  and  C_17
REMARK                            x       y       z     vdW  Elec       q    Type
REMARK                         _______ _______ _______ _____ _____    ______ ____
ROOT
ATOM      1  O   UNL     1     -14.643   0.972  29.952  0.00  0.00    -0.369 OA
ATOM      2  O   UNL     1     -16.131   3.571  30.720  0.00  0.00    -0.369 OA
ATOM      9  C   UNL     1     -15.563   3.111  29.474  0.00  0.00    +0.176 C 
ATOM     10  C   UNL     1     -14.293   2.359  29.823  0.00  0.00    +0.180 C 
ATOM     11  C   UNL     1     -16.469   2.061  28.861  0.00  0.00    +0.166 C 
ATOM     12  C   UNL     1     -13.904   2.963  31.152  0.00  0.00    +0.171 C 
ATOM     13  C   UNL     1     -16.003   0.776  29.538  0.00  0.00    +0.190 C 
ATOM     14  C   UNL     1     -15.249   3.212  31.793  0.00  0.00    +0.194 C 
ENDROOT
BRANCH  11   6
ATOM      6  N   UNL     1     -16.409   2.056  27.396  0.00  0.00    -0.243 N 
ATOM      7  N   UNL     1     -16.624   0.925  26.712  0.00  0.00    -0.065 NA
ATOM      8  N   UNL     1     -16.508   1.223  25.422  0.00  0.00    -0.123 NA
ATOM     15  C   UNL     1     -16.152   3.108  26.577  0.00  0.00    +0.145 A 
ATOM     16  C   UNL     1     -16.219   2.556  25.322  0.00  0.00    +0.189 A 
BRANCH  16  17
ATOM      5  O   UNL     1     -16.349   2.758  22.967  0.00  0.00    -0.243 OA
ATOM     17  C   UNL     1     -16.025   3.226  24.076  0.00  0.00    +0.361 C 
BRANCH  17   4
ATOM      4  O   UNL     1     -15.434   4.472  24.183  0.00  0.00    -0.463 OA
ATOM     18  C   UNL     1     -14.642   4.922  23.078  0.00  0.00    +0.280 C 
ENDBRANCH  17   4
ENDBRANCH  16  17
ENDBRANCH  11   6
BRANCH  12   3
ATOM      3  O   UNL     1     -13.089   2.122  31.937  0.00  0.00    -0.387 OA
ATOM     19  H   UNL     1     -12.235   2.571  32.058  0.00  0.00    +0.210 HD
ENDBRANCH  12   3
TORSDOF 4
ENDMDL
MODEL 6
REMARK VINA RESULT:      -5.2      4.123      6.491
REMARK  Name = 11886660
REMARK  5 active torsions:
REMARK  status: ('A' for Active; 'I' for Inactive)
REMARK    1  A    between atoms: O_3  and  C_12
REMARK    2  A    between atoms: O_4  and  C_17
REMARK    3  A    between atoms: O_4  and  C_18
REMARK    4  A    between atoms: N_6  and  C_11
REMARK    5  A    between atoms: C_16  and  C_17
REMARK                            x       y       z     vdW  Elec       q    Type
REMARK                         _______ _______ _______ _____ _____    ______ ____
ROOT
ATOM      1  O   UNL     1      13.785   9.016  21.262  0.00  0.00    -0.369 OA
ATOM      2  O   UNL     1      11.180   8.029  19.922  0.00  0.00    -0.369 OA
ATOM      9  C   UNL     1      11.438   8.643  21.204  0.00  0.00    +0.176 C 
ATOM     10  C   UNL     1      12.767   8.098  21.690  0.00  0.00    +0.180 C 
ATOM     11  C   UNL     1      11.684  10.127  21.015  0.00  0.00    +0.166 C 
ATOM     12  C   UNL     1      12.868   6.776  20.967  0.00  0.00    +0.171 C 
ATOM     13  C   UNL     1      13.174  10.185  20.697  0.00  0.00    +0.190 C 
ATOM     14  C   UNL     1      12.227   7.092  19.636  0.00  0.00    +0.194 C 
ENDROOT
BRANCH  11   6
ATOM      6  N   UNL     1      11.258  10.917  22.174  0.00  0.00    -0.243 N 
ATOM      7  N   UNL     1      10.903  10.312  23.315  0.00  0.00    -0.065 NA
ATOM      8  N   UNL     1      10.571  11.268  24.176  0.00  0.00    -0.123 NA
ATOM     15  C   UNL     1      11.169  12.269  22.264  0.00  0.00    +0.145 A 
ATOM     16  C   UNL     1      10.728  12.473  23.548  0.00  0.00    +0.189 A 
BRANCH  16  17
ATOM      5  O   UNL     1      10.429  13.903  25.411  0.00  0.00    -0.243 OA
ATOM     17  C   UNL     1      10.461  13.727  24.176  0.00  0.00    +0.361 C 
BRANCH  17   4
ATOM      4  O   UNL     1      10.232  14.771  23.298  0.00  0.00    -0.463 OA
ATOM     18  C   UNL     1       8.891  15.262  23.196  0.00  0.00    +0.280 C 
ENDBRANCH  17   4
ENDBRANCH  16  17
ENDBRANCH  11   6
BRANCH  12   3
ATOM      3  O   UNL     1      14.191   6.311  20.823  0.00  0.00    -0.387 OA
ATOM     19  H   UNL     1      14.314   5.576  21.447  0.00  0.00    +0.210 HD
ENDBRANCH  12   3
TORSDOF 4
ENDMDL
MODEL 7
REMARK VINA RESULT:      -5.1     25.798     27.499
REMARK  Name = 11886660
REMARK  5 active torsions:
REMARK  status: ('A' for Active; 'I' for Inactive)
REMARK    1  A    between atoms: O_3  and  C_12
REMARK    2  A    between atoms: O_4  and  C_17
REMARK    3  A    between atoms: O_4  and  C_18
REMARK    4  A    between atoms: N_6  and  C_11
REMARK    5  A    between atoms: C_16  and  C_17
REMARK                            x       y       z     vdW  Elec       q    Type
REMARK                         _______ _______ _______ _____ _____    ______ ____
ROOT
ATOM      1  O   UNL     1      -6.975 -10.516  19.981  0.00  0.00    -0.369 OA
ATOM      2  O   UNL     1      -8.197 -13.116  18.838  0.00  0.00    -0.369 OA
ATOM      9  C   UNL     1      -7.442 -12.048  18.225  0.00  0.00    +0.176 C 
ATOM     10  C   UNL     1      -7.881 -10.760  18.894  0.00  0.00    +0.180 C 
ATOM     11  C   UNL     1      -5.977 -12.186  18.594  0.00  0.00    +0.166 C 
ATOM     12  C   UNL     1      -9.268 -11.099  19.387  0.00  0.00    +0.171 C 
ATOM     13  C   UNL     1      -5.897 -11.462  19.933  0.00  0.00    +0.190 C 
ATOM     14  C   UNL     1      -9.119 -12.550  19.781  0.00  0.00    +0.194 C 
ENDROOT
BRANCH  11   6
ATOM      6  N   UNL     1      -5.086 -11.675  17.549  0.00  0.00    -0.243 N 
ATOM      7  N   UNL     1      -3.839 -11.290  17.850  0.00  0.00    -0.065 NA
ATOM      8  N   UNL     1      -3.275 -10.879  16.718  0.00  0.00    -0.123 NA
ATOM     15  C   UNL     1      -5.361 -11.528  16.228  0.00  0.00    +0.145 A 
ATOM     16  C   UNL     1      -4.194 -11.019  15.716  0.00  0.00    +0.189 A 
BRANCH  16  17
ATOM      5  O   UNL     1      -4.812 -10.510  13.487  0.00  0.00    -0.243 OA
ATOM     17  C   UNL     1      -3.931 -10.672  14.355  0.00  0.00    +0.361 C 
BRANCH  17   4
ATOM      4  O   UNL     1      -2.590 -10.524  14.052  0.00  0.00    -0.463 OA
ATOM     18  C   UNL     1      -2.231 -10.465  12.667  0.00  0.00    +0.280 C 
ENDBRANCH  17   4
ENDBRANCH  16  17
ENDBRANCH  11   6
BRANCH  12   3
ATOM      3  O   UNL     1      -9.694 -10.297  20.466  0.00  0.00    -0.387 OA
ATOM     19  H   UNL     1      -9.806  -9.391  20.131  0.00  0.00    +0.210 HD
ENDBRANCH  12   3
TORSDOF 4
ENDMDL
MODEL 8
REMARK VINA RESULT:      -4.9     29.669     30.871
REMARK  Name = 11886660
REMARK  5 active torsions:
REMARK  status: ('A' for Active; 'I' for Inactive)
REMARK    1  A    between atoms: O_3  and  C_12
REMARK    2  A    between atoms: O_4  and  C_17
REMARK    3  A    between atoms: O_4  and  C_18
REMARK    4  A    between atoms: N_6  and  C_11
REMARK    5  A    between atoms: C_16  and  C_17
REMARK                            x       y       z     vdW  Elec       q    Type
REMARK                         _______ _______ _______ _____ _____    ______ ____
ROOT
ATOM      1  O   UNL     1     -14.931   0.906  32.461  0.00  0.00    -0.369 OA
ATOM      2  O   UNL     1     -13.358   1.119  29.808  0.00  0.00    -0.369 OA
ATOM      9  C   UNL     1     -14.336   1.983  30.427  0.00  0.00    +0.176 C 
ATOM     10  C   UNL     1     -15.354   1.082  31.099  0.00  0.00    +0.180 C 
ATOM     11  C   UNL     1     -13.690   2.743  31.570  0.00  0.00    +0.166 C 
ATOM     12  C   UNL     1     -15.237  -0.198  30.307  0.00  0.00    +0.171 C 
ATOM     13  C   UNL     1     -13.821   1.771  32.738  0.00  0.00    +0.190 C 
ATOM     14  C   UNL     1     -13.759  -0.245  29.996  0.00  0.00    +0.194 C 
ENDROOT
BRANCH  11   6
ATOM      6  N   UNL     1     -14.294   4.061  31.779  0.00  0.00    -0.243 N 
ATOM      7  N   UNL     1     -15.127   4.578  30.867  0.00  0.00    -0.065 NA
ATOM      8  N   UNL     1     -15.514   5.766  31.322  0.00  0.00    -0.123 NA
ATOM     15  C   UNL     1     -14.120   4.890  32.840  0.00  0.00    +0.145 A 
ATOM     16  C   UNL     1     -14.905   5.972  32.529  0.00  0.00    +0.189 A 
BRANCH  16  17
ATOM      5  O   UNL     1     -16.134   7.839  33.312  0.00  0.00    -0.243 OA
ATOM     17  C   UNL     1     -15.092   7.153  33.311  0.00  0.00    +0.361 C 
BRANCH  17   4
ATOM      4  O   UNL     1     -14.006   7.498  34.094  0.00  0.00    -0.463 OA
ATOM     18  C   UNL     1     -13.070   8.432  33.545  0.00  0.00    +0.280 C 
ENDBRANCH  17   4
ENDBRANCH  16  17
ENDBRANCH  11   6
BRANCH  12   3
ATOM      3  O   UNL     1     -15.667  -1.340  31.015  0.00  0.00    -0.387 OA
ATOM     19  H   UNL     1     -15.713  -1.101  31.956  0.00  0.00    +0.210 HD
ENDBRANCH  12   3
TORSDOF 4
ENDMDL
MODEL 9
REMARK VINA RESULT:      -4.9     29.589     30.780
REMARK  Name = 11886660
REMARK  5 active torsions:
REMARK  status: ('A' for Active; 'I' for Inactive)
REMARK    1  A    between atoms: O_3  and  C_12
REMARK    2  A    between atoms: O_4  and  C_17
REMARK    3  A    between atoms: O_4  and  C_18
REMARK    4  A    between atoms: N_6  and  C_11
REMARK    5  A    between atoms: C_16  and  C_17
REMARK                            x       y       z     vdW  Elec       q    Type
REMARK                         _______ _______ _______ _____ _____    ______ ____
ROOT
ATOM      1  O   UNL     1     -14.370   3.636  31.528  0.00  0.00    -0.369 OA
ATOM      2  O   UNL     1     -14.708   0.752  32.591  0.00  0.00    -0.369 OA
ATOM      9  C   UNL     1     -15.407   1.498  31.570  0.00  0.00    +0.176 C 
ATOM     10  C   UNL     1     -15.501   2.930  32.060  0.00  0.00    +0.180 C 
ATOM     11  C   UNL     1     -14.548   1.580  30.323  0.00  0.00    +0.166 C 
ATOM     12  C   UNL     1     -15.408   2.773  33.560  0.00  0.00    +0.171 C 
ATOM     13  C   UNL     1     -13.670   2.796  30.598  0.00  0.00    +0.190 C 
ATOM     14  C   UNL     1     -14.440   1.622  33.699  0.00  0.00    +0.194 C 
ENDROOT
BRANCH  11   6
ATOM      6  N   UNL     1     -15.346   1.646  29.096  0.00  0.00    -0.243 N 
ATOM      7  N   UNL     1     -15.872   0.533  28.568  0.00  0.00    -0.065 NA
ATOM      8  N   UNL     1     -16.535   0.897  27.475  0.00  0.00    -0.123 NA
ATOM     15  C   UNL     1     -15.650   2.751  28.368  0.00  0.00    +0.145 A 
ATOM     16  C   UNL     1     -16.409   2.252  27.338  0.00  0.00    +0.189 A 
BRANCH  16  17
ATOM      5  O   UNL     1     -18.140   2.783  25.812  0.00  0.00    -0.243 OA
ATOM     17  C   UNL     1     -16.997   2.991  26.267  0.00  0.00    +0.361 C 
BRANCH  17   4
ATOM      4  O   UNL     1     -16.190   3.988  25.748  0.00  0.00    -0.463 OA
ATOM     18  C   UNL     1     -15.469   3.693  24.547  0.00  0.00    +0.280 C 
ENDBRANCH  17   4
ENDBRANCH  16  17
ENDBRANCH  11   6
BRANCH  12   3
ATOM      3  O   UNL     1     -14.953   3.933  34.220  0.00  0.00    -0.387 OA
ATOM     19  H   UNL     1     -13.981   3.918  34.203  0.00  0.00    +0.210 HD
ENDBRANCH  12   3
TORSDOF 4
ENDMDL
MODEL 10
REMARK VINA RESULT:      -4.9     25.390     27.248
REMARK  Name = 11886660
REMARK  5 active torsions:
REMARK  status: ('A' for Active; 'I' for Inactive)
REMARK    1  A    between atoms: O_3  and  C_12
REMARK    2  A    between atoms: O_4  and  C_17
REMARK    3  A    between atoms: O_4  and  C_18
REMARK    4  A    between atoms: N_6  and  C_11
REMARK    5  A    between atoms: C_16  and  C_17
REMARK                            x       y       z     vdW  Elec       q    Type
REMARK                         _______ _______ _______ _____ _____    ______ ____
ROOT
ATOM      1  O   UNL     1      -1.857 -12.117  15.271  0.00  0.00    -0.369 OA
ATOM      2  O   UNL     1      -3.037 -10.322  13.048  0.00  0.00    -0.369 OA
ATOM      9  C   UNL     1      -3.645 -11.010  14.163  0.00  0.00    +0.176 C 
ATOM     10  C   UNL     1      -2.910 -12.327  14.317  0.00  0.00    +0.180 C 
ATOM     11  C   UNL     1      -3.347 -10.258  15.446  0.00  0.00    +0.166 C 
ATOM     12  C   UNL     1      -2.368 -12.569  12.929  0.00  0.00    +0.171 C 
ATOM     13  C   UNL     1      -1.987 -10.813  15.855  0.00  0.00    +0.190 C 
ATOM     14  C   UNL     1      -2.034 -11.169  12.470  0.00  0.00    +0.194 C 
ENDROOT
BRANCH  11   6
ATOM      6  N   UNL     1      -4.412 -10.406  16.442  0.00  0.00    -0.243 N 
ATOM      7  N   UNL     1      -5.563  -9.734  16.310  0.00  0.00    -0.065 NA
ATOM      8  N   UNL     1      -6.327 -10.064  17.347  0.00  0.00    -0.123 NA
ATOM     15  C   UNL     1      -4.398 -11.182  17.556  0.00  0.00    +0.145 A 
ATOM     16  C   UNL     1      -5.627 -10.950  18.119  0.00  0.00    +0.189 A 
BRANCH  16  17
ATOM      5  O   UNL     1      -6.018 -11.009  20.454  0.00  0.00    -0.243 OA
ATOM     17  C   UNL     1      -6.143 -11.520  19.323  0.00  0.00    +0.361 C 
BRANCH  17   4
ATOM      4  O   UNL     1      -6.814 -12.717  19.148  0.00  0.00    -0.463 OA
ATOM     18  C   UNL     1      -8.107 -12.841  19.750  0.00  0.00    +0.280 C 
ENDBRANCH  17   4
ENDBRANCH  16  17
ENDBRANCH  11   6
BRANCH  12   3
ATOM      3  O   UNL     1      -1.243 -13.419  12.903  0.00  0.00    -0.387 OA
ATOM     19  H   UNL     1      -0.587 -13.055  13.523  0.00  0.00    +0.210 HD
ENDBRANCH  12   3
TORSDOF 4
ENDMDL
