MODEL 1
REMARK VINA RESULT:      -6.7      0.000      0.000
REMARK  Name = 75368427
REMARK  3 active torsions:
REMARK  status: ('A' for Active; 'I' for Inactive)
REMARK    1  A    between atoms: N_4  and  C_13
REMARK    2  A    between atoms: C_13  and  C_15
REMARK    3  A    between atoms: C_14  and  C_16
REMARK                            x       y       z     vdW  Elec       q    Type
REMARK                         _______ _______ _______ _____ _____    ______ ____
ROOT
ATOM      1  O   UNL     1     -17.054   2.159  22.621  0.00  0.00    -0.252 OA
ATOM      2  O   UNL     1     -16.492   0.227  29.313  0.00  0.00    -0.270 OA
ATOM      3  N   UNL     1     -16.569   2.285  24.917  0.00  0.00    -0.278 N 
ATOM      4  N   UNL     1     -16.546   4.184  23.716  0.00  0.00    -0.279 N 
ATOM      5  N   UNL     1     -16.882   1.809  27.637  0.00  0.00    -0.294 N 
ATOM      7  C   UNL     1     -16.113   3.302  25.849  0.00  0.00    +0.112 C 
ATOM      8  C   UNL     1     -16.307   4.609  25.084  0.00  0.00    +0.133 C 
ATOM      9  C   UNL     1     -16.891   3.205  27.157  0.00  0.00    +0.132 C 
ATOM     10  C   UNL     1     -16.680   0.903  25.352  0.00  0.00    +0.128 C 
ATOM     11  C   UNL     1     -17.424   0.831  26.683  0.00  0.00    +0.127 C 
ATOM     12  C   UNL     1     -16.757   2.794  23.624  0.00  0.00    +0.306 C 
ATOM     14  C   UNL     1     -16.458   1.385  28.897  0.00  0.00    +0.247 C 
ENDROOT
BRANCH  14  16
ATOM     16  C   UNL     1     -15.910   2.391  29.817  0.00  0.00    +0.037 A 
ATOM     19  C   UNL     1     -16.770   3.229  30.527  0.00  0.00    +0.013 A 
ATOM     20  C   UNL     1     -14.530   2.505  29.982  0.00  0.00    +0.013 A 
ATOM     22  C   UNL     1     -16.249   4.183  31.402  0.00  0.00    +0.001 A 
ATOM     23  C   UNL     1     -14.009   3.458  30.857  0.00  0.00    +0.001 A 
ATOM     25  C   UNL     1     -14.868   4.298  31.567  0.00  0.00    +0.000 A 
ENDBRANCH  14  16
BRANCH   4  13
ATOM     13  C   UNL     1     -16.676   5.132  22.632  0.00  0.00    +0.146 C 
BRANCH  13  15
ATOM      6  N   UNL     1     -14.060   7.280  20.944  0.00  0.00    -0.263 NA
ATOM     15  C   UNL     1     -15.340   5.621  22.152  0.00  0.00    -0.012 A 
ATOM     17  C   UNL     1     -14.174   4.921  22.439  0.00  0.00    +0.008 A 
ATOM     18  C   UNL     1     -15.230   6.785  21.407  0.00  0.00    +0.115 A 
ATOM     21  C   UNL     1     -12.951   5.398  21.980  0.00  0.00    +0.020 A 
ATOM     24  C   UNL     1     -12.949   6.571  21.243  0.00  0.00    +0.111 A 
ENDBRANCH  13  15
ENDBRANCH   4  13
TORSDOF 3
ENDMDL
MODEL 2
REMARK VINA RESULT:      -6.6     29.879     32.762
REMARK  Name = 75368427
REMARK  3 active torsions:
REMARK  status: ('A' for Active; 'I' for Inactive)
REMARK    1  A    between atoms: N_4  and  C_13
REMARK    2  A    between atoms: C_13  and  C_15
REMARK    3  A    between atoms: C_14  and  C_16
REMARK                            x       y       z     vdW  Elec       q    Type
REMARK                         _______ _______ _______ _____ _____    ______ ____
ROOT
ATOM      1  O   UNL     1      12.795  11.627  13.826  0.00  0.00    -0.252 OA
ATOM      2  O   UNL     1      12.202   6.724  18.768  0.00  0.00    -0.270 OA
ATOM      3  N   UNL     1      13.382  10.219  15.614  0.00  0.00    -0.278 N 
ATOM      4  N   UNL     1      14.755  11.923  15.103  0.00  0.00    -0.279 N 
ATOM      5  N   UNL     1      13.031   8.747  17.945  0.00  0.00    -0.294 N 
ATOM      7  C   UNL     1      14.524  10.045  16.493  0.00  0.00    +0.112 C 
ATOM      8  C   UNL     1      15.340  11.319  16.288  0.00  0.00    +0.133 C 
ATOM      9  C   UNL     1      14.055   9.810  17.926  0.00  0.00    +0.132 C 
ATOM     10  C   UNL     1      12.289   9.263  15.650  0.00  0.00    +0.128 C 
ATOM     11  C   UNL     1      11.862   9.010  17.094  0.00  0.00    +0.127 C 
ATOM     12  C   UNL     1      13.550  11.295  14.731  0.00  0.00    +0.306 C 
ATOM     14  C   UNL     1      13.077   7.588  18.720  0.00  0.00    +0.247 C 
ENDROOT
BRANCH  14  16
ATOM     16  C   UNL     1      14.268   7.355  19.547  0.00  0.00    +0.037 A 
ATOM     19  C   UNL     1      14.248   7.673  20.905  0.00  0.00    +0.013 A 
ATOM     20  C   UNL     1      15.419   6.814  18.974  0.00  0.00    +0.013 A 
ATOM     22  C   UNL     1      15.379   7.450  21.690  0.00  0.00    +0.001 A 
ATOM     23  C   UNL     1      16.550   6.591  19.759  0.00  0.00    +0.001 A 
ATOM     25  C   UNL     1      16.531   6.909  21.117  0.00  0.00    +0.000 A 
ENDBRANCH  14  16
BRANCH   4  13
ATOM     13  C   UNL     1      15.312  13.111  14.496  0.00  0.00    +0.146 C 
BRANCH  13  15
ATOM      6  N   UNL     1      16.624  12.192  11.069  0.00  0.00    -0.263 NA
ATOM     15  C   UNL     1      16.270  12.778  13.389  0.00  0.00    -0.012 A 
ATOM     17  C   UNL     1      17.641  12.743  13.614  0.00  0.00    +0.008 A 
ATOM     18  C   UNL     1      15.815  12.498  12.110  0.00  0.00    +0.115 A 
ATOM     21  C   UNL     1      18.505  12.431  12.569  0.00  0.00    +0.020 A 
ATOM     24  C   UNL     1      17.950  12.166  11.328  0.00  0.00    +0.111 A 
ENDBRANCH  13  15
ENDBRANCH   4  13
TORSDOF 3
ENDMDL
MODEL 3
REMARK VINA RESULT:      -6.6     27.798     29.895
REMARK  Name = 75368427
REMARK  3 active torsions:
REMARK  status: ('A' for Active; 'I' for Inactive)
REMARK    1  A    between atoms: N_4  and  C_13
REMARK    2  A    between atoms: C_13  and  C_15
REMARK    3  A    between atoms: C_14  and  C_16
REMARK                            x       y       z     vdW  Elec       q    Type
REMARK                         _______ _______ _______ _____ _____    ______ ____
ROOT
ATOM      1  O   UNL     1      11.325   6.720  20.301  0.00  0.00    -0.252 OA
ATOM      2  O   UNL     1      11.147  11.462  25.429  0.00  0.00    -0.270 OA
ATOM      3  N   UNL     1      12.029   8.451  21.726  0.00  0.00    -0.278 N 
ATOM      4  N   UNL     1      13.257   8.010  19.896  0.00  0.00    -0.279 N 
ATOM      5  N   UNL     1      11.805  10.721  23.313  0.00  0.00    -0.294 N 
ATOM      7  C   UNL     1      13.184   9.324  21.841  0.00  0.00    +0.112 C 
ATOM      8  C   UNL     1      13.892   9.170  20.497  0.00  0.00    +0.133 C 
ATOM      9  C   UNL     1      12.738  10.746  22.170  0.00  0.00    +0.132 C 
ATOM     10  C   UNL     1      11.018   8.448  22.769  0.00  0.00    +0.128 C 
ATOM     11  C   UNL     1      10.617   9.880  23.113  0.00  0.00    +0.127 C 
ATOM     12  C   UNL     1      12.106   7.612  20.605  0.00  0.00    +0.306 C 
ATOM     14  C   UNL     1      11.948  11.449  24.495  0.00  0.00    +0.247 C 
ENDROOT
BRANCH  14  16
ATOM     16  C   UNL     1      13.156  12.267  24.662  0.00  0.00    +0.037 A 
ATOM     19  C   UNL     1      14.315  11.700  25.191  0.00  0.00    +0.013 A 
ATOM     20  C   UNL     1      13.145  13.611  24.290  0.00  0.00    +0.013 A 
ATOM     22  C   UNL     1      15.464  12.477  25.348  0.00  0.00    +0.001 A 
ATOM     23  C   UNL     1      14.292  14.388  24.447  0.00  0.00    +0.001 A 
ATOM     25  C   UNL     1      15.452  13.821  24.976  0.00  0.00    +0.000 A 
ENDBRANCH  14  16
BRANCH   4  13
ATOM     13  C   UNL     1      13.713   7.451  18.644  0.00  0.00    +0.146 C 
BRANCH  13  15
ATOM      6  N   UNL     1      13.550   9.358  15.381  0.00  0.00    -0.263 NA
ATOM     15  C   UNL     1      13.155   8.192  17.463  0.00  0.00    -0.012 A 
ATOM     17  C   UNL     1      11.788   8.407  17.332  0.00  0.00    +0.008 A 
ATOM     18  C   UNL     1      13.987   8.683  16.469  0.00  0.00    +0.115 A 
ATOM     21  C   UNL     1      11.301   9.097  16.227  0.00  0.00    +0.020 A 
ATOM     24  C   UNL     1      12.215   9.548  15.290  0.00  0.00    +0.111 A 
ENDBRANCH  13  15
ENDBRANCH   4  13
TORSDOF 3
ENDMDL
MODEL 4
REMARK VINA RESULT:      -6.4     19.289     20.953
REMARK  Name = 75368427
REMARK  3 active torsions:
REMARK  status: ('A' for Active; 'I' for Inactive)
REMARK    1  A    between atoms: N_4  and  C_13
REMARK    2  A    between atoms: C_13  and  C_15
REMARK    3  A    between atoms: C_14  and  C_16
REMARK                            x       y       z     vdW  Elec       q    Type
REMARK                         _______ _______ _______ _____ _____    ______ ____
ROOT
ATOM      1  O   UNL     1      -1.842 -11.932  14.863  0.00  0.00    -0.252 OA
ATOM      2  O   UNL     1      -6.378 -10.301  19.920  0.00  0.00    -0.270 OA
ATOM      3  N   UNL     1      -3.850 -11.279  15.894  0.00  0.00    -0.278 N 
ATOM      4  N   UNL     1      -3.898 -11.824  13.714  0.00  0.00    -0.279 N 
ATOM      5  N   UNL     1      -5.834 -11.214  17.840  0.00  0.00    -0.294 N 
ATOM      7  C   UNL     1      -5.211 -10.995  15.476  0.00  0.00    +0.112 C 
ATOM      8  C   UNL     1      -5.285 -11.568  14.063  0.00  0.00    +0.133 C 
ATOM      9  C   UNL     1      -6.203 -11.601  16.464  0.00  0.00    +0.132 C 
ATOM     10  C   UNL     1      -3.443 -11.014  17.264  0.00  0.00    +0.128 C 
ATOM     11  C   UNL     1      -4.470 -11.592  18.236  0.00  0.00    +0.127 C 
ATOM     12  C   UNL     1      -3.043 -11.704  14.828  0.00  0.00    +0.306 C 
ATOM     14  C   UNL     1      -6.672 -10.584  18.760  0.00  0.00    +0.247 C 
ENDROOT
BRANCH  14  16
ATOM     16  C   UNL     1      -8.024 -10.209  18.321  0.00  0.00    +0.037 A 
ATOM     19  C   UNL     1      -8.201  -9.136  17.449  0.00  0.00    +0.013 A 
ATOM     20  C   UNL     1      -9.128 -10.929  18.775  0.00  0.00    +0.013 A 
ATOM     22  C   UNL     1      -9.485  -8.781  17.031  0.00  0.00    +0.001 A 
ATOM     23  C   UNL     1     -10.411 -10.576  18.359  0.00  0.00    +0.001 A 
ATOM     25  C   UNL     1     -10.589  -9.501  17.486  0.00  0.00    +0.000 A 
ENDBRANCH  14  16
BRANCH   4  13
ATOM     13  C   UNL     1      -3.511 -12.278  12.398  0.00  0.00    +0.146 C 
BRANCH  13  15
ATOM      6  N   UNL     1      -4.833 -10.174   9.546  0.00  0.00    -0.263 NA
ATOM     15  C   UNL     1      -3.614 -11.184  11.374  0.00  0.00    -0.012 A 
ATOM     17  C   UNL     1      -2.643 -10.194  11.284  0.00  0.00    +0.008 A 
ATOM     18  C   UNL     1      -4.681 -11.130  10.491  0.00  0.00    +0.115 A 
ATOM     21  C   UNL     1      -2.765  -9.193  10.325  0.00  0.00    +0.020 A 
ATOM     24  C   UNL     1      -3.869  -9.229   9.489  0.00  0.00    +0.111 A 
ENDBRANCH  13  15
ENDBRANCH   4  13
TORSDOF 3
ENDMDL
MODEL 5
REMARK VINA RESULT:      -6.3     18.020     19.937
REMARK  Name = 75368427
REMARK  3 active torsions:
REMARK  status: ('A' for Active; 'I' for Inactive)
REMARK    1  A    between atoms: N_4  and  C_13
REMARK    2  A    between atoms: C_13  and  C_15
REMARK    3  A    between atoms: C_14  and  C_16
REMARK                            x       y       z     vdW  Elec       q    Type
REMARK                         _______ _______ _______ _____ _____    ______ ____
ROOT
ATOM      1  O   UNL     1      -3.755 -11.807  18.928  0.00  0.00    -0.252 OA
ATOM      2  O   UNL     1     -10.602 -10.418  19.036  0.00  0.00    -0.270 OA
ATOM      3  N   UNL     1      -5.818 -10.849  18.338  0.00  0.00    -0.278 N 
ATOM      4  N   UNL     1      -4.076 -10.575  16.944  0.00  0.00    -0.279 N 
ATOM      5  N   UNL     1      -8.564 -10.715  17.932  0.00  0.00    -0.294 N 
ATOM      7  C   UNL     1      -6.315  -9.963  17.300  0.00  0.00    +0.112 C 
ATOM      8  C   UNL     1      -5.200  -9.960  16.258  0.00  0.00    +0.133 C 
ATOM      9  C   UNL     1      -7.666 -10.456  16.790  0.00  0.00    +0.132 C 
ATOM     10  C   UNL     1      -6.682 -11.226  19.443  0.00  0.00    +0.128 C 
ATOM     11  C   UNL     1      -8.042 -11.675  18.914  0.00  0.00    +0.127 C 
ATOM     12  C   UNL     1      -4.460 -11.156  18.169  0.00  0.00    +0.306 C 
ATOM     14  C   UNL     1      -9.836 -10.168  18.106  0.00  0.00    +0.247 C 
ENDROOT
BRANCH  14  16
ATOM     16  C   UNL     1     -10.316  -9.201  17.111  0.00  0.00    +0.037 A 
ATOM     19  C   UNL     1     -10.073  -7.839  17.287  0.00  0.00    +0.013 A 
ATOM     20  C   UNL     1     -11.013  -9.645  15.988  0.00  0.00    +0.013 A 
ATOM     22  C   UNL     1     -10.528  -6.920  16.340  0.00  0.00    +0.001 A 
ATOM     23  C   UNL     1     -11.468  -8.728  15.041  0.00  0.00    +0.001 A 
ATOM     25  C   UNL     1     -11.225  -7.365  15.217  0.00  0.00    +0.000 A 
ENDBRANCH  14  16
BRANCH   4  13
ATOM     13  C   UNL     1      -2.768 -10.670  16.336  0.00  0.00    +0.146 C 
BRANCH  13  15
ATOM      6  N   UNL     1      -3.393 -13.262  13.653  0.00  0.00    -0.263 NA
ATOM     15  C   UNL     1      -2.823 -11.327  14.987  0.00  0.00    -0.012 A 
ATOM     17  C   UNL     1      -2.381 -10.663  13.848  0.00  0.00    +0.008 A 
ATOM     18  C   UNL     1      -3.316 -12.614  14.837  0.00  0.00    +0.115 A 
ATOM     21  C   UNL     1      -2.443 -11.297  12.612  0.00  0.00    +0.020 A 
ATOM     24  C   UNL     1      -2.953 -12.585  12.569  0.00  0.00    +0.111 A 
ENDBRANCH  13  15
ENDBRANCH   4  13
TORSDOF 3
ENDMDL
MODEL 6
REMARK VINA RESULT:      -6.1     16.554     18.718
REMARK  Name = 75368427
REMARK  3 active torsions:
REMARK  status: ('A' for Active; 'I' for Inactive)
REMARK    1  A    between atoms: N_4  and  C_13
REMARK    2  A    between atoms: C_13  and  C_15
REMARK    3  A    between atoms: C_14  and  C_16
REMARK                            x       y       z     vdW  Elec       q    Type
REMARK                         _______ _______ _______ _____ _____    ______ ____
ROOT
ATOM      1  O   UNL     1      -7.135 -12.029  20.088  0.00  0.00    -0.252 OA
ATOM      2  O   UNL     1     -13.140  -9.502  17.565  0.00  0.00    -0.270 OA
ATOM      3  N   UNL     1      -8.615 -10.650  18.893  0.00  0.00    -0.278 N 
ATOM      4  N   UNL     1      -6.415 -10.480  18.463  0.00  0.00    -0.279 N 
ATOM      5  N   UNL     1     -10.860  -9.982  17.397  0.00  0.00    -0.294 N 
ATOM      7  C   UNL     1      -8.510  -9.548  17.953  0.00  0.00    +0.112 C 
ATOM      8  C   UNL     1      -7.049  -9.585  17.511  0.00  0.00    +0.133 C 
ATOM      9  C   UNL     1      -9.524  -9.717  16.827  0.00  0.00    +0.132 C 
ATOM     10  C   UNL     1      -9.914 -11.030  19.419  0.00  0.00    +0.128 C 
ATOM     11  C   UNL     1     -10.925 -11.153  18.281  0.00  0.00    +0.127 C 
ATOM     12  C   UNL     1      -7.360 -11.161  19.256  0.00  0.00    +0.306 C 
ATOM     14  C   UNL     1     -12.019  -9.254  17.124  0.00  0.00    +0.247 C 
ENDROOT
BRANCH  14  16
ATOM     16  C   UNL     1     -11.909  -8.082  16.246  0.00  0.00    +0.037 A 
ATOM     19  C   UNL     1     -12.409  -8.136  14.945  0.00  0.00    +0.013 A 
ATOM     20  C   UNL     1     -11.309  -6.914  16.715  0.00  0.00    +0.013 A 
ATOM     22  C   UNL     1     -12.306  -7.021  14.111  0.00  0.00    +0.001 A 
ATOM     23  C   UNL     1     -11.206  -5.800  15.883  0.00  0.00    +0.001 A 
ATOM     25  C   UNL     1     -11.705  -5.853  14.580  0.00  0.00    +0.000 A 
ENDBRANCH  14  16
BRANCH   4  13
ATOM     13  C   UNL     1      -4.989 -10.710  18.464  0.00  0.00    +0.146 C 
BRANCH  13  15
ATOM      6  N   UNL     1      -4.576 -13.172  15.621  0.00  0.00    -0.263 NA
ATOM     15  C   UNL     1      -4.518 -11.318  17.174  0.00  0.00    -0.012 A 
ATOM     17  C   UNL     1      -3.625 -10.646  16.348  0.00  0.00    +0.008 A 
ATOM     18  C   UNL     1      -4.960 -12.568  16.769  0.00  0.00    +0.115 A 
ATOM     21  C   UNL     1      -3.206 -11.234  15.160  0.00  0.00    +0.020 A 
ATOM     24  C   UNL     1      -3.706 -12.487  14.846  0.00  0.00    +0.111 A 
ENDBRANCH  13  15
ENDBRANCH   4  13
TORSDOF 3
ENDMDL
MODEL 7
REMARK VINA RESULT:      -6.1     19.554     22.261
REMARK  Name = 75368427
REMARK  3 active torsions:
REMARK  status: ('A' for Active; 'I' for Inactive)
REMARK    1  A    between atoms: N_4  and  C_13
REMARK    2  A    between atoms: C_13  and  C_15
REMARK    3  A    between atoms: C_14  and  C_16
REMARK                            x       y       z     vdW  Elec       q    Type
REMARK                         _______ _______ _______ _____ _____    ______ ____
ROOT
ATOM      1  O   UNL     1      -5.708 -12.772  18.110  0.00  0.00    -0.252 OA
ATOM      2  O   UNL     1      -2.583 -13.355  11.888  0.00  0.00    -0.270 OA
ATOM      3  N   UNL     1      -5.052 -12.243  15.916  0.00  0.00    -0.278 N 
ATOM      4  N   UNL     1      -6.048 -10.647  17.146  0.00  0.00    -0.279 N 
ATOM      5  N   UNL     1      -3.385 -12.111  13.696  0.00  0.00    -0.294 N 
ATOM      7  C   UNL     1      -5.211 -11.124  15.004  0.00  0.00    +0.112 C 
ATOM      8  C   UNL     1      -5.688  -9.986  15.903  0.00  0.00    +0.133 C 
ATOM      9  C   UNL     1      -3.903 -10.853  14.269  0.00  0.00    +0.132 C 
ATOM     10  C   UNL     1      -4.457 -13.482  15.445  0.00  0.00    +0.128 C 
ATOM     11  C   UNL     1      -3.172 -13.186  14.676  0.00  0.00    +0.127 C 
ATOM     12  C   UNL     1      -5.617 -11.988  17.174  0.00  0.00    +0.306 C 
ATOM     14  C   UNL     1      -3.056 -12.320  12.357  0.00  0.00    +0.247 C 
ENDROOT
BRANCH  14  16
ATOM     16  C   UNL     1      -3.297 -11.226  11.406  0.00  0.00    +0.037 A 
ATOM     19  C   UNL     1      -2.353 -10.210  11.259  0.00  0.00    +0.013 A 
ATOM     20  C   UNL     1      -4.468 -11.205  10.650  0.00  0.00    +0.013 A 
ATOM     22  C   UNL     1      -2.582  -9.171  10.355  0.00  0.00    +0.001 A 
ATOM     23  C   UNL     1      -4.697 -10.168   9.746  0.00  0.00    +0.001 A 
ATOM     25  C   UNL     1      -3.754  -9.151   9.598  0.00  0.00    +0.000 A 
ENDBRANCH  14  16
BRANCH   4  13
ATOM     13  C   UNL     1      -6.655  -9.932  18.245  0.00  0.00    +0.146 C 
BRANCH  13  15
ATOM      6  N   UNL     1     -10.265 -10.938  18.756  0.00  0.00    -0.263 NA
ATOM     15  C   UNL     1      -8.154  -9.926  18.151  0.00  0.00    -0.012 A 
ATOM     17  C   UNL     1      -8.822  -8.958  17.411  0.00  0.00    +0.008 A 
ATOM     18  C   UNL     1      -8.915 -10.886  18.800  0.00  0.00    +0.115 A 
ATOM     21  C   UNL     1     -10.211  -8.979  17.341  0.00  0.00    +0.020 A 
ATOM     24  C   UNL     1     -10.879  -9.981  18.026  0.00  0.00    +0.111 A 
ENDBRANCH  13  15
ENDBRANCH   4  13
TORSDOF 3
ENDMDL
MODEL 8
REMARK VINA RESULT:      -6.0      7.400     13.642
REMARK  Name = 75368427
REMARK  3 active torsions:
REMARK  status: ('A' for Active; 'I' for Inactive)
REMARK    1  A    between atoms: N_4  and  C_13
REMARK    2  A    between atoms: C_13  and  C_15
REMARK    3  A    between atoms: C_14  and  C_16
REMARK                            x       y       z     vdW  Elec       q    Type
REMARK                         _______ _______ _______ _____ _____    ______ ____
ROOT
ATOM      1  O   UNL     1     -13.199   8.027  17.773  0.00  0.00    -0.252 OA
ATOM      2  O   UNL     1     -10.272  13.444  14.471  0.00  0.00    -0.270 OA
ATOM      3  N   UNL     1     -11.798   9.873  17.382  0.00  0.00    -0.278 N 
ATOM      4  N   UNL     1     -11.368   8.565  19.159  0.00  0.00    -0.279 N 
ATOM      5  N   UNL     1     -10.198  11.619  15.928  0.00  0.00    -0.294 N 
ATOM      7  C   UNL     1     -10.707  10.539  18.071  0.00  0.00    +0.112 C 
ATOM      8  C   UNL     1     -10.288   9.536  19.144  0.00  0.00    +0.133 C 
ATOM      9  C   UNL     1      -9.608  10.912  17.081  0.00  0.00    +0.132 C 
ATOM     10  C   UNL     1     -12.363  10.464  16.181  0.00  0.00    +0.128 C 
ATOM     11  C   UNL     1     -11.246  10.869  15.222  0.00  0.00    +0.127 C 
ATOM     12  C   UNL     1     -12.245   8.735  18.069  0.00  0.00    +0.306 C 
ATOM     14  C   UNL     1      -9.810  12.874  15.459  0.00  0.00    +0.247 C 
ENDROOT
BRANCH  14  16
ATOM     16  C   UNL     1      -8.769  13.599  16.200  0.00  0.00    +0.037 A 
ATOM     19  C   UNL     1      -9.125  14.598  17.106  0.00  0.00    +0.013 A 
ATOM     20  C   UNL     1      -7.426  13.286  15.999  0.00  0.00    +0.013 A 
ATOM     22  C   UNL     1      -8.136  15.285  17.811  0.00  0.00    +0.001 A 
ATOM     23  C   UNL     1      -6.436  13.971  16.704  0.00  0.00    +0.001 A 
ATOM     25  C   UNL     1      -6.792  14.971  17.610  0.00  0.00    +0.000 A 
ENDBRANCH  14  16
BRANCH   4  13
ATOM     13  C   UNL     1     -11.417   7.489  20.123  0.00  0.00    +0.146 C 
BRANCH  13  15
ATOM      6  N   UNL     1     -14.437   6.568  22.205  0.00  0.00    -0.263 NA
ATOM     15  C   UNL     1     -12.591   7.619  21.050  0.00  0.00    -0.012 A 
ATOM     17  C   UNL     1     -12.932   8.846  21.607  0.00  0.00    +0.008 A 
ATOM     18  C   UNL     1     -13.369   6.519  21.377  0.00  0.00    +0.115 A 
ATOM     21  C   UNL     1     -14.025   8.936  22.462  0.00  0.00    +0.020 A 
ATOM     24  C   UNL     1     -14.738   7.778  22.726  0.00  0.00    +0.111 A 
ENDBRANCH  13  15
ENDBRANCH   4  13
TORSDOF 3
ENDMDL
MODEL 9
REMARK VINA RESULT:      -5.9     17.246     19.251
REMARK  Name = 75368427
REMARK  3 active torsions:
REMARK  status: ('A' for Active; 'I' for Inactive)
REMARK    1  A    between atoms: N_4  and  C_13
REMARK    2  A    between atoms: C_13  and  C_15
REMARK    3  A    between atoms: C_14  and  C_16
REMARK                            x       y       z     vdW  Elec       q    Type
REMARK                         _______ _______ _______ _____ _____    ______ ____
ROOT
ATOM      1  O   UNL     1     -10.874 -10.918  19.015  0.00  0.00    -0.252 OA
ATOM      2  O   UNL     1      -3.942 -11.788  19.052  0.00  0.00    -0.270 OA
ATOM      3  N   UNL     1      -8.685 -11.196  18.208  0.00  0.00    -0.278 N 
ATOM      4  N   UNL     1     -10.287 -10.582  16.756  0.00  0.00    -0.279 N 
ATOM      5  N   UNL     1      -5.919 -10.933  18.146  0.00  0.00    -0.294 N 
ATOM      7  C   UNL     1      -8.025 -11.193  16.914  0.00  0.00    +0.112 C 
ATOM      8  C   UNL     1      -9.060 -10.572  15.979  0.00  0.00    +0.133 C 
ATOM      9  C   UNL     1      -6.703 -10.436  16.999  0.00  0.00    +0.132 C 
ATOM     10  C   UNL     1      -7.944 -11.580  19.397  0.00  0.00    +0.128 C 
ATOM     11  C   UNL     1      -6.607 -10.844  19.441  0.00  0.00    +0.127 C 
ATOM     12  C   UNL     1     -10.053 -10.904  18.108  0.00  0.00    +0.306 C 
ATOM     14  C   UNL     1      -4.611 -11.415  18.089  0.00  0.00    +0.247 C 
ENDROOT
BRANCH  14  16
ATOM     16  C   UNL     1      -3.962 -11.502  16.773  0.00  0.00    +0.037 A 
ATOM     19  C   UNL     1      -3.005 -10.557  16.404  0.00  0.00    +0.013 A 
ATOM     20  C   UNL     1      -4.302 -12.530  15.896  0.00  0.00    +0.013 A 
ATOM     22  C   UNL     1      -2.388 -10.641  15.155  0.00  0.00    +0.001 A 
ATOM     23  C   UNL     1      -3.686 -12.615  14.647  0.00  0.00    +0.001 A 
ATOM     25  C   UNL     1      -2.729 -11.670  14.277  0.00  0.00    +0.000 A 
ENDBRANCH  14  16
BRANCH   4  13
ATOM     13  C   UNL     1     -11.553 -10.171  16.193  0.00  0.00    +0.146 C 
BRANCH  13  15
ATOM      6  N   UNL     1     -11.940  -7.012  14.148  0.00  0.00    -0.263 NA
ATOM     15  C   UNL     1     -11.555  -8.716  15.820  0.00  0.00    -0.012 A 
ATOM     17  C   UNL     1     -11.194  -7.740  16.742  0.00  0.00    +0.008 A 
ATOM     18  C   UNL     1     -11.917  -8.304  14.547  0.00  0.00    +0.115 A 
ATOM     21  C   UNL     1     -11.204  -6.400  16.368  0.00  0.00    +0.020 A 
ATOM     24  C   UNL     1     -11.582  -6.092  15.071  0.00  0.00    +0.111 A 
ENDBRANCH  13  15
ENDBRANCH   4  13
TORSDOF 3
ENDMDL
MODEL 10
REMARK VINA RESULT:      -5.9     31.962     34.077
REMARK  Name = 75368427
REMARK  3 active torsions:
REMARK  status: ('A' for Active; 'I' for Inactive)
REMARK    1  A    between atoms: N_4  and  C_13
REMARK    2  A    between atoms: C_13  and  C_15
REMARK    3  A    between atoms: C_14  and  C_16
REMARK                            x       y       z     vdW  Elec       q    Type
REMARK                         _______ _______ _______ _____ _____    ______ ____
ROOT
ATOM      1  O   UNL     1      16.003  -9.388  28.257  0.00  0.00    -0.252 OA
ATOM      2  O   UNL     1      17.739  -6.171  22.302  0.00  0.00    -0.270 OA
ATOM      3  N   UNL     1      16.382  -7.649  26.722  0.00  0.00    -0.278 N 
ATOM      4  N   UNL     1      16.064  -7.115  28.882  0.00  0.00    -0.279 N 
ATOM      5  N   UNL     1      17.614  -6.293  24.632  0.00  0.00    -0.294 N 
ATOM      7  C   UNL     1      16.362  -6.197  26.741  0.00  0.00    +0.112 C 
ATOM      8  C   UNL     1      16.362  -5.852  28.228  0.00  0.00    +0.133 C 
ATOM      9  C   UNL     1      17.548  -5.644  25.956  0.00  0.00    +0.132 C 
ATOM     10  C   UNL     1      16.543  -8.354  25.462  0.00  0.00    +0.128 C 
ATOM     11  C   UNL     1      17.708  -7.759  24.674  0.00  0.00    +0.127 C 
ATOM     12  C   UNL     1      16.130  -8.201  27.986  0.00  0.00    +0.306 C 
ATOM     14  C   UNL     1      17.639  -5.632  23.404  0.00  0.00    +0.247 C 
ENDROOT
BRANCH  14  16
ATOM     16  C   UNL     1      17.529  -4.167  23.404  0.00  0.00    +0.037 A 
ATOM     19  C   UNL     1      18.643  -3.384  23.706  0.00  0.00    +0.013 A 
ATOM     20  C   UNL     1      16.312  -3.560  23.099  0.00  0.00    +0.013 A 
ATOM     22  C   UNL     1      18.539  -1.992  23.704  0.00  0.00    +0.001 A 
ATOM     23  C   UNL     1      16.207  -2.169  23.096  0.00  0.00    +0.001 A 
ATOM     25  C   UNL     1      17.321  -1.385  23.399  0.00  0.00    +0.000 A 
ENDBRANCH  14  16
BRANCH   4  13
ATOM     13  C   UNL     1      15.864  -7.209  30.310  0.00  0.00    +0.146 C 
BRANCH  13  15
ATOM      6  N   UNL     1      13.391  -4.937  32.051  0.00  0.00    -0.263 NA
ATOM     15  C   UNL     1      14.561  -6.595  30.735  0.00  0.00    -0.012 A 
ATOM     17  C   UNL     1      13.350  -7.073  30.247  0.00  0.00    +0.008 A 
ATOM     18  C   UNL     1      14.528  -5.534  31.627  0.00  0.00    +0.115 A 
ATOM     21  C   UNL     1      12.160  -6.484  30.660  0.00  0.00    +0.020 A 
ATOM     24  C   UNL     1      12.234  -5.430  31.555  0.00  0.00    +0.111 A 
ENDBRANCH  13  15
ENDBRANCH   4  13
TORSDOF 3
ENDMDL
