MODEL 1
REMARK VINA RESULT:      -6.0      0.000      0.000
REMARK  Name = 7663919
REMARK  8 active torsions:
REMARK  status: ('A' for Active; 'I' for Inactive)
REMARK    1  A    between atoms: O_4  and  C_30
REMARK    2  A    between atoms: O_4  and  C_31
REMARK    3  A    between atoms: N_9  and  C_28
REMARK    4  A    between atoms: C_10  and  C_16
REMARK    5  A    between atoms: C_11  and  C_25
REMARK    6  A    between atoms: C_18  and  C_22
REMARK    7  A    between atoms: C_28  and  C_29
REMARK    8  A    between atoms: C_28  and  C_30
REMARK                            x       y       z     vdW  Elec       q    Type
REMARK                         _______ _______ _______ _____ _____    ______ ____
ROOT
ATOM      1  O   UNL     1      -7.340 -10.110  18.545  0.00  0.00    -0.275 OA
ATOM      2  O   UNL     1     -11.916  -7.778  13.296  0.00  0.00    -0.275 OA
ATOM      6  N   UNL     1      -8.435  -9.462  16.596  0.00  0.00    -0.287 N 
ATOM      7  N   UNL     1     -10.567  -8.064  15.167  0.00  0.00    -0.298 N 
ATOM     11  C   UNL     1      -9.483  -8.745  17.326  0.00  0.00    +0.179 C 
ATOM     14  C   UNL     1     -10.144  -7.637  16.507  0.00  0.00    +0.139 C 
ATOM     15  C   UNL     1      -8.480  -9.401  15.130  0.00  0.00    +0.127 C 
ATOM     16  C   UNL     1      -7.389 -10.053  17.313  0.00  0.00    +0.219 C 
ATOM     17  C   UNL     1      -9.894  -9.228  14.594  0.00  0.00    +0.127 C 
ATOM     22  C   UNL     1     -11.560  -7.424  14.423  0.00  0.00    +0.219 C 
ENDROOT
BRANCH  22  18
ATOM      8  N   UNL     1     -14.910  -5.836  13.979  0.00  0.00    -0.316 NA
ATOM     18  C   UNL     1     -12.216  -6.237  15.069  0.00  0.00    +0.078 C 
ATOM     23  C   UNL     1     -12.532  -5.156  14.033  0.00  0.00    +0.028 C 
ATOM     24  C   UNL     1     -13.480  -6.657  15.824  0.00  0.00    +0.028 C 
ATOM     26  C   UNL     1     -13.738  -5.520  13.164  0.00  0.00    +0.081 C 
ATOM     27  C   UNL     1     -14.646  -6.958  14.880  0.00  0.00    +0.081 C 
ATOM     32  H   UNL     1     -15.692  -6.071  13.369  0.00  0.00    +0.122 HD
ENDBRANCH  22  18
BRANCH  16  10
ATOM     10  C   UNL     1      -6.279 -10.654  16.501  0.00  0.00    +0.075 C 
ATOM     12  C   UNL     1      -6.517 -12.154  16.310  0.00  0.00    +0.013 C 
ATOM     13  C   UNL     1      -4.914 -10.345  17.121  0.00  0.00    +0.013 C 
ATOM     19  C   UNL     1      -6.199 -12.973  17.560  0.00  0.00    +0.001 C 
ATOM     20  C   UNL     1      -4.601 -11.194  18.353  0.00  0.00    +0.001 C 
ATOM     21  C   UNL     1      -4.797 -12.681  18.083  0.00  0.00    +0.000 C 
ENDBRANCH  16  10
BRANCH  11  25
ATOM      3  O   UNL     1     -10.916 -10.631  17.011  0.00  0.00    -0.274 OA
ATOM      9  N   UNL     1     -10.845  -9.606  19.101  0.00  0.00    -0.301 N 
ATOM     25  C   UNL     1     -10.482  -9.772  17.775  0.00  0.00    +0.236 C 
ATOM     33  H   UNL     1     -10.443  -8.840  19.632  0.00  0.00    +0.150 HD
BRANCH   9  28
ATOM     28  C   UNL     1     -11.808 -10.451  19.769  0.00  0.00    +0.179 C 
ATOM     29  C   UNL     1     -12.575  -9.655  20.813  0.00  0.00    +0.040 C 
BRANCH  28  30
ATOM      5  O   UNL     1     -11.797 -12.599  20.872  0.00  0.00    -0.249 OA
ATOM     30  C   UNL     1     -11.151 -11.665  20.407  0.00  0.00    +0.327 C 
BRANCH  30   4
ATOM      4  O   UNL     1      -9.790 -11.587  20.387  0.00  0.00    -0.467 OA
ATOM     31  C   UNL     1      -9.106 -12.754  19.919  0.00  0.00    +0.280 C 
ENDBRANCH  30   4
ENDBRANCH  28  30
ENDBRANCH   9  28
ENDBRANCH  11  25
TORSDOF 6
ENDMDL
MODEL 2
REMARK VINA RESULT:      -6.0     29.132     31.800
REMARK  Name = 7663919
REMARK  8 active torsions:
REMARK  status: ('A' for Active; 'I' for Inactive)
REMARK    1  A    between atoms: O_4  and  C_30
REMARK    2  A    between atoms: O_4  and  C_31
REMARK    3  A    between atoms: N_9  and  C_28
REMARK    4  A    between atoms: C_10  and  C_16
REMARK    5  A    between atoms: C_11  and  C_25
REMARK    6  A    between atoms: C_18  and  C_22
REMARK    7  A    between atoms: C_28  and  C_29
REMARK    8  A    between atoms: C_28  and  C_30
REMARK                            x       y       z     vdW  Elec       q    Type
REMARK                         _______ _______ _______ _____ _____    ______ ____
ROOT
ATOM      1  O   UNL     1      12.165   6.531   4.963  0.00  0.00    -0.275 OA
ATOM      2  O   UNL     1      10.387   4.205  -1.771  0.00  0.00    -0.275 OA
ATOM      6  N   UNL     1      11.167   5.798   2.993  0.00  0.00    -0.287 N 
ATOM      7  N   UNL     1      11.258   4.537   0.358  0.00  0.00    -0.298 N 
ATOM     11  C   UNL     1      12.435   5.331   2.429  0.00  0.00    +0.179 C 
ATOM     14  C   UNL     1      12.265   4.230   1.383  0.00  0.00    +0.139 C 
ATOM     15  C   UNL     1       9.953   5.559   2.202  0.00  0.00    +0.127 C 
ATOM     16  C   UNL     1      11.152   6.326   4.289  0.00  0.00    +0.219 C 
ATOM     17  C   UNL     1      10.229   5.516   0.706  0.00  0.00    +0.127 C 
ATOM     22  C   UNL     1      11.232   3.951  -0.909  0.00  0.00    +0.219 C 
ENDROOT
BRANCH  22  18
ATOM      8  N   UNL     1      13.427   3.421  -3.883  0.00  0.00    -0.316 NA
ATOM     18  C   UNL     1      12.319   2.958  -1.206  0.00  0.00    +0.078 C 
ATOM     23  C   UNL     1      11.950   2.089  -2.411  0.00  0.00    +0.028 C 
ATOM     24  C   UNL     1      13.658   3.666  -1.432  0.00  0.00    +0.028 C 
ATOM     26  C   UNL     1      12.092   2.843  -3.735  0.00  0.00    +0.081 C 
ATOM     27  C   UNL     1      13.727   4.353  -2.797  0.00  0.00    +0.081 C 
ATOM     32  H   UNL     1      13.484   3.912  -4.774  0.00  0.00    +0.122 HD
ENDBRANCH  22  18
BRANCH  16  10
ATOM     10  C   UNL     1       9.804   6.660   4.859  0.00  0.00    +0.075 C 
ATOM     12  C   UNL     1       9.907   7.881   5.776  0.00  0.00    +0.013 C 
ATOM     13  C   UNL     1       9.186   5.446   5.556  0.00  0.00    +0.013 C 
ATOM     19  C   UNL     1      10.527   7.559   7.134  0.00  0.00    +0.001 C 
ATOM     20  C   UNL     1       9.798   5.156   6.926  0.00  0.00    +0.001 C 
ATOM     21  C   UNL     1       9.816   6.393   7.815  0.00  0.00    +0.000 C 
ENDBRANCH  16  10
BRANCH  11  25
ATOM      3  O   UNL     1      12.703   7.673   2.040  0.00  0.00    -0.274 OA
ATOM      9  N   UNL     1      14.242   6.193   1.112  0.00  0.00    -0.301 N 
ATOM     25  C   UNL     1      13.127   6.534   1.857  0.00  0.00    +0.236 C 
ATOM     33  H   UNL     1      14.485   5.213   1.003  0.00  0.00    +0.150 HD
BRANCH   9  28
ATOM     28  C   UNL     1      15.071   7.167   0.437  0.00  0.00    +0.179 C 
ATOM     29  C   UNL     1      14.440   7.570  -0.886  0.00  0.00    +0.040 C 
BRANCH  28  30
ATOM      5  O   UNL     1      17.480   7.336   0.430  0.00  0.00    -0.249 OA
ATOM     30  C   UNL     1      16.484   6.651   0.214  0.00  0.00    +0.327 C 
BRANCH  30   4
ATOM      4  O   UNL     1      16.501   5.364  -0.233  0.00  0.00    -0.467 OA
ATOM     31  C   UNL     1      17.212   5.138  -1.455  0.00  0.00    +0.280 C 
ENDBRANCH  30   4
ENDBRANCH  28  30
ENDBRANCH   9  28
ENDBRANCH  11  25
TORSDOF 6
ENDMDL
MODEL 3
REMARK VINA RESULT:      -5.9     28.905     31.577
REMARK  Name = 7663919
REMARK  8 active torsions:
REMARK  status: ('A' for Active; 'I' for Inactive)
REMARK    1  A    between atoms: O_4  and  C_30
REMARK    2  A    between atoms: O_4  and  C_31
REMARK    3  A    between atoms: N_9  and  C_28
REMARK    4  A    between atoms: C_10  and  C_16
REMARK    5  A    between atoms: C_11  and  C_25
REMARK    6  A    between atoms: C_18  and  C_22
REMARK    7  A    between atoms: C_28  and  C_29
REMARK    8  A    between atoms: C_28  and  C_30
REMARK                            x       y       z     vdW  Elec       q    Type
REMARK                         _______ _______ _______ _____ _____    ______ ____
ROOT
ATOM      1  O   UNL     1      12.006   6.563   5.365  0.00  0.00    -0.275 OA
ATOM      2  O   UNL     1      10.681   4.516  -1.562  0.00  0.00    -0.275 OA
ATOM      6  N   UNL     1      11.142   5.913   3.305  0.00  0.00    -0.287 N 
ATOM      7  N   UNL     1      11.408   4.760   0.632  0.00  0.00    -0.298 N 
ATOM     11  C   UNL     1      12.445   5.466   2.807  0.00  0.00    +0.179 C 
ATOM     14  C   UNL     1      12.345   4.409   1.708  0.00  0.00    +0.139 C 
ATOM     15  C   UNL     1       9.984   5.708   2.426  0.00  0.00    +0.127 C 
ATOM     16  C   UNL     1      11.041   6.387   4.617  0.00  0.00    +0.219 C 
ATOM     17  C   UNL     1      10.358   5.725   0.951  0.00  0.00    +0.127 C 
ATOM     22  C   UNL     1      11.467   4.226  -0.656  0.00  0.00    +0.219 C 
ENDROOT
BRANCH  22  18
ATOM      8  N   UNL     1      13.627   3.593  -3.636  0.00  0.00    -0.316 NA
ATOM     18  C   UNL     1      12.573   3.243  -0.921  0.00  0.00    +0.078 C 
ATOM     23  C   UNL     1      12.205   2.306  -2.074  0.00  0.00    +0.028 C 
ATOM     24  C   UNL     1      13.890   3.968  -1.205  0.00  0.00    +0.028 C 
ATOM     26  C   UNL     1      12.308   2.994  -3.436  0.00  0.00    +0.081 C 
ATOM     27  C   UNL     1      13.922   4.587  -2.604  0.00  0.00    +0.081 C 
ATOM     32  H   UNL     1      13.659   4.040  -4.552  0.00  0.00    +0.122 HD
ENDBRANCH  22  18
BRANCH  16  10
ATOM     10  C   UNL     1       9.658   6.701   5.109  0.00  0.00    +0.075 C 
ATOM     12  C   UNL     1       9.682   7.954   5.987  0.00  0.00    +0.013 C 
ATOM     13  C   UNL     1       9.040   5.493   5.818  0.00  0.00    +0.013 C 
ATOM     19  C   UNL     1      10.243   7.695   7.384  0.00  0.00    +0.001 C 
ATOM     20  C   UNL     1       9.592   5.266   7.225  0.00  0.00    +0.001 C 
ATOM     21  C   UNL     1       9.532   6.533   8.070  0.00  0.00    +0.000 C 
ENDBRANCH  16  10
BRANCH  11  25
ATOM      3  O   UNL     1      12.588   7.751   2.123  0.00  0.00    -0.274 OA
ATOM      9  N   UNL     1      14.525   6.459   2.149  0.00  0.00    -0.301 N 
ATOM     25  C   UNL     1      13.173   6.691   2.332  0.00  0.00    +0.236 C 
ATOM     33  H   UNL     1      14.897   5.531   2.327  0.00  0.00    +0.150 HD
BRANCH   9  28
ATOM     28  C   UNL     1      15.444   7.470   1.677  0.00  0.00    +0.179 C 
ATOM     29  C   UNL     1      16.379   6.885   0.630  0.00  0.00    +0.040 C 
BRANCH  28  30
ATOM      5  O   UNL     1      16.861   9.140   2.693  0.00  0.00    -0.249 OA
ATOM     30  C   UNL     1      16.242   8.087   2.814  0.00  0.00    +0.327 C 
BRANCH  30   4
ATOM      4  O   UNL     1      16.175   7.345   3.956  0.00  0.00    -0.467 OA
ATOM     31  C   UNL     1      15.828   8.062   5.145  0.00  0.00    +0.280 C 
ENDBRANCH  30   4
ENDBRANCH  28  30
ENDBRANCH   9  28
ENDBRANCH  11  25
TORSDOF 6
ENDMDL
MODEL 4
REMARK VINA RESULT:      -5.8      2.465      3.370
REMARK  Name = 7663919
REMARK  8 active torsions:
REMARK  status: ('A' for Active; 'I' for Inactive)
REMARK    1  A    between atoms: O_4  and  C_30
REMARK    2  A    between atoms: O_4  and  C_31
REMARK    3  A    between atoms: N_9  and  C_28
REMARK    4  A    between atoms: C_10  and  C_16
REMARK    5  A    between atoms: C_11  and  C_25
REMARK    6  A    between atoms: C_18  and  C_22
REMARK    7  A    between atoms: C_28  and  C_29
REMARK    8  A    between atoms: C_28  and  C_30
REMARK                            x       y       z     vdW  Elec       q    Type
REMARK                         _______ _______ _______ _____ _____    ______ ____
ROOT
ATOM      1  O   UNL     1      -3.939 -10.998  16.461  0.00  0.00    -0.275 OA
ATOM      2  O   UNL     1     -10.745  -9.146  14.417  0.00  0.00    -0.275 OA
ATOM      6  N   UNL     1      -5.899 -10.327  15.401  0.00  0.00    -0.287 N 
ATOM      7  N   UNL     1      -8.666  -9.387  15.428  0.00  0.00    -0.298 N 
ATOM     11  C   UNL     1      -6.614 -10.137  16.665  0.00  0.00    +0.179 C 
ATOM     14  C   UNL     1      -7.768  -9.141  16.565  0.00  0.00    +0.139 C 
ATOM     15  C   UNL     1      -6.615  -9.979  14.168  0.00  0.00    +0.127 C 
ATOM     16  C   UNL     1      -4.551 -10.703  15.431  0.00  0.00    +0.219 C 
ATOM     17  C   UNL     1      -8.122 -10.141  14.300  0.00  0.00    +0.127 C 
ATOM     22  C   UNL     1      -9.988  -8.943  15.370  0.00  0.00    +0.219 C 
ENDROOT
BRANCH  22  18
ATOM      8  N   UNL     1     -12.954  -6.736  15.897  0.00  0.00    -0.316 NA
ATOM     18  C   UNL     1     -10.488  -8.179  16.563  0.00  0.00    +0.078 C 
ATOM     23  C   UNL     1     -10.510  -6.675  16.278  0.00  0.00    +0.028 C 
ATOM     24  C   UNL     1     -11.873  -8.675  16.988  0.00  0.00    +0.028 C 
ATOM     26  C   UNL     1     -11.671  -6.275  15.366  0.00  0.00    +0.081 C 
ATOM     27  C   UNL     1     -12.976  -8.190  16.046  0.00  0.00    +0.081 C 
ATOM     32  H   UNL     1     -13.702  -6.450  15.266  0.00  0.00    +0.122 HD
ENDBRANCH  22  18
BRANCH  16  10
ATOM     10  C   UNL     1      -3.841 -10.750  14.109  0.00  0.00    +0.075 C 
ATOM     12  C   UNL     1      -4.111 -12.085  13.412  0.00  0.00    +0.013 C 
ATOM     13  C   UNL     1      -2.348 -10.461  14.278  0.00  0.00    +0.013 C 
ATOM     19  C   UNL     1      -3.315 -13.244  14.009  0.00  0.00    +0.001 C 
ATOM     20  C   UNL     1      -1.562 -11.641  14.849  0.00  0.00    +0.001 C 
ATOM     21  C   UNL     1      -1.825 -12.928  14.075  0.00  0.00    +0.000 C 
ENDBRANCH  16  10
BRANCH  11  25
ATOM      3  O   UNL     1      -6.600 -12.526  16.657  0.00  0.00    -0.274 OA
ATOM      9  N   UNL     1      -8.119 -11.412  18.026  0.00  0.00    -0.301 N 
ATOM     25  C   UNL     1      -7.088 -11.491  17.105  0.00  0.00    +0.236 C 
ATOM     33  H   UNL     1      -8.464 -10.499  18.306  0.00  0.00    +0.150 HD
BRANCH   9  28
ATOM     28  C   UNL     1      -8.766 -12.574  18.590  0.00  0.00    +0.179 C 
ATOM     29  C   UNL     1      -9.762 -13.157  17.599  0.00  0.00    +0.040 C 
BRANCH  28  30
ATOM      5  O   UNL     1      -9.935 -13.125  20.630  0.00  0.00    -0.249 OA
ATOM     30  C   UNL     1      -9.455 -12.256  19.908  0.00  0.00    +0.327 C 
BRANCH  30   4
ATOM      4  O   UNL     1      -9.461 -10.921  20.179  0.00  0.00    -0.467 OA
ATOM     31  C   UNL     1     -10.743 -10.284  20.147  0.00  0.00    +0.280 C 
ENDBRANCH  30   4
ENDBRANCH  28  30
ENDBRANCH   9  28
ENDBRANCH  11  25
TORSDOF 6
ENDMDL
MODEL 5
REMARK VINA RESULT:      -5.8     30.300     32.885
REMARK  Name = 7663919
REMARK  8 active torsions:
REMARK  status: ('A' for Active; 'I' for Inactive)
REMARK    1  A    between atoms: O_4  and  C_30
REMARK    2  A    between atoms: O_4  and  C_31
REMARK    3  A    between atoms: N_9  and  C_28
REMARK    4  A    between atoms: C_10  and  C_16
REMARK    5  A    between atoms: C_11  and  C_25
REMARK    6  A    between atoms: C_18  and  C_22
REMARK    7  A    between atoms: C_28  and  C_29
REMARK    8  A    between atoms: C_28  and  C_30
REMARK                            x       y       z     vdW  Elec       q    Type
REMARK                         _______ _______ _______ _____ _____    ______ ____
ROOT
ATOM      1  O   UNL     1      18.350   7.711   4.491  0.00  0.00    -0.275 OA
ATOM      2  O   UNL     1      11.318   8.985   6.180  0.00  0.00    -0.275 OA
ATOM      6  N   UNL     1      16.290   8.492   5.240  0.00  0.00    -0.287 N 
ATOM      7  N   UNL     1      13.458   8.133   5.868  0.00  0.00    -0.298 N 
ATOM     11  C   UNL     1      15.626   7.208   5.004  0.00  0.00    +0.179 C 
ATOM     14  C   UNL     1      14.388   6.996   5.874  0.00  0.00    +0.139 C 
ATOM     15  C   UNL     1      15.485   9.560   5.846  0.00  0.00    +0.127 C 
ATOM     16  C   UNL     1      17.664   8.602   4.999  0.00  0.00    +0.219 C 
ATOM     17  C   UNL     1      14.006   9.441   5.511  0.00  0.00    +0.127 C 
ATOM     22  C   UNL     1      12.102   8.032   6.183  0.00  0.00    +0.219 C 
ENDROOT
BRANCH  22  18
ATOM      8  N   UNL     1       8.682   6.533   6.257  0.00  0.00    -0.316 NA
ATOM     18  C   UNL     1      11.600   6.661   6.536  0.00  0.00    +0.078 C 
ATOM     23  C   UNL     1      10.655   6.718   7.739  0.00  0.00    +0.028 C 
ATOM     24  C   UNL     1      10.916   6.004   5.335  0.00  0.00    +0.028 C 
ATOM     26  C   UNL     1       9.278   7.274   7.368  0.00  0.00    +0.081 C 
ATOM     27  C   UNL     1       9.529   6.589   5.066  0.00  0.00    +0.081 C 
ATOM     32  H   UNL     1       7.768   6.929   6.041  0.00  0.00    +0.122 HD
ENDBRANCH  22  18
BRANCH  16  10
ATOM     10  C   UNL     1      18.308   9.901   5.388  0.00  0.00    +0.075 C 
ATOM     12  C   UNL     1      19.366  10.295   4.355  0.00  0.00    +0.013 C 
ATOM     13  C   UNL     1      18.866   9.833   6.812  0.00  0.00    +0.013 C 
ATOM     19  C   UNL     1      20.656   9.486   4.482  0.00  0.00    +0.001 C 
ATOM     20  C   UNL     1      20.172   9.045   6.915  0.00  0.00    +0.001 C 
ATOM     21  C   UNL     1      21.207   9.524   5.904  0.00  0.00    +0.000 C 
ENDBRANCH  16  10
BRANCH  11  25
ATOM      3  O   UNL     1      15.305   8.158   2.835  0.00  0.00    -0.274 OA
ATOM      9  N   UNL     1      14.954   5.875   3.129  0.00  0.00    -0.301 N 
ATOM     25  C   UNL     1      15.290   7.153   3.542  0.00  0.00    +0.236 C 
ATOM     33  H   UNL     1      14.947   5.120   3.808  0.00  0.00    +0.150 HD
BRANCH   9  28
ATOM     28  C   UNL     1      14.570   5.558   1.772  0.00  0.00    +0.179 C 
ATOM     29  C   UNL     1      13.060   5.650   1.616  0.00  0.00    +0.040 C 
BRANCH  28  30
ATOM      5  O   UNL     1      14.684   3.149   1.894  0.00  0.00    -0.249 OA
ATOM     30  C   UNL     1      15.061   4.182   1.350  0.00  0.00    +0.327 C 
BRANCH  30   4
ATOM      4  O   UNL     1      15.943   4.244   0.312  0.00  0.00    -0.467 OA
ATOM     31  C   UNL     1      15.367   4.194  -0.998  0.00  0.00    +0.280 C 
ENDBRANCH  30   4
ENDBRANCH  28  30
ENDBRANCH   9  28
ENDBRANCH  11  25
TORSDOF 6
ENDMDL
MODEL 6
REMARK VINA RESULT:      -5.8     27.797     30.354
REMARK  Name = 7663919
REMARK  8 active torsions:
REMARK  status: ('A' for Active; 'I' for Inactive)
REMARK    1  A    between atoms: O_4  and  C_30
REMARK    2  A    between atoms: O_4  and  C_31
REMARK    3  A    between atoms: N_9  and  C_28
REMARK    4  A    between atoms: C_10  and  C_16
REMARK    5  A    between atoms: C_11  and  C_25
REMARK    6  A    between atoms: C_18  and  C_22
REMARK    7  A    between atoms: C_28  and  C_29
REMARK    8  A    between atoms: C_28  and  C_30
REMARK                            x       y       z     vdW  Elec       q    Type
REMARK                         _______ _______ _______ _____ _____    ______ ____
ROOT
ATOM      1  O   UNL     1      10.735   5.700  -0.998  0.00  0.00    -0.275 OA
ATOM      2  O   UNL     1      11.718   6.369   6.248  0.00  0.00    -0.275 OA
ATOM      6  N   UNL     1      11.460   5.716   1.213  0.00  0.00    -0.287 N 
ATOM      7  N   UNL     1      10.987   5.906   4.091  0.00  0.00    -0.298 N 
ATOM     11  C   UNL     1      10.112   5.945   1.738  0.00  0.00    +0.179 C 
ATOM     14  C   UNL     1       9.929   5.458   3.175  0.00  0.00    +0.139 C 
ATOM     15  C   UNL     1      12.538   5.539   2.192  0.00  0.00    +0.127 C 
ATOM     16  C   UNL     1      11.634   5.553  -0.166  0.00  0.00    +0.219 C 
ATOM     17  C   UNL     1      12.271   6.275   3.498  0.00  0.00    +0.127 C 
ATOM     22  C   UNL     1      10.832   5.995   5.475  0.00  0.00    +0.219 C 
ENDROOT
BRANCH  22  18
ATOM      8  N   UNL     1       8.684   7.441   8.166  0.00  0.00    -0.316 NA
ATOM     18  C   UNL     1       9.487   5.607   6.022  0.00  0.00    +0.078 C 
ATOM     23  C   UNL     1       9.587   5.235   7.503  0.00  0.00    +0.028 C 
ATOM     24  C   UNL     1       8.467   6.727   5.807  0.00  0.00    +0.028 C 
ATOM     26  C   UNL     1       9.747   6.465   8.400  0.00  0.00    +0.081 C 
ATOM     27  C   UNL     1       8.674   7.894   6.775  0.00  0.00    +0.081 C 
ATOM     32  H   UNL     1       8.821   8.243   8.780  0.00  0.00    +0.122 HD
ENDBRANCH  22  18
BRANCH  16  10
ATOM     10  C   UNL     1      13.015   5.188  -0.626  0.00  0.00    +0.075 C 
ATOM     12  C   UNL     1      13.267   5.740  -2.031  0.00  0.00    +0.013 C 
ATOM     13  C   UNL     1      13.244   3.678  -0.533  0.00  0.00    +0.013 C 
ATOM     19  C   UNL     1      12.567   4.935  -3.124  0.00  0.00    +0.001 C 
ATOM     20  C   UNL     1      12.561   2.890  -1.651  0.00  0.00    +0.001 C 
ATOM     21  C   UNL     1      12.899   3.449  -3.028  0.00  0.00    +0.000 C 
ENDBRANCH  16  10
BRANCH  11  25
ATOM      3  O   UNL     1      10.641   8.181   1.082  0.00  0.00    -0.274 OA
ATOM      9  N   UNL     1       8.627   7.775   2.178  0.00  0.00    -0.301 N 
ATOM     25  C   UNL     1       9.839   7.416   1.614  0.00  0.00    +0.236 C 
ATOM     33  H   UNL     1       8.055   7.061   2.618  0.00  0.00    +0.150 HD
BRANCH   9  28
ATOM     28  C   UNL     1       8.141   9.135   2.209  0.00  0.00    +0.179 C 
ATOM     29  C   UNL     1       7.445   9.417   3.532  0.00  0.00    +0.040 C 
BRANCH  28  30
ATOM      5  O   UNL     1       5.986   9.458   1.169  0.00  0.00    -0.249 OA
ATOM     30  C   UNL     1       7.207   9.431   1.046  0.00  0.00    +0.327 C 
BRANCH  30   4
ATOM      4  O   UNL     1       7.884   9.665  -0.114  0.00  0.00    -0.467 OA
ATOM     31  C   UNL     1       8.595  10.905  -0.180  0.00  0.00    +0.280 C 
ENDBRANCH  30   4
ENDBRANCH  28  30
ENDBRANCH   9  28
ENDBRANCH  11  25
TORSDOF 6
ENDMDL
MODEL 7
REMARK VINA RESULT:      -5.8     16.559     19.356
REMARK  Name = 7663919
REMARK  8 active torsions:
REMARK  status: ('A' for Active; 'I' for Inactive)
REMARK    1  A    between atoms: O_4  and  C_30
REMARK    2  A    between atoms: O_4  and  C_31
REMARK    3  A    between atoms: N_9  and  C_28
REMARK    4  A    between atoms: C_10  and  C_16
REMARK    5  A    between atoms: C_11  and  C_25
REMARK    6  A    between atoms: C_18  and  C_22
REMARK    7  A    between atoms: C_28  and  C_29
REMARK    8  A    between atoms: C_28  and  C_30
REMARK                            x       y       z     vdW  Elec       q    Type
REMARK                         _______ _______ _______ _____ _____    ______ ____
ROOT
ATOM      1  O   UNL     1     -13.065   9.396  17.846  0.00  0.00    -0.275 OA
ATOM      2  O   UNL     1     -13.833   4.841  23.555  0.00  0.00    -0.275 OA
ATOM      6  N   UNL     1     -12.881   7.810  19.539  0.00  0.00    -0.287 N 
ATOM      7  N   UNL     1     -14.022   6.068  21.589  0.00  0.00    -0.298 N 
ATOM     11  C   UNL     1     -14.321   7.809  19.806  0.00  0.00    +0.179 C 
ATOM     14  C   UNL     1     -14.820   6.511  20.439  0.00  0.00    +0.139 C 
ATOM     15  C   UNL     1     -12.057   6.869  20.308  0.00  0.00    +0.127 C 
ATOM     16  C   UNL     1     -12.383   8.601  18.498  0.00  0.00    +0.219 C 
ATOM     17  C   UNL     1     -12.647   6.555  21.675  0.00  0.00    +0.127 C 
ATOM     22  C   UNL     1     -14.501   5.217  22.588  0.00  0.00    +0.219 C 
ENDROOT
BRANCH  22  18
ATOM      8  N   UNL     1     -17.369   5.089  24.975  0.00  0.00    -0.316 NA
ATOM     18  C   UNL     1     -15.923   4.755  22.445  0.00  0.00    +0.078 C 
ATOM     23  C   UNL     1     -16.214   3.584  23.387  0.00  0.00    +0.028 C 
ATOM     24  C   UNL     1     -16.898   5.909  22.689  0.00  0.00    +0.028 C 
ATOM     26  C   UNL     1     -16.365   4.034  24.841  0.00  0.00    +0.081 C 
ATOM     27  C   UNL     1     -17.020   6.261  24.173  0.00  0.00    +0.081 C 
ATOM     32  H   UNL     1     -17.443   5.361  25.955  0.00  0.00    +0.122 HD
ENDBRANCH  22  18
BRANCH  16  10
ATOM     10  C   UNL     1     -10.921   8.455  18.189  0.00  0.00    +0.075 C 
ATOM     12  C   UNL     1     -10.119   9.547  18.900  0.00  0.00    +0.013 C 
ATOM     13  C   UNL     1     -10.678   8.431  16.678  0.00  0.00    +0.013 C 
ATOM     19  C   UNL     1     -10.241  10.913  18.227  0.00  0.00    +0.001 C 
ATOM     20  C   UNL     1     -10.775   9.809  16.025  0.00  0.00    +0.001 C 
ATOM     21  C   UNL     1      -9.908  10.839  16.740  0.00  0.00    +0.000 C 
ENDBRANCH  16  10
BRANCH  11  25
ATOM      3  O   UNL     1     -15.702   9.170  21.203  0.00  0.00    -0.274 OA
ATOM      9  N   UNL     1     -13.508   9.836  20.796  0.00  0.00    -0.301 N 
ATOM     25  C   UNL     1     -14.603   8.995  20.683  0.00  0.00    +0.236 C 
ATOM     33  H   UNL     1     -12.654   9.607  20.297  0.00  0.00    +0.150 HD
BRANCH   9  28
ATOM     28  C   UNL     1     -13.527  11.058  21.566  0.00  0.00    +0.179 C 
ATOM     29  C   UNL     1     -12.887  12.190  20.776  0.00  0.00    +0.040 C 
BRANCH  28  30
ATOM      5  O   UNL     1     -11.755  11.421  23.167  0.00  0.00    -0.249 OA
ATOM     30  C   UNL     1     -12.833  10.893  22.910  0.00  0.00    +0.327 C 
BRANCH  30   4
ATOM      4  O   UNL     1     -13.549  10.114  23.769  0.00  0.00    -0.467 OA
ATOM     31  C   UNL     1     -14.766  10.684  24.260  0.00  0.00    +0.280 C 
ENDBRANCH  30   4
ENDBRANCH  28  30
ENDBRANCH   9  28
ENDBRANCH  11  25
TORSDOF 6
ENDMDL
MODEL 8
REMARK VINA RESULT:      -5.7     28.809     31.375
REMARK  Name = 7663919
REMARK  8 active torsions:
REMARK  status: ('A' for Active; 'I' for Inactive)
REMARK    1  A    between atoms: O_4  and  C_30
REMARK    2  A    between atoms: O_4  and  C_31
REMARK    3  A    between atoms: N_9  and  C_28
REMARK    4  A    between atoms: C_10  and  C_16
REMARK    5  A    between atoms: C_11  and  C_25
REMARK    6  A    between atoms: C_18  and  C_22
REMARK    7  A    between atoms: C_28  and  C_29
REMARK    8  A    between atoms: C_28  and  C_30
REMARK                            x       y       z     vdW  Elec       q    Type
REMARK                         _______ _______ _______ _____ _____    ______ ____
ROOT
ATOM      1  O   UNL     1      12.737   5.784  -0.999  0.00  0.00    -0.275 OA
ATOM      2  O   UNL     1      10.163   4.893   5.821  0.00  0.00    -0.275 OA
ATOM      6  N   UNL     1      11.633   5.196   0.964  0.00  0.00    -0.287 N 
ATOM      7  N   UNL     1      10.872   5.665   3.746  0.00  0.00    -0.298 N 
ATOM     11  C   UNL     1      12.132   6.365   1.691  0.00  0.00    +0.179 C 
ATOM     14  C   UNL     1      11.241   6.778   2.861  0.00  0.00    +0.139 C 
ATOM     15  C   UNL     1      10.704   4.311   1.676  0.00  0.00    +0.127 C 
ATOM     16  C   UNL     1      11.957   5.047  -0.389  0.00  0.00    +0.219 C 
ATOM     17  C   UNL     1      10.927   4.317   3.182  0.00  0.00    +0.127 C 
ATOM     22  C   UNL     1      10.476   5.825   5.075  0.00  0.00    +0.219 C 
ENDROOT
BRANCH  22  18
ATOM      8  N   UNL     1       8.668   7.427   7.923  0.00  0.00    -0.316 NA
ATOM     18  C   UNL     1      10.445   7.234   5.597  0.00  0.00    +0.078 C 
ATOM     23  C   UNL     1       9.033   7.818   5.508  0.00  0.00    +0.028 C 
ATOM     24  C   UNL     1      10.973   7.295   7.032  0.00  0.00    +0.028 C 
ATOM     26  C   UNL     1       8.104   7.256   6.585  0.00  0.00    +0.081 C 
ATOM     27  C   UNL     1       9.962   6.755   8.045  0.00  0.00    +0.081 C 
ATOM     32  H   UNL     1       8.023   7.044   8.613  0.00  0.00    +0.122 HD
ENDBRANCH  22  18
BRANCH  16  10
ATOM     10  C   UNL     1      11.305   3.903  -1.110  0.00  0.00    +0.075 C 
ATOM     12  C   UNL     1      12.367   2.924  -1.616  0.00  0.00    +0.013 C 
ATOM     13  C   UNL     1      10.387   4.408  -2.225  0.00  0.00    +0.013 C 
ATOM     19  C   UNL     1      13.107   3.430  -2.853  0.00  0.00    +0.001 C 
ATOM     20  C   UNL     1      11.142   4.883  -3.466  0.00  0.00    +0.001 C 
ATOM     21  C   UNL     1      12.140   3.842  -3.958  0.00  0.00    +0.000 C 
ENDBRANCH  16  10
BRANCH  11  25
ATOM      3  O   UNL     1      14.074   4.979   1.835  0.00  0.00    -0.274 OA
ATOM      9  N   UNL     1      14.064   7.025   2.948  0.00  0.00    -0.301 N 
ATOM     25  C   UNL     1      13.524   6.033   2.146  0.00  0.00    +0.236 C 
ATOM     33  H   UNL     1      13.506   7.845   3.165  0.00  0.00    +0.150 HD
BRANCH   9  28
ATOM     28  C   UNL     1      15.383   6.938   3.533  0.00  0.00    +0.179 C 
ATOM     29  C   UNL     1      15.342   7.365   4.992  0.00  0.00    +0.040 C 
BRANCH  28  30
ATOM      5  O   UNL     1      16.490   7.741   1.542  0.00  0.00    -0.249 OA
ATOM     30  C   UNL     1      16.399   7.770   2.766  0.00  0.00    +0.327 C 
BRANCH  30   4
ATOM      4  O   UNL     1      17.166   8.539   3.591  0.00  0.00    -0.467 OA
ATOM     31  C   UNL     1      18.576   8.494   3.351  0.00  0.00    +0.280 C 
ENDBRANCH  30   4
ENDBRANCH  28  30
ENDBRANCH   9  28
ENDBRANCH  11  25
TORSDOF 6
ENDMDL
MODEL 9
REMARK VINA RESULT:      -5.7     27.940     30.578
REMARK  Name = 7663919
REMARK  8 active torsions:
REMARK  status: ('A' for Active; 'I' for Inactive)
REMARK    1  A    between atoms: O_4  and  C_30
REMARK    2  A    between atoms: O_4  and  C_31
REMARK    3  A    between atoms: N_9  and  C_28
REMARK    4  A    between atoms: C_10  and  C_16
REMARK    5  A    between atoms: C_11  and  C_25
REMARK    6  A    between atoms: C_18  and  C_22
REMARK    7  A    between atoms: C_28  and  C_29
REMARK    8  A    between atoms: C_28  and  C_30
REMARK                            x       y       z     vdW  Elec       q    Type
REMARK                         _______ _______ _______ _____ _____    ______ ____
ROOT
ATOM      1  O   UNL     1       7.917   7.804   3.870  0.00  0.00    -0.275 OA
ATOM      2  O   UNL     1      14.226   6.529   0.334  0.00  0.00    -0.275 OA
ATOM      6  N   UNL     1       9.814   7.793   2.522  0.00  0.00    -0.287 N 
ATOM      7  N   UNL     1      12.111   6.465   1.296  0.00  0.00    -0.298 N 
ATOM     11  C   UNL     1      10.105   6.385   2.803  0.00  0.00    +0.179 C 
ATOM     14  C   UNL     1      10.924   5.704   1.708  0.00  0.00    +0.139 C 
ATOM     15  C   UNL     1      10.693   8.480   1.568  0.00  0.00    +0.127 C 
ATOM     16  C   UNL     1       8.663   8.372   3.067  0.00  0.00    +0.219 C 
ATOM     17  C   UNL     1      12.102   7.904   1.549  0.00  0.00    +0.127 C 
ATOM     22  C   UNL     1      13.228   5.893   0.683  0.00  0.00    +0.219 C 
ENDROOT
BRANCH  22  18
ATOM      8  N   UNL     1      15.802   3.203   0.967  0.00  0.00    -0.316 NA
ATOM     18  C   UNL     1      13.177   4.409   0.455  0.00  0.00    +0.078 C 
ATOM     23  C   UNL     1      14.127   3.997  -0.672  0.00  0.00    +0.028 C 
ATOM     24  C   UNL     1      13.496   3.648   1.745  0.00  0.00    +0.028 C 
ATOM     26  C   UNL     1      15.592   4.016  -0.231  0.00  0.00    +0.081 C 
ATOM     27  C   UNL     1      14.987   3.681   2.084  0.00  0.00    +0.081 C 
ATOM     32  H   UNL     1      16.787   3.238   1.229  0.00  0.00    +0.122 HD
ENDBRANCH  22  18
BRANCH  16  10
ATOM     10  C   UNL     1       8.351   9.774   2.633  0.00  0.00    +0.075 C 
ATOM     12  C   UNL     1       8.678  10.760   3.757  0.00  0.00    +0.013 C 
ATOM     13  C   UNL     1       6.905   9.890   2.145  0.00  0.00    +0.013 C 
ATOM     19  C   UNL     1       7.640  10.755   4.877  0.00  0.00    +0.001 C 
ATOM     20  C   UNL     1       5.882   9.914   3.280  0.00  0.00    +0.001 C 
ATOM     21  C   UNL     1       6.228  10.956   4.337  0.00  0.00    +0.000 C 
ENDBRANCH  16  10
BRANCH  11  25
ATOM      3  O   UNL     1      12.005   6.608   4.236  0.00  0.00    -0.274 OA
ATOM      9  N   UNL     1       9.969   5.953   5.157  0.00  0.00    -0.301 N 
ATOM     25  C   UNL     1      10.810   6.341   4.128  0.00  0.00    +0.236 C 
ATOM     33  H   UNL     1       9.002   5.728   4.948  0.00  0.00    +0.150 HD
BRANCH   9  28
ATOM     28  C   UNL     1      10.409   5.812   6.527  0.00  0.00    +0.179 C 
ATOM     29  C   UNL     1       9.793   4.570   7.153  0.00  0.00    +0.040 C 
BRANCH  28  30
ATOM      5  O   UNL     1       9.053   7.135   8.025  0.00  0.00    -0.249 OA
ATOM     30  C   UNL     1      10.080   7.042   7.358  0.00  0.00    +0.327 C 
BRANCH  30   4
ATOM      4  O   UNL     1      11.050   7.996   7.276  0.00  0.00    -0.467 OA
ATOM     31  C   UNL     1      10.665   9.224   6.650  0.00  0.00    +0.280 C 
ENDBRANCH  30   4
ENDBRANCH  28  30
ENDBRANCH   9  28
ENDBRANCH  11  25
TORSDOF 6
ENDMDL
MODEL 10
REMARK VINA RESULT:      -5.6      6.465      8.616
REMARK  Name = 7663919
REMARK  8 active torsions:
REMARK  status: ('A' for Active; 'I' for Inactive)
REMARK    1  A    between atoms: O_4  and  C_30
REMARK    2  A    between atoms: O_4  and  C_31
REMARK    3  A    between atoms: N_9  and  C_28
REMARK    4  A    between atoms: C_10  and  C_16
REMARK    5  A    between atoms: C_11  and  C_25
REMARK    6  A    between atoms: C_18  and  C_22
REMARK    7  A    between atoms: C_28  and  C_29
REMARK    8  A    between atoms: C_28  and  C_30
REMARK                            x       y       z     vdW  Elec       q    Type
REMARK                         _______ _______ _______ _____ _____    ______ ____
ROOT
ATOM      1  O   UNL     1      -1.415 -13.836  13.265  0.00  0.00    -0.275 OA
ATOM      2  O   UNL     1      -6.992 -11.181   9.295  0.00  0.00    -0.275 OA
ATOM      6  N   UNL     1      -3.285 -13.443  11.938  0.00  0.00    -0.287 N 
ATOM      7  N   UNL     1      -4.943 -11.735  10.242  0.00  0.00    -0.298 N 
ATOM     11  C   UNL     1      -2.917 -12.047  11.691  0.00  0.00    +0.179 C 
ATOM     14  C   UNL     1      -3.504 -11.484  10.398  0.00  0.00    +0.139 C 
ATOM     15  C   UNL     1      -4.485 -13.948  11.260  0.00  0.00    +0.127 C 
ATOM     16  C   UNL     1      -2.425 -14.250  12.691  0.00  0.00    +0.219 C 
ATOM     17  C   UNL     1      -5.509 -12.856  10.990  0.00  0.00    +0.127 C 
ATOM     22  C   UNL     1      -5.784 -10.972   9.429  0.00  0.00    +0.219 C 
ENDROOT
BRANCH  22  18
ATOM      8  N   UNL     1      -7.189  -8.090   7.516  0.00  0.00    -0.316 NA
ATOM     18  C   UNL     1      -5.142  -9.831   8.691  0.00  0.00    +0.078 C 
ATOM     23  C   UNL     1      -5.501  -9.872   7.204  0.00  0.00    +0.028 C 
ATOM     24  C   UNL     1      -5.536  -8.489   9.313  0.00  0.00    +0.028 C 
ATOM     26  C   UNL     1      -6.937  -9.411   6.942  0.00  0.00    +0.081 C 
ATOM     27  C   UNL     1      -6.970  -8.087   8.962  0.00  0.00    +0.081 C 
ATOM     32  H   UNL     1      -8.151  -7.816   7.320  0.00  0.00    +0.122 HD
ENDBRANCH  22  18
BRANCH  16  10
ATOM     10  C   UNL     1      -2.792 -15.702  12.794  0.00  0.00    +0.075 C 
ATOM     12  C   UNL     1      -3.758 -15.921  13.960  0.00  0.00    +0.013 C 
ATOM     13  C   UNL     1      -1.541 -16.579  12.887  0.00  0.00    +0.013 C 
ATOM     19  C   UNL     1      -3.068 -15.882  15.323  0.00  0.00    +0.001 C 
ATOM     20  C   UNL     1      -0.881 -16.551  14.266  0.00  0.00    +0.001 C 
ATOM     21  C   UNL     1      -1.880 -16.837  15.380  0.00  0.00    +0.000 C 
ENDBRANCH  16  10
BRANCH  11  25
ATOM      3  O   UNL     1      -4.423 -10.639  12.899  0.00  0.00    -0.274 OA
ATOM      9  N   UNL     1      -2.443 -11.311  13.922  0.00  0.00    -0.301 N 
ATOM     25  C   UNL     1      -3.363 -11.260  12.889  0.00  0.00    +0.236 C 
ATOM     33  H   UNL     1      -1.582 -11.834  13.794  0.00  0.00    +0.150 HD
BRANCH   9  28
ATOM     28  C   UNL     1      -2.625 -10.619  15.178  0.00  0.00    +0.179 C 
ATOM     29  C   UNL     1      -1.322 -10.598  15.963  0.00  0.00    +0.040 C 
BRANCH  28  30
ATOM      5  O   UNL     1      -3.976 -12.444  16.000  0.00  0.00    -0.249 OA
ATOM     30  C   UNL     1      -3.735 -11.241  16.012  0.00  0.00    +0.327 C 
BRANCH  30   4
ATOM      4  O   UNL     1      -4.399 -10.315  16.760  0.00  0.00    -0.467 OA
ATOM     31  C   UNL     1      -5.621  -9.823  16.200  0.00  0.00    +0.280 C 
ENDBRANCH  30   4
ENDBRANCH  28  30
ENDBRANCH   9  28
ENDBRANCH  11  25
TORSDOF 6
ENDMDL
