MODEL 1
REMARK VINA RESULT:      -6.1      0.000      0.000
REMARK  Name = 7134341
REMARK  14 active torsions:
REMARK  status: ('A' for Active; 'I' for Inactive)
REMARK    1  A    between atoms: S_1  and  C_24
REMARK    2  A    between atoms: S_1  and  C_30
REMARK    3  A    between atoms: O_6  and  C_33
REMARK    4  A    between atoms: N_9  and  C_14
REMARK    5  A    between atoms: N_10  and  C_21
REMARK    6  A    between atoms: C_15  and  C_19
REMARK    7  A    between atoms: C_20  and  C_24
REMARK    8  A    between atoms: C_21  and  C_22
REMARK    9  A    between atoms: C_21  and  C_26
REMARK   10  A    between atoms: C_22  and  C_23
REMARK   11  A    between atoms: C_23  and  C_27
REMARK   12  A    between atoms: C_23  and  C_28
REMARK   13  A    between atoms: C_25  and  C_29
REMARK   14  A    between atoms: C_30  and  C_33
REMARK                            x       y       z     vdW  Elec       q    Type
REMARK                         _______ _______ _______ _____ _____    ______ ____
ROOT
ATOM      3  O   UNL     1      13.460   8.407   2.081  0.00  0.00    -0.275 OA
ATOM      8  N   UNL     1      13.059   8.233   4.367  0.00  0.00    -0.289 N 
ATOM     14  C   UNL     1      12.415   9.561   6.885  0.00  0.00    +0.077 C 
ATOM     15  C   UNL     1      13.107   7.452   5.614  0.00  0.00    +0.164 C 
ATOM     16  C   UNL     1      13.308   8.318   6.860  0.00  0.00    +0.054 C 
ATOM     17  C   UNL     1      12.550  10.337   5.577  0.00  0.00    +0.041 C 
ATOM     18  C   UNL     1      12.234   9.447   4.383  0.00  0.00    +0.110 C 
ATOM     20  C   UNL     1      13.616   7.816   3.152  0.00  0.00    +0.226 C 
ENDROOT
BRANCH  15  19
ATOM      2  O   UNL     1      11.388   6.069   4.699  0.00  0.00    -0.274 OA
ATOM     10  N   UNL     1      11.254   6.699   6.935  0.00  0.00    -0.302 N 
ATOM     19  C   UNL     1      11.835   6.657   5.680  0.00  0.00    +0.234 C 
ATOM     36  H   UNL     1      11.773   7.111   7.706  0.00  0.00    +0.150 HD
BRANCH  10  21
ATOM     21  C   UNL     1      10.012   6.035   7.255  0.00  0.00    +0.159 C 
BRANCH  21  26
ATOM      5  O   UNL     1      10.512   5.383   9.544  0.00  0.00    -0.274 OA
ATOM     11  N   UNL     1      10.277   3.736   7.960  0.00  0.00    -0.328 N 
ATOM     26  C   UNL     1      10.310   5.049   8.378  0.00  0.00    +0.231 C 
ATOM     37  H   UNL     1      10.445   2.978   8.612  0.00  0.00    +0.145 HD
ATOM     38  H   UNL     1      10.086   3.474   6.998  0.00  0.00    +0.145 HD
ENDBRANCH  21  26
BRANCH  21  22
ATOM     22  C   UNL     1       8.919   7.019   7.688  0.00  0.00    +0.034 C 
BRANCH  22  23
ATOM     23  C   UNL     1       8.115   7.642   6.528  0.00  0.00    -0.015 C 
ATOM     27  C   UNL     1       8.733   8.947   6.024  0.00  0.00    +0.007 C 
ATOM     28  C   UNL     1       8.015   6.641   5.374  0.00  0.00    +0.007 C 
ENDBRANCH  22  23
ENDBRANCH  21  22
ENDBRANCH  10  21
ENDBRANCH  15  19
BRANCH  14   9
ATOM      4  O   UNL     1      10.574  11.087   8.474  0.00  0.00    -0.268 OA
ATOM      9  N   UNL     1      12.740  10.403   8.012  0.00  0.00    -0.307 N 
ATOM     25  C   UNL     1      11.776  11.105   8.720  0.00  0.00    +0.264 C 
ATOM     35  H   UNL     1      13.708  10.450   8.317  0.00  0.00    +0.149 HD
BRANCH  25  29
ATOM     12  N   UNL     1      13.421  12.624   9.617  0.00  0.00    -0.247 NA
ATOM     13  N   UNL     1      12.043  12.790  12.055  0.00  0.00    -0.259 NA
ATOM     29  C   UNL     1      12.276  11.948   9.837  0.00  0.00    +0.143 A 
ATOM     31  C   UNL     1      11.599  12.029  11.033  0.00  0.00    +0.143 A 
ATOM     32  C   UNL     1      13.865  13.385  10.637  0.00  0.00    +0.131 A 
ATOM     34  C   UNL     1      13.188  13.467  11.835  0.00  0.00    +0.130 A 
ENDBRANCH  25  29
ENDBRANCH  14   9
BRANCH  20  24
ATOM     24  C   UNL     1      14.467   6.571   3.187  0.00  0.00    +0.165 C 
BRANCH  24   1
ATOM      1  S   UNL     1      15.181   6.351   1.552  0.00  0.00    -0.140 S 
BRANCH   1  30
ATOM     30  C   UNL     1      14.027   5.116   0.904  0.00  0.00    +0.189 C 
BRANCH  30  33
ATOM      7  O   UNL     1      13.504   2.935   1.785  0.00  0.00    -0.250 OA
ATOM     33  C   UNL     1      14.347   3.774   1.495  0.00  0.00    +0.315 C 
BRANCH  33   6
ATOM      6  O   UNL     1      15.679   3.580   1.663  0.00  0.00    -0.480 OA
ATOM     39  H   UNL     1      16.176   3.705   0.827  0.00  0.00    +0.295 HD
ENDBRANCH  33   6
ENDBRANCH  30  33
ENDBRANCH   1  30
ENDBRANCH  24   1
ENDBRANCH  20  24
TORSDOF 12
ENDMDL
MODEL 2
REMARK VINA RESULT:      -5.9     24.853     27.452
REMARK  Name = 7134341
REMARK  14 active torsions:
REMARK  status: ('A' for Active; 'I' for Inactive)
REMARK    1  A    between atoms: S_1  and  C_24
REMARK    2  A    between atoms: S_1  and  C_30
REMARK    3  A    between atoms: O_6  and  C_33
REMARK    4  A    between atoms: N_9  and  C_14
REMARK    5  A    between atoms: N_10  and  C_21
REMARK    6  A    between atoms: C_15  and  C_19
REMARK    7  A    between atoms: C_20  and  C_24
REMARK    8  A    between atoms: C_21  and  C_22
REMARK    9  A    between atoms: C_21  and  C_26
REMARK   10  A    between atoms: C_22  and  C_23
REMARK   11  A    between atoms: C_23  and  C_27
REMARK   12  A    between atoms: C_23  and  C_28
REMARK   13  A    between atoms: C_25  and  C_29
REMARK   14  A    between atoms: C_30  and  C_33
REMARK                            x       y       z     vdW  Elec       q    Type
REMARK                         _______ _______ _______ _____ _____    ______ ____
ROOT
ATOM      3  O   UNL     1      -5.965 -12.915   9.670  0.00  0.00    -0.275 OA
ATOM      8  N   UNL     1      -6.049 -11.484  11.504  0.00  0.00    -0.289 N 
ATOM     14  C   UNL     1      -7.662 -10.105  13.508  0.00  0.00    +0.077 C 
ATOM     15  C   UNL     1      -5.399 -10.496  12.381  0.00  0.00    +0.164 C 
ATOM     16  C   UNL     1      -6.377  -9.474  12.966  0.00  0.00    +0.054 C 
ATOM     17  C   UNL     1      -8.291 -11.015  12.456  0.00  0.00    +0.041 C 
ATOM     18  C   UNL     1      -7.300 -12.075  11.993  0.00  0.00    +0.110 C 
ATOM     20  C   UNL     1      -5.480 -11.992  10.330  0.00  0.00    +0.226 C 
ENDROOT
BRANCH  15  19
ATOM      2  O   UNL     1      -4.623 -12.494  13.435  0.00  0.00    -0.274 OA
ATOM     10  N   UNL     1      -4.149 -10.442  14.426  0.00  0.00    -0.302 N 
ATOM     19  C   UNL     1      -4.684 -11.268  13.452  0.00  0.00    +0.234 C 
ATOM     36  H   UNL     1      -4.150  -9.437  14.276  0.00  0.00    +0.150 HD
BRANCH  10  21
ATOM     21  C   UNL     1      -3.431 -10.939  15.577  0.00  0.00    +0.159 C 
BRANCH  21  26
ATOM      5  O   UNL     1      -1.530 -10.011  14.377  0.00  0.00    -0.274 OA
ATOM     11  N   UNL     1      -1.182 -10.901  16.466  0.00  0.00    -0.328 N 
ATOM     26  C   UNL     1      -1.965 -10.576  15.379  0.00  0.00    +0.231 C 
ATOM     37  H   UNL     1      -0.188 -10.701  16.469  0.00  0.00    +0.145 HD
ATOM     38  H   UNL     1      -1.559 -11.347  17.296  0.00  0.00    +0.145 HD
ENDBRANCH  21  26
BRANCH  21  22
ATOM     22  C   UNL     1      -3.954 -10.343  16.890  0.00  0.00    +0.034 C 
BRANCH  22  23
ATOM     23  C   UNL     1      -5.262 -10.973  17.410  0.00  0.00    -0.015 C 
ATOM     27  C   UNL     1      -5.217 -11.255  18.912  0.00  0.00    +0.007 C 
ATOM     28  C   UNL     1      -6.440 -10.048  17.095  0.00  0.00    +0.007 C 
ENDBRANCH  22  23
ENDBRANCH  21  22
ENDBRANCH  10  21
ENDBRANCH  15  19
BRANCH  14   9
ATOM      4  O   UNL     1      -9.649 -10.340  15.568  0.00  0.00    -0.268 OA
ATOM      9  N   UNL     1      -8.597  -9.087  13.925  0.00  0.00    -0.307 N 
ATOM     25  C   UNL     1      -9.525  -9.296  14.934  0.00  0.00    +0.264 C 
ATOM     35  H   UNL     1      -8.544  -8.173  13.485  0.00  0.00    +0.149 HD
BRANCH  25  29
ATOM     12  N   UNL     1     -11.432  -7.940  14.346  0.00  0.00    -0.247 NA
ATOM     13  N   UNL     1     -11.078  -6.331  16.617  0.00  0.00    -0.259 NA
ATOM     29  C   UNL     1     -10.434  -8.158  15.226  0.00  0.00    +0.143 A 
ATOM     31  C   UNL     1     -10.260  -7.368  16.341  0.00  0.00    +0.143 A 
ATOM     32  C   UNL     1     -12.249  -6.905  14.621  0.00  0.00    +0.131 A 
ATOM     34  C   UNL     1     -12.076  -6.115  15.736  0.00  0.00    +0.130 A 
ENDBRANCH  25  29
ENDBRANCH  14   9
BRANCH  20  24
ATOM     24  C   UNL     1      -4.201 -11.346   9.859  0.00  0.00    +0.165 C 
BRANCH  24   1
ATOM      1  S   UNL     1      -4.592 -10.350   8.414  0.00  0.00    -0.140 S 
BRANCH   1  30
ATOM     30  C   UNL     1      -5.076  -8.819   9.250  0.00  0.00    +0.189 C 
BRANCH  30  33
ATOM      7  O   UNL     1      -7.391  -8.589   9.880  0.00  0.00    -0.250 OA
ATOM     33  C   UNL     1      -6.534  -8.557   9.006  0.00  0.00    +0.315 C 
BRANCH  33   6
ATOM      6  O   UNL     1      -6.804  -8.262   7.709  0.00  0.00    -0.480 OA
ATOM     39  H   UNL     1      -7.718  -7.927   7.593  0.00  0.00    +0.295 HD
ENDBRANCH  33   6
ENDBRANCH  30  33
ENDBRANCH   1  30
ENDBRANCH  24   1
ENDBRANCH  20  24
TORSDOF 12
ENDMDL
MODEL 3
REMARK VINA RESULT:      -5.8      2.475      3.368
REMARK  Name = 7134341
REMARK  14 active torsions:
REMARK  status: ('A' for Active; 'I' for Inactive)
REMARK    1  A    between atoms: S_1  and  C_24
REMARK    2  A    between atoms: S_1  and  C_30
REMARK    3  A    between atoms: O_6  and  C_33
REMARK    4  A    between atoms: N_9  and  C_14
REMARK    5  A    between atoms: N_10  and  C_21
REMARK    6  A    between atoms: C_15  and  C_19
REMARK    7  A    between atoms: C_20  and  C_24
REMARK    8  A    between atoms: C_21  and  C_22
REMARK    9  A    between atoms: C_21  and  C_26
REMARK   10  A    between atoms: C_22  and  C_23
REMARK   11  A    between atoms: C_23  and  C_27
REMARK   12  A    between atoms: C_23  and  C_28
REMARK   13  A    between atoms: C_25  and  C_29
REMARK   14  A    between atoms: C_30  and  C_33
REMARK                            x       y       z     vdW  Elec       q    Type
REMARK                         _______ _______ _______ _____ _____    ______ ____
ROOT
ATOM      3  O   UNL     1       9.918   5.635   0.432  0.00  0.00    -0.275 OA
ATOM      8  N   UNL     1      10.866   6.199   2.482  0.00  0.00    -0.289 N 
ATOM     14  C   UNL     1      11.757   8.287   4.317  0.00  0.00    +0.077 C 
ATOM     15  C   UNL     1      11.597   5.809   3.699  0.00  0.00    +0.164 C 
ATOM     16  C   UNL     1      12.470   6.933   4.263  0.00  0.00    +0.054 C 
ATOM     17  C   UNL     1      11.144   8.617   2.959  0.00  0.00    +0.041 C 
ATOM     18  C   UNL     1      10.204   7.509   2.504  0.00  0.00    +0.110 C 
ATOM     20  C   UNL     1      10.642   5.352   1.390  0.00  0.00    +0.226 C 
ENDROOT
BRANCH  15  19
ATOM      2  O   UNL     1       9.703   4.528   4.389  0.00  0.00    -0.274 OA
ATOM     10  N   UNL     1      10.725   5.943   5.928  0.00  0.00    -0.302 N 
ATOM     19  C   UNL     1      10.572   5.340   4.691  0.00  0.00    +0.234 C 
ATOM     36  H   UNL     1      11.554   6.504   6.105  0.00  0.00    +0.150 HD
BRANCH  10  21
ATOM     21  C   UNL     1       9.853   5.679   7.049  0.00  0.00    +0.159 C 
BRANCH  21  26
ATOM      5  O   UNL     1      10.320   5.265   9.400  0.00  0.00    -0.274 OA
ATOM     11  N   UNL     1      12.063   5.846   8.020  0.00  0.00    -0.328 N 
ATOM     26  C   UNL     1      10.735   5.585   8.288  0.00  0.00    +0.231 C 
ATOM     37  H   UNL     1      12.760   5.804   8.756  0.00  0.00    +0.145 HD
ATOM     38  H   UNL     1      12.395   6.086   7.092  0.00  0.00    +0.145 HD
ENDBRANCH  21  26
BRANCH  21  22
ATOM     22  C   UNL     1       8.794   6.774   7.233  0.00  0.00    +0.034 C 
BRANCH  22  23
ATOM     23  C   UNL     1       9.231   8.179   6.771  0.00  0.00    -0.015 C 
ATOM     27  C   UNL     1       8.261   8.786   5.756  0.00  0.00    +0.007 C 
ATOM     28  C   UNL     1       9.353   9.105   7.984  0.00  0.00    +0.007 C 
ENDBRANCH  22  23
ENDBRANCH  21  22
ENDBRANCH  10  21
ENDBRANCH  15  19
BRANCH  14   9
ATOM      4  O   UNL     1      12.746   8.743   6.973  0.00  0.00    -0.268 OA
ATOM      9  N   UNL     1      12.666   9.328   4.732  0.00  0.00    -0.307 N 
ATOM     25  C   UNL     1      13.089   9.470   6.045  0.00  0.00    +0.264 C 
ATOM     35  H   UNL     1      13.037   9.957   4.024  0.00  0.00    +0.149 HD
BRANCH  25  29
ATOM     12  N   UNL     1      13.604  11.496   7.248  0.00  0.00    -0.247 NA
ATOM     13  N   UNL     1      16.035  11.776   5.875  0.00  0.00    -0.259 NA
ATOM     29  C   UNL     1      14.003  10.608   6.314  0.00  0.00    +0.143 A 
ATOM     31  C   UNL     1      15.197  10.746   5.640  0.00  0.00    +0.143 A 
ATOM     32  C   UNL     1      14.442  12.525   7.483  0.00  0.00    +0.131 A 
ATOM     34  C   UNL     1      15.636  12.663   6.810  0.00  0.00    +0.130 A 
ENDBRANCH  25  29
ENDBRANCH  14   9
BRANCH  20  24
ATOM     24  C   UNL     1      11.353   4.022   1.405  0.00  0.00    +0.165 C 
BRANCH  24   1
ATOM      1  S   UNL     1      12.683   4.098   0.197  0.00  0.00    -0.140 S 
BRANCH   1  30
ATOM     30  C   UNL     1      13.994   4.748   1.263  0.00  0.00    +0.189 C 
BRANCH  30  33
ATOM      7  O   UNL     1      15.937   3.853   0.152  0.00  0.00    -0.250 OA
ATOM     33  C   UNL     1      15.213   3.881   1.140  0.00  0.00    +0.315 C 
BRANCH  33   6
ATOM      6  O   UNL     1      15.441   3.137   2.251  0.00  0.00    -0.480 OA
ATOM     39  H   UNL     1      16.195   2.520   2.131  0.00  0.00    +0.295 HD
ENDBRANCH  33   6
ENDBRANCH  30  33
ENDBRANCH   1  30
ENDBRANCH  24   1
ENDBRANCH  20  24
TORSDOF 12
ENDMDL
MODEL 4
REMARK VINA RESULT:      -5.7     24.404     26.472
REMARK  Name = 7134341
REMARK  14 active torsions:
REMARK  status: ('A' for Active; 'I' for Inactive)
REMARK    1  A    between atoms: S_1  and  C_24
REMARK    2  A    between atoms: S_1  and  C_30
REMARK    3  A    between atoms: O_6  and  C_33
REMARK    4  A    between atoms: N_9  and  C_14
REMARK    5  A    between atoms: N_10  and  C_21
REMARK    6  A    between atoms: C_15  and  C_19
REMARK    7  A    between atoms: C_20  and  C_24
REMARK    8  A    between atoms: C_21  and  C_22
REMARK    9  A    between atoms: C_21  and  C_26
REMARK   10  A    between atoms: C_22  and  C_23
REMARK   11  A    between atoms: C_23  and  C_27
REMARK   12  A    between atoms: C_23  and  C_28
REMARK   13  A    between atoms: C_25  and  C_29
REMARK   14  A    between atoms: C_30  and  C_33
REMARK                            x       y       z     vdW  Elec       q    Type
REMARK                         _______ _______ _______ _____ _____    ______ ____
ROOT
ATOM      3  O   UNL     1      -1.557 -10.539  11.715  0.00  0.00    -0.275 OA
ATOM      8  N   UNL     1      -3.667 -10.581  10.733  0.00  0.00    -0.289 N 
ATOM     14  C   UNL     1      -5.872  -9.104   9.518  0.00  0.00    +0.077 C 
ATOM     15  C   UNL     1      -4.917 -11.295  10.428  0.00  0.00    +0.164 C 
ATOM     16  C   UNL     1      -6.133 -10.371  10.337  0.00  0.00    +0.054 C 
ATOM     17  C   UNL     1      -4.611  -8.402  10.015  0.00  0.00    +0.041 C 
ATOM     18  C   UNL     1      -3.416  -9.345   9.981  0.00  0.00    +0.110 C 
ATOM     20  C   UNL     1      -2.657 -11.076  11.566  0.00  0.00    +0.226 C 
ENDROOT
BRANCH  15  19
ATOM      2  O   UNL     1      -3.753 -12.838   9.024  0.00  0.00    -0.274 OA
ATOM     10  N   UNL     1      -5.617 -11.731   8.177  0.00  0.00    -0.302 N 
ATOM     19  C   UNL     1      -4.687 -12.051   9.151  0.00  0.00    +0.234 C 
ATOM     36  H   UNL     1      -6.420 -11.162   8.429  0.00  0.00    +0.150 HD
BRANCH  10  21
ATOM     21  C   UNL     1      -5.602 -12.304   6.851  0.00  0.00    +0.159 C 
BRANCH  21  26
ATOM      5  O   UNL     1      -7.394 -12.875   5.310  0.00  0.00    -0.274 OA
ATOM     11  N   UNL     1      -7.947 -11.988   7.355  0.00  0.00    -0.328 N 
ATOM     26  C   UNL     1      -7.052 -12.414   6.397  0.00  0.00    +0.231 C 
ATOM     37  H   UNL     1      -8.946 -12.021   7.185  0.00  0.00    +0.145 HD
ATOM     38  H   UNL     1      -7.651 -11.631   8.258  0.00  0.00    +0.145 HD
ENDBRANCH  21  26
BRANCH  21  22
ATOM     22  C   UNL     1      -4.797 -11.455   5.859  0.00  0.00    +0.034 C 
BRANCH  22  23
ATOM     23  C   UNL     1      -3.748 -12.237   5.043  0.00  0.00    -0.015 C 
ATOM     27  C   UNL     1      -3.437 -13.605   5.651  0.00  0.00    +0.007 C 
ATOM     28  C   UNL     1      -4.241 -12.413   3.604  0.00  0.00    +0.007 C 
ENDBRANCH  22  23
ENDBRANCH  21  22
ENDBRANCH  10  21
ENDBRANCH  15  19
BRANCH  14   9
ATOM      4  O   UNL     1      -8.048  -8.972   7.649  0.00  0.00    -0.268 OA
ATOM      9  N   UNL     1      -7.006  -8.213   9.576  0.00  0.00    -0.307 N 
ATOM     25  C   UNL     1      -8.012  -8.223   8.621  0.00  0.00    +0.264 C 
ATOM     35  H   UNL     1      -7.085  -7.581  10.368  0.00  0.00    +0.149 HD
BRANCH  25  29
ATOM     12  N   UNL     1      -8.829  -5.963   8.420  0.00  0.00    -0.247 NA
ATOM     13  N   UNL     1     -11.303  -6.683   9.530  0.00  0.00    -0.259 NA
ATOM     29  C   UNL     1      -9.097  -7.226   8.809  0.00  0.00    +0.143 A 
ATOM     31  C   UNL     1     -10.311  -7.580   9.354  0.00  0.00    +0.143 A 
ATOM     32  C   UNL     1      -9.820  -5.067   8.596  0.00  0.00    +0.131 A 
ATOM     34  C   UNL     1     -11.036  -5.420   9.140  0.00  0.00    +0.130 A 
ENDBRANCH  25  29
ENDBRANCH  14   9
BRANCH  20  24
ATOM     24  C   UNL     1      -2.965 -12.341  12.329  0.00  0.00    +0.165 C 
BRANCH  24   1
ATOM      1  S   UNL     1      -1.779 -12.471  13.674  0.00  0.00    -0.140 S 
BRANCH   1  30
ATOM     30  C   UNL     1      -2.625 -11.438  14.896  0.00  0.00    +0.189 C 
BRANCH  30  33
ATOM      7  O   UNL     1      -1.021  -9.660  15.165  0.00  0.00    -0.250 OA
ATOM     33  C   UNL     1      -1.614 -10.619  15.643  0.00  0.00    +0.315 C 
BRANCH  33   6
ATOM      6  O   UNL     1      -1.434 -11.044  16.919  0.00  0.00    -0.480 OA
ATOM     39  H   UNL     1      -1.940 -11.863  17.107  0.00  0.00    +0.295 HD
ENDBRANCH  33   6
ENDBRANCH  30  33
ENDBRANCH   1  30
ENDBRANCH  24   1
ENDBRANCH  20  24
TORSDOF 12
ENDMDL
MODEL 5
REMARK VINA RESULT:      -5.7      4.098      9.454
REMARK  Name = 7134341
REMARK  14 active torsions:
REMARK  status: ('A' for Active; 'I' for Inactive)
REMARK    1  A    between atoms: S_1  and  C_24
REMARK    2  A    between atoms: S_1  and  C_30
REMARK    3  A    between atoms: O_6  and  C_33
REMARK    4  A    between atoms: N_9  and  C_14
REMARK    5  A    between atoms: N_10  and  C_21
REMARK    6  A    between atoms: C_15  and  C_19
REMARK    7  A    between atoms: C_20  and  C_24
REMARK    8  A    between atoms: C_21  and  C_22
REMARK    9  A    between atoms: C_21  and  C_26
REMARK   10  A    between atoms: C_22  and  C_23
REMARK   11  A    between atoms: C_23  and  C_27
REMARK   12  A    between atoms: C_23  and  C_28
REMARK   13  A    between atoms: C_25  and  C_29
REMARK   14  A    between atoms: C_30  and  C_33
REMARK                            x       y       z     vdW  Elec       q    Type
REMARK                         _______ _______ _______ _____ _____    ______ ____
ROOT
ATOM      3  O   UNL     1       8.025   8.555   5.105  0.00  0.00    -0.275 OA
ATOM      8  N   UNL     1       9.500   7.068   4.091  0.00  0.00    -0.289 N 
ATOM     14  C   UNL     1      10.669   6.015   1.631  0.00  0.00    +0.077 C 
ATOM     15  C   UNL     1      10.375   5.886   4.169  0.00  0.00    +0.164 C 
ATOM     16  C   UNL     1      10.463   5.113   2.851  0.00  0.00    +0.054 C 
ATOM     17  C   UNL     1       9.625   7.129   1.614  0.00  0.00    +0.041 C 
ATOM     18  C   UNL     1       9.660   7.926   2.911  0.00  0.00    +0.110 C 
ATOM     20  C   UNL     1       8.654   7.494   5.121  0.00  0.00    +0.226 C 
ENDROOT
BRANCH  15  19
ATOM      2  O   UNL     1      11.946   6.621   5.811  0.00  0.00    -0.274 OA
ATOM     10  N   UNL     1      12.615   6.505   3.585  0.00  0.00    -0.302 N 
ATOM     19  C   UNL     1      11.719   6.369   4.631  0.00  0.00    +0.234 C 
ATOM     36  H   UNL     1      12.361   6.149   2.667  0.00  0.00    +0.150 HD
BRANCH  10  21
ATOM     21  C   UNL     1      13.970   6.974   3.759  0.00  0.00    +0.159 C 
BRANCH  21  26
ATOM      5  O   UNL     1      15.271   7.318   1.733  0.00  0.00    -0.274 OA
ATOM     11  N   UNL     1      14.876   5.166   2.433  0.00  0.00    -0.328 N 
ATOM     26  C   UNL     1      14.756   6.536   2.531  0.00  0.00    +0.231 C 
ATOM     37  H   UNL     1      15.389   4.741   1.667  0.00  0.00    +0.145 HD
ATOM     38  H   UNL     1      14.466   4.532   3.112  0.00  0.00    +0.145 HD
ENDBRANCH  21  26
BRANCH  21  22
ATOM     22  C   UNL     1      14.042   8.498   3.921  0.00  0.00    +0.034 C 
BRANCH  22  23
ATOM     23  C   UNL     1      14.702   8.978   5.229  0.00  0.00    -0.015 C 
ATOM     27  C   UNL     1      13.729   9.744   6.126  0.00  0.00    +0.007 C 
ATOM     28  C   UNL     1      15.270   7.777   5.991  0.00  0.00    +0.007 C 
ENDBRANCH  22  23
ENDBRANCH  21  22
ENDBRANCH  10  21
ENDBRANCH  15  19
BRANCH  14   9
ATOM      4  O   UNL     1      12.903   5.005   0.138  0.00  0.00    -0.268 OA
ATOM      9  N   UNL     1      10.613   5.247   0.411  0.00  0.00    -0.307 N 
ATOM     25  C   UNL     1      11.753   4.801  -0.242  0.00  0.00    +0.264 C 
ATOM     35  H   UNL     1       9.702   4.994   0.039  0.00  0.00    +0.149 HD
BRANCH  25  29
ATOM     12  N   UNL     1      10.344   4.239  -2.117  0.00  0.00    -0.247 NA
ATOM     13  N   UNL     1      12.289   2.501  -3.149  0.00  0.00    -0.259 NA
ATOM     29  C   UNL     1      11.527   4.046  -1.501  0.00  0.00    +0.143 A 
ATOM     31  C   UNL     1      12.482   3.193  -2.007  0.00  0.00    +0.143 A 
ATOM     32  C   UNL     1      10.150   3.549  -3.258  0.00  0.00    +0.131 A 
ATOM     34  C   UNL     1      11.106   2.695  -3.766  0.00  0.00    +0.130 A 
ENDBRANCH  25  29
ENDBRANCH  14   9
BRANCH  20  24
ATOM     24  C   UNL     1       8.511   6.574   6.307  0.00  0.00    +0.165 C 
BRANCH  24   1
ATOM      1  S   UNL     1       9.288   7.374   7.717  0.00  0.00    -0.140 S 
BRANCH   1  30
ATOM     30  C   UNL     1       8.966   6.109   8.972  0.00  0.00    +0.189 C 
BRANCH  30  33
ATOM      7  O   UNL     1      10.035   4.026   9.542  0.00  0.00    -0.250 OA
ATOM     33  C   UNL     1      10.082   5.106   8.966  0.00  0.00    +0.315 C 
BRANCH  33   6
ATOM      6  O   UNL     1      11.151   5.515   8.237  0.00  0.00    -0.480 OA
ATOM     39  H   UNL     1      11.356   6.462   8.388  0.00  0.00    +0.295 HD
ENDBRANCH  33   6
ENDBRANCH  30  33
ENDBRANCH   1  30
ENDBRANCH  24   1
ENDBRANCH  20  24
TORSDOF 12
ENDMDL
MODEL 6
REMARK VINA RESULT:      -5.7      4.056      9.314
REMARK  Name = 7134341
REMARK  14 active torsions:
REMARK  status: ('A' for Active; 'I' for Inactive)
REMARK    1  A    between atoms: S_1  and  C_24
REMARK    2  A    between atoms: S_1  and  C_30
REMARK    3  A    between atoms: O_6  and  C_33
REMARK    4  A    between atoms: N_9  and  C_14
REMARK    5  A    between atoms: N_10  and  C_21
REMARK    6  A    between atoms: C_15  and  C_19
REMARK    7  A    between atoms: C_20  and  C_24
REMARK    8  A    between atoms: C_21  and  C_22
REMARK    9  A    between atoms: C_21  and  C_26
REMARK   10  A    between atoms: C_22  and  C_23
REMARK   11  A    between atoms: C_23  and  C_27
REMARK   12  A    between atoms: C_23  and  C_28
REMARK   13  A    between atoms: C_25  and  C_29
REMARK   14  A    between atoms: C_30  and  C_33
REMARK                            x       y       z     vdW  Elec       q    Type
REMARK                         _______ _______ _______ _____ _____    ______ ____
ROOT
ATOM      3  O   UNL     1       7.504   8.003   4.445  0.00  0.00    -0.275 OA
ATOM      8  N   UNL     1       9.534   7.162   3.677  0.00  0.00    -0.289 N 
ATOM     14  C   UNL     1      11.269   6.540   1.413  0.00  0.00    +0.077 C 
ATOM     15  C   UNL     1      10.780   6.417   3.921  0.00  0.00    +0.164 C 
ATOM     16  C   UNL     1      11.296   5.683   2.681  0.00  0.00    +0.054 C 
ATOM     17  C   UNL     1       9.887   7.160   1.221  0.00  0.00    +0.041 C 
ATOM     18  C   UNL     1       9.478   7.964   2.448  0.00  0.00    +0.110 C 
ATOM     20  C   UNL     1       8.485   7.271   4.597  0.00  0.00    +0.226 C 
ENDROOT
BRANCH  15  19
ATOM      2  O   UNL     1      11.454   8.534   4.797  0.00  0.00    -0.274 OA
ATOM     10  N   UNL     1      13.066   6.889   4.465  0.00  0.00    -0.302 N 
ATOM     19  C   UNL     1      11.781   7.403   4.449  0.00  0.00    +0.234 C 
ATOM     36  H   UNL     1      13.205   5.900   4.274  0.00  0.00    +0.150 HD
BRANCH  10  21
ATOM     21  C   UNL     1      14.215   7.644   4.908  0.00  0.00    +0.159 C 
BRANCH  21  26
ATOM      5  O   UNL     1      14.316   6.679   7.137  0.00  0.00    -0.274 OA
ATOM     11  N   UNL     1      14.000   8.945   6.936  0.00  0.00    -0.328 N 
ATOM     26  C   UNL     1      14.170   7.674   6.430  0.00  0.00    +0.231 C 
ATOM     37  H   UNL     1      13.967   9.107   7.936  0.00  0.00    +0.145 HD
ATOM     38  H   UNL     1      13.904   9.761   6.339  0.00  0.00    +0.145 HD
ENDBRANCH  21  26
BRANCH  21  22
ATOM     22  C   UNL     1      15.536   7.030   4.427  0.00  0.00    +0.034 C 
BRANCH  22  23
ATOM     23  C   UNL     1      16.427   7.981   3.602  0.00  0.00    -0.015 C 
ATOM     27  C   UNL     1      15.759   9.332   3.346  0.00  0.00    +0.007 C 
ATOM     28  C   UNL     1      17.761   8.194   4.324  0.00  0.00    +0.007 C 
ENDBRANCH  22  23
ENDBRANCH  21  22
ENDBRANCH  10  21
ENDBRANCH  15  19
BRANCH  14   9
ATOM      4  O   UNL     1       9.895   4.239   0.384  0.00  0.00    -0.268 OA
ATOM      9  N   UNL     1      11.641   5.759   0.258  0.00  0.00    -0.307 N 
ATOM     25  C   UNL     1      10.911   4.658  -0.163  0.00  0.00    +0.264 C 
ATOM     35  H   UNL     1      12.448   6.053  -0.286  0.00  0.00    +0.149 HD
BRANCH  25  29
ATOM     12  N   UNL     1      10.591   3.106  -1.983  0.00  0.00    -0.247 NA
ATOM     13  N   UNL     1      13.226   3.489  -2.866  0.00  0.00    -0.259 NA
ATOM     29  C   UNL     1      11.440   3.944  -1.354  0.00  0.00    +0.143 A 
ATOM     31  C   UNL     1      12.734   4.132  -1.788  0.00  0.00    +0.143 A 
ATOM     32  C   UNL     1      11.082   2.464  -3.061  0.00  0.00    +0.131 A 
ATOM     34  C   UNL     1      12.376   2.652  -3.496  0.00  0.00    +0.130 A 
ENDBRANCH  25  29
ENDBRANCH  14   9
BRANCH  20  24
ATOM     24  C   UNL     1       8.580   6.419   5.839  0.00  0.00    +0.165 C 
BRANCH  24   1
ATOM      1  S   UNL     1       9.113   7.479   7.190  0.00  0.00    -0.140 S 
BRANCH   1  30
ATOM     30  C   UNL     1       9.195   6.239   8.505  0.00  0.00    +0.189 C 
BRANCH  30  33
ATOM      7  O   UNL     1       9.904   3.990   8.006  0.00  0.00    -0.250 OA
ATOM     33  C   UNL     1      10.185   5.176   8.127  0.00  0.00    +0.315 C 
BRANCH  33   6
ATOM      6  O   UNL     1      11.431   5.671   7.915  0.00  0.00    -0.480 OA
ATOM     39  H   UNL     1      12.084   4.959   7.744  0.00  0.00    +0.295 HD
ENDBRANCH  33   6
ENDBRANCH  30  33
ENDBRANCH   1  30
ENDBRANCH  24   1
ENDBRANCH  20  24
TORSDOF 12
ENDMDL
MODEL 7
REMARK VINA RESULT:      -5.6      5.075     10.393
REMARK  Name = 7134341
REMARK  14 active torsions:
REMARK  status: ('A' for Active; 'I' for Inactive)
REMARK    1  A    between atoms: S_1  and  C_24
REMARK    2  A    between atoms: S_1  and  C_30
REMARK    3  A    between atoms: O_6  and  C_33
REMARK    4  A    between atoms: N_9  and  C_14
REMARK    5  A    between atoms: N_10  and  C_21
REMARK    6  A    between atoms: C_15  and  C_19
REMARK    7  A    between atoms: C_20  and  C_24
REMARK    8  A    between atoms: C_21  and  C_22
REMARK    9  A    between atoms: C_21  and  C_26
REMARK   10  A    between atoms: C_22  and  C_23
REMARK   11  A    between atoms: C_23  and  C_27
REMARK   12  A    between atoms: C_23  and  C_28
REMARK   13  A    between atoms: C_25  and  C_29
REMARK   14  A    between atoms: C_30  and  C_33
REMARK                            x       y       z     vdW  Elec       q    Type
REMARK                         _______ _______ _______ _____ _____    ______ ____
ROOT
ATOM      3  O   UNL     1       8.635   7.679   4.363  0.00  0.00    -0.275 OA
ATOM      8  N   UNL     1       9.886   6.302   2.964  0.00  0.00    -0.289 N 
ATOM     14  C   UNL     1      10.502   5.418   0.251  0.00  0.00    +0.077 C 
ATOM     15  C   UNL     1      10.787   5.153   2.779  0.00  0.00    +0.164 C 
ATOM     16  C   UNL     1      10.599   4.450   1.433  0.00  0.00    +0.054 C 
ATOM     17  C   UNL     1       9.451   6.490   0.529  0.00  0.00    +0.041 C 
ATOM     18  C   UNL     1       9.754   7.223   1.829  0.00  0.00    +0.110 C 
ATOM     20  C   UNL     1       9.280   6.644   4.179  0.00  0.00    +0.226 C 
ENDROOT
BRANCH  15  19
ATOM      2  O   UNL     1      12.458   6.537   3.778  0.00  0.00    -0.274 OA
ATOM     10  N   UNL     1      13.081   5.060   2.090  0.00  0.00    -0.302 N 
ATOM     19  C   UNL     1      12.187   5.665   2.957  0.00  0.00    +0.234 C 
ATOM     36  H   UNL     1      12.773   4.262   1.541  0.00  0.00    +0.150 HD
BRANCH  10  21
ATOM     21  C   UNL     1      14.486   5.391   2.045  0.00  0.00    +0.159 C 
BRANCH  21  26
ATOM      5  O   UNL     1      15.613   4.069   0.343  0.00  0.00    -0.274 OA
ATOM     11  N   UNL     1      15.431   3.204   2.463  0.00  0.00    -0.328 N 
ATOM     26  C   UNL     1      15.216   4.169   1.502  0.00  0.00    +0.231 C 
ATOM     37  H   UNL     1      15.919   2.344   2.237  0.00  0.00    +0.145 HD
ATOM     38  H   UNL     1      15.117   3.310   3.423  0.00  0.00    +0.145 HD
ENDBRANCH  21  26
BRANCH  21  22
ATOM     22  C   UNL     1      14.768   6.614   1.162  0.00  0.00    +0.034 C 
BRANCH  22  23
ATOM     23  C   UNL     1      13.737   6.852   0.041  0.00  0.00    -0.015 C 
ATOM     27  C   UNL     1      12.973   8.165   0.220  0.00  0.00    +0.007 C 
ATOM     28  C   UNL     1      14.444   6.850  -1.318  0.00  0.00    +0.007 C 
ENDBRANCH  22  23
ENDBRANCH  21  22
ENDBRANCH  10  21
ENDBRANCH  15  19
BRANCH  14   9
ATOM      4  O   UNL     1      11.215   6.206  -2.416  0.00  0.00    -0.268 OA
ATOM      9  N   UNL     1      10.196   4.710  -0.969  0.00  0.00    -0.307 N 
ATOM     25  C   UNL     1      10.584   5.172  -2.217  0.00  0.00    +0.264 C 
ATOM     35  H   UNL     1       9.710   3.819  -0.902  0.00  0.00    +0.149 HD
BRANCH  25  29
ATOM     12  N   UNL     1       9.792   3.074  -3.107  0.00  0.00    -0.247 NA
ATOM     13  N   UNL     1       9.796   4.099  -5.718  0.00  0.00    -0.259 NA
ATOM     29  C   UNL     1      10.168   4.341  -3.376  0.00  0.00    +0.143 A 
ATOM     31  C   UNL     1      10.170   4.844  -4.658  0.00  0.00    +0.143 A 
ATOM     32  C   UNL     1       9.418   2.330  -4.166  0.00  0.00    +0.131 A 
ATOM     34  C   UNL     1       9.419   2.833  -5.449  0.00  0.00    +0.130 A 
ENDBRANCH  25  29
ENDBRANCH  14   9
BRANCH  20  24
ATOM     24  C   UNL     1       9.431   5.661   5.313  0.00  0.00    +0.165 C 
BRANCH  24   1
ATOM      1  S   UNL     1      10.386   6.464   6.608  0.00  0.00    -0.140 S 
BRANCH   1  30
ATOM     30  C   UNL     1       9.354   6.029   8.030  0.00  0.00    +0.189 C 
BRANCH  30  33
ATOM      7  O   UNL     1      10.174   5.040  10.069  0.00  0.00    -0.250 OA
ATOM     33  C   UNL     1      10.050   4.984   8.852  0.00  0.00    +0.315 C 
BRANCH  33   6
ATOM      6  O   UNL     1      10.517   3.953   8.103  0.00  0.00    -0.480 OA
ATOM     39  H   UNL     1      11.462   3.766   8.287  0.00  0.00    +0.295 HD
ENDBRANCH  33   6
ENDBRANCH  30  33
ENDBRANCH   1  30
ENDBRANCH  24   1
ENDBRANCH  20  24
TORSDOF 12
ENDMDL
MODEL 8
REMARK VINA RESULT:      -5.6      4.734      8.400
REMARK  Name = 7134341
REMARK  14 active torsions:
REMARK  status: ('A' for Active; 'I' for Inactive)
REMARK    1  A    between atoms: S_1  and  C_24
REMARK    2  A    between atoms: S_1  and  C_30
REMARK    3  A    between atoms: O_6  and  C_33
REMARK    4  A    between atoms: N_9  and  C_14
REMARK    5  A    between atoms: N_10  and  C_21
REMARK    6  A    between atoms: C_15  and  C_19
REMARK    7  A    between atoms: C_20  and  C_24
REMARK    8  A    between atoms: C_21  and  C_22
REMARK    9  A    between atoms: C_21  and  C_26
REMARK   10  A    between atoms: C_22  and  C_23
REMARK   11  A    between atoms: C_23  and  C_27
REMARK   12  A    between atoms: C_23  and  C_28
REMARK   13  A    between atoms: C_25  and  C_29
REMARK   14  A    between atoms: C_30  and  C_33
REMARK                            x       y       z     vdW  Elec       q    Type
REMARK                         _______ _______ _______ _____ _____    ______ ____
ROOT
ATOM      3  O   UNL     1      11.427   8.954   7.388  0.00  0.00    -0.275 OA
ATOM      8  N   UNL     1      10.175   8.281   5.544  0.00  0.00    -0.289 N 
ATOM     14  C   UNL     1       8.260   8.977   3.454  0.00  0.00    +0.077 C 
ATOM     15  C   UNL     1       9.631   7.209   4.695  0.00  0.00    +0.164 C 
ATOM     16  C   UNL     1       8.287   7.570   4.056  0.00  0.00    +0.054 C 
ATOM     17  C   UNL     1       8.741  10.002   4.478  0.00  0.00    +0.041 C 
ATOM     18  C   UNL     1      10.127   9.642   4.996  0.00  0.00    +0.110 C 
ATOM     20  C   UNL     1      10.857   8.067   6.748  0.00  0.00    +0.226 C 
ENDROOT
BRANCH  15  19
ATOM      2  O   UNL     1      11.699   7.567   3.555  0.00  0.00    -0.274 OA
ATOM     10  N   UNL     1      10.333   5.806   2.884  0.00  0.00    -0.302 N 
ATOM     19  C   UNL     1      10.677   6.894   3.666  0.00  0.00    +0.234 C 
ATOM     36  H   UNL     1       9.525   5.246   3.143  0.00  0.00    +0.150 HD
BRANCH  10  21
ATOM     21  C   UNL     1      11.160   5.312   1.807  0.00  0.00    +0.159 C 
BRANCH  21  26
ATOM      5  O   UNL     1      11.181   3.117   2.851  0.00  0.00    -0.274 OA
ATOM     11  N   UNL     1      13.146   3.943   1.995  0.00  0.00    -0.328 N 
ATOM     26  C   UNL     1      11.801   4.019   2.293  0.00  0.00    +0.231 C 
ATOM     37  H   UNL     1      13.690   3.127   2.252  0.00  0.00    +0.145 HD
ATOM     38  H   UNL     1      13.640   4.687   1.513  0.00  0.00    +0.145 HD
ENDBRANCH  21  26
BRANCH  21  22
ATOM     22  C   UNL     1      10.357   5.058   0.525  0.00  0.00    +0.034 C 
BRANCH  22  23
ATOM     23  C   UNL     1      10.664   6.029  -0.633  0.00  0.00    -0.015 C 
ATOM     27  C   UNL     1       9.533   7.031  -0.870  0.00  0.00    +0.007 C 
ATOM     28  C   UNL     1      11.966   6.783  -0.343  0.00  0.00    +0.007 C 
ENDBRANCH  22  23
ENDBRANCH  21  22
ENDBRANCH  10  21
ENDBRANCH  15  19
BRANCH  14   9
ATOM      4  O   UNL     1       7.473   9.457   0.735  0.00  0.00    -0.268 OA
ATOM      9  N   UNL     1       6.936   9.309   2.985  0.00  0.00    -0.307 N 
ATOM     25  C   UNL     1       6.652   9.524   1.645  0.00  0.00    +0.264 C 
ATOM     35  H   UNL     1       6.179   9.348   3.662  0.00  0.00    +0.149 HD
BRANCH  25  29
ATOM     12  N   UNL     1       4.432  10.120   2.377  0.00  0.00    -0.247 NA
ATOM     13  N   UNL     1       3.527  10.291  -0.273  0.00  0.00    -0.259 NA
ATOM     29  C   UNL     1       5.246   9.883   1.328  0.00  0.00    +0.143 A 
ATOM     31  C   UNL     1       4.802   9.967   0.027  0.00  0.00    +0.143 A 
ATOM     32  C   UNL     1       3.159  10.444   2.078  0.00  0.00    +0.131 A 
ATOM     34  C   UNL     1       2.714  10.529   0.776  0.00  0.00    +0.130 A 
ENDBRANCH  25  29
ENDBRANCH  14   9
BRANCH  20  24
ATOM     24  C   UNL     1      10.869   6.655   7.279  0.00  0.00    +0.165 C 
BRANCH  24   1
ATOM      1  S   UNL     1       9.307   6.374   8.123  0.00  0.00    -0.140 S 
BRANCH   1  30
ATOM     30  C   UNL     1       9.586   4.671   8.671  0.00  0.00    +0.189 C 
BRANCH  30  33
ATOM      7  O   UNL     1       8.149   4.750  10.604  0.00  0.00    -0.250 OA
ATOM     33  C   UNL     1       9.262   4.558  10.133  0.00  0.00    +0.315 C 
BRANCH  33   6
ATOM      6  O   UNL     1      10.336   4.202  10.882  0.00  0.00    -0.480 OA
ATOM     39  H   UNL     1      11.165   4.206  10.357  0.00  0.00    +0.295 HD
ENDBRANCH  33   6
ENDBRANCH  30  33
ENDBRANCH   1  30
ENDBRANCH  24   1
ENDBRANCH  20  24
TORSDOF 12
ENDMDL
MODEL 9
REMARK VINA RESULT:      -5.5     16.046     19.464
REMARK  Name = 7134341
REMARK  14 active torsions:
REMARK  status: ('A' for Active; 'I' for Inactive)
REMARK    1  A    between atoms: S_1  and  C_24
REMARK    2  A    between atoms: S_1  and  C_30
REMARK    3  A    between atoms: O_6  and  C_33
REMARK    4  A    between atoms: N_9  and  C_14
REMARK    5  A    between atoms: N_10  and  C_21
REMARK    6  A    between atoms: C_15  and  C_19
REMARK    7  A    between atoms: C_20  and  C_24
REMARK    8  A    between atoms: C_21  and  C_22
REMARK    9  A    between atoms: C_21  and  C_26
REMARK   10  A    between atoms: C_22  and  C_23
REMARK   11  A    between atoms: C_23  and  C_27
REMARK   12  A    between atoms: C_23  and  C_28
REMARK   13  A    between atoms: C_25  and  C_29
REMARK   14  A    between atoms: C_30  and  C_33
REMARK                            x       y       z     vdW  Elec       q    Type
REMARK                         _______ _______ _______ _____ _____    ______ ____
ROOT
ATOM      3  O   UNL     1      23.677   8.729  22.746  0.00  0.00    -0.275 OA
ATOM      8  N   UNL     1      21.907   7.295  22.268  0.00  0.00    -0.289 N 
ATOM     14  C   UNL     1      19.327   6.879  20.967  0.00  0.00    +0.077 C 
ATOM     15  C   UNL     1      21.179   6.040  22.519  0.00  0.00    +0.164 C 
ATOM     16  C   UNL     1      19.674   6.156  22.271  0.00  0.00    +0.054 C 
ATOM     17  C   UNL     1      20.061   8.215  20.890  0.00  0.00    +0.041 C 
ATOM     18  C   UNL     1      21.564   8.019  21.039  0.00  0.00    +0.110 C 
ATOM     20  C   UNL     1      22.986   7.749  23.036  0.00  0.00    +0.226 C 
ENDROOT
BRANCH  15  19
ATOM      2  O   UNL     1      21.208   4.465  20.723  0.00  0.00    -0.274 OA
ATOM     10  N   UNL     1      23.105   4.692  22.051  0.00  0.00    -0.302 N 
ATOM     19  C   UNL     1      21.813   4.989  21.654  0.00  0.00    +0.234 C 
ATOM     36  H   UNL     1      23.552   5.274  22.755  0.00  0.00    +0.150 HD
BRANCH  10  21
ATOM     21  C   UNL     1      23.926   3.699  21.397  0.00  0.00    +0.159 C 
BRANCH  21  26
ATOM      5  O   UNL     1      25.036   5.515  20.222  0.00  0.00    -0.274 OA
ATOM     11  N   UNL     1      24.638   3.556  19.090  0.00  0.00    -0.328 N 
ATOM     26  C   UNL     1      24.575   4.376  20.197  0.00  0.00    +0.231 C 
ATOM     37  H   UNL     1      25.060   3.881  18.226  0.00  0.00    +0.145 HD
ATOM     38  H   UNL     1      24.274   2.609  19.091  0.00  0.00    +0.145 HD
ENDBRANCH  21  26
BRANCH  21  22
ATOM     22  C   UNL     1      25.000   3.125  22.329  0.00  0.00    +0.034 C 
BRANCH  22  23
ATOM     23  C   UNL     1      24.777   1.657  22.746  0.00  0.00    -0.015 C 
ATOM     27  C   UNL     1      23.629   1.502  23.745  0.00  0.00    +0.007 C 
ATOM     28  C   UNL     1      24.497   0.805  21.505  0.00  0.00    +0.007 C 
ENDBRANCH  22  23
ENDBRANCH  21  22
ENDBRANCH  10  21
ENDBRANCH  15  19
BRANCH  14   9
ATOM      4  O   UNL     1      17.607   5.798  18.938  0.00  0.00    -0.268 OA
ATOM      9  N   UNL     1      17.902   7.073  20.851  0.00  0.00    -0.307 N 
ATOM     25  C   UNL     1      17.153   6.508  19.830  0.00  0.00    +0.264 C 
ATOM     35  H   UNL     1      17.428   7.615  21.569  0.00  0.00    +0.149 HD
BRANCH  25  29
ATOM     12  N   UNL     1      15.148   7.145  18.649  0.00  0.00    -0.247 NA
ATOM     13  N   UNL     1      13.647   7.083  21.018  0.00  0.00    -0.259 NA
ATOM     29  C   UNL     1      15.702   6.826  19.837  0.00  0.00    +0.143 A 
ATOM     31  C   UNL     1      14.965   6.795  21.000  0.00  0.00    +0.143 A 
ATOM     32  C   UNL     1      13.832   7.431  18.667  0.00  0.00    +0.131 A 
ATOM     34  C   UNL     1      13.094   7.401  19.831  0.00  0.00    +0.130 A 
ENDBRANCH  25  29
ENDBRANCH  14   9
BRANCH  20  24
ATOM     24  C   UNL     1      23.293   6.981  24.297  0.00  0.00    +0.165 C 
BRANCH  24   1
ATOM      1  S   UNL     1      22.417   7.778  25.650  0.00  0.00    -0.140 S 
BRANCH   1  30
ATOM     30  C   UNL     1      22.206   6.343  26.732  0.00  0.00    +0.189 C 
BRANCH  30  33
ATOM      7  O   UNL     1      19.863   6.585  26.219  0.00  0.00    -0.250 OA
ATOM     33  C   UNL     1      20.744   6.023  26.858  0.00  0.00    +0.315 C 
BRANCH  33   6
ATOM      6  O   UNL     1      20.500   5.028  27.747  0.00  0.00    -0.480 OA
ATOM     39  H   UNL     1      21.281   4.838  28.309  0.00  0.00    +0.295 HD
ENDBRANCH  33   6
ENDBRANCH  30  33
ENDBRANCH   1  30
ENDBRANCH  24   1
ENDBRANCH  20  24
TORSDOF 12
ENDMDL
MODEL 10
REMARK VINA RESULT:      -5.5      3.897      7.942
REMARK  Name = 7134341
REMARK  14 active torsions:
REMARK  status: ('A' for Active; 'I' for Inactive)
REMARK    1  A    between atoms: S_1  and  C_24
REMARK    2  A    between atoms: S_1  and  C_30
REMARK    3  A    between atoms: O_6  and  C_33
REMARK    4  A    between atoms: N_9  and  C_14
REMARK    5  A    between atoms: N_10  and  C_21
REMARK    6  A    between atoms: C_15  and  C_19
REMARK    7  A    between atoms: C_20  and  C_24
REMARK    8  A    between atoms: C_21  and  C_22
REMARK    9  A    between atoms: C_21  and  C_26
REMARK   10  A    between atoms: C_22  and  C_23
REMARK   11  A    between atoms: C_23  and  C_27
REMARK   12  A    between atoms: C_23  and  C_28
REMARK   13  A    between atoms: C_25  and  C_29
REMARK   14  A    between atoms: C_30  and  C_33
REMARK                            x       y       z     vdW  Elec       q    Type
REMARK                         _______ _______ _______ _____ _____    ______ ____
ROOT
ATOM      3  O   UNL     1      11.083   6.149   4.594  0.00  0.00    -0.275 OA
ATOM      8  N   UNL     1      12.995   7.313   5.234  0.00  0.00    -0.289 N 
ATOM     14  C   UNL     1      15.784   7.993   4.704  0.00  0.00    +0.077 C 
ATOM     15  C   UNL     1      13.743   8.079   6.244  0.00  0.00    +0.164 C 
ATOM     16  C   UNL     1      15.259   7.895   6.139  0.00  0.00    +0.054 C 
ATOM     17  C   UNL     1      14.994   7.063   3.787  0.00  0.00    +0.041 C 
ATOM     18  C   UNL     1      13.504   7.368   3.858  0.00  0.00    +0.110 C 
ATOM     20  C   UNL     1      11.772   6.675   5.472  0.00  0.00    +0.226 C 
ENDROOT
BRANCH  15  19
ATOM      2  O   UNL     1      12.857   9.944   5.044  0.00  0.00    -0.274 OA
ATOM     10  N   UNL     1      13.591  10.258   7.230  0.00  0.00    -0.302 N 
ATOM     19  C   UNL     1      13.337   9.516   6.090  0.00  0.00    +0.234 C 
ATOM     36  H   UNL     1      13.874   9.778   8.080  0.00  0.00    +0.150 HD
BRANCH  10  21
ATOM     21  C   UNL     1      13.313  11.672   7.332  0.00  0.00    +0.159 C 
BRANCH  21  26
ATOM      5  O   UNL     1      11.217  12.036   8.510  0.00  0.00    -0.274 OA
ATOM     11  N   UNL     1      13.138  11.779   9.743  0.00  0.00    -0.328 N 
ATOM     26  C   UNL     1      12.433  11.866   8.560  0.00  0.00    +0.231 C 
ATOM     37  H   UNL     1      12.668  11.877  10.637  0.00  0.00    +0.145 HD
ATOM     38  H   UNL     1      14.139  11.615   9.770  0.00  0.00    +0.145 HD
ENDBRANCH  21  26
BRANCH  21  22
ATOM     22  C   UNL     1      14.591  12.510   7.457  0.00  0.00    +0.034 C 
BRANCH  22  23
ATOM     23  C   UNL     1      15.901  11.696   7.444  0.00  0.00    -0.015 C 
ATOM     27  C   UNL     1      16.553  11.662   6.061  0.00  0.00    +0.007 C 
ATOM     28  C   UNL     1      16.883  12.283   8.462  0.00  0.00    +0.007 C 
ENDBRANCH  22  23
ENDBRANCH  21  22
ENDBRANCH  10  21
ENDBRANCH  15  19
BRANCH  14   9
ATOM      4  O   UNL     1      17.762   9.275   3.066  0.00  0.00    -0.268 OA
ATOM      9  N   UNL     1      17.192   7.683   4.652  0.00  0.00    -0.307 N 
ATOM     25  C   UNL     1      18.074   8.361   3.824  0.00  0.00    +0.264 C 
ATOM     35  H   UNL     1      17.554   6.966   5.275  0.00  0.00    +0.149 HD
BRANCH  25  29
ATOM     12  N   UNL     1      20.003   7.650   5.086  0.00  0.00    -0.247 NA
ATOM     13  N   UNL     1      21.512   7.339   2.742  0.00  0.00    -0.259 NA
ATOM     29  C   UNL     1      19.487   7.905   3.867  0.00  0.00    +0.143 A 
ATOM     31  C   UNL     1      20.228   7.752   2.715  0.00  0.00    +0.143 A 
ATOM     32  C   UNL     1      21.285   7.238   5.113  0.00  0.00    +0.131 A 
ATOM     34  C   UNL     1      22.027   7.084   3.961  0.00  0.00    +0.130 A 
ENDBRANCH  25  29
ENDBRANCH  14   9
BRANCH  20  24
ATOM     24  C   UNL     1      11.295   6.633   6.903  0.00  0.00    +0.165 C 
BRANCH  24   1
ATOM      1  S   UNL     1       9.673   5.856   6.916  0.00  0.00    -0.140 S 
BRANCH   1  30
ATOM     30  C   UNL     1       9.340   5.932   8.693  0.00  0.00    +0.189 C 
BRANCH  30  33
ATOM      7  O   UNL     1      10.177   4.680  10.575  0.00  0.00    -0.250 OA
ATOM     33  C   UNL     1       9.971   4.750   9.370  0.00  0.00    +0.315 C 
BRANCH  33   6
ATOM      6  O   UNL     1      10.279   3.752   8.504  0.00  0.00    -0.480 OA
ATOM     39  H   UNL     1      11.171   3.380   8.676  0.00  0.00    +0.295 HD
ENDBRANCH  33   6
ENDBRANCH  30  33
ENDBRANCH   1  30
ENDBRANCH  24   1
ENDBRANCH  20  24
TORSDOF 12
ENDMDL
