REMARK  Name = 75536112
REMARK  7 active torsions:
REMARK  status: ('A' for Active; 'I' for Inactive)
REMARK    1  A    between atoms: O_1  and  C_8
REMARK    2  A    between atoms: O_2  and  C_10
REMARK    3  A    between atoms: N_3  and  C_6
REMARK    4  A    between atoms: N_3  and  C_12
REMARK    5  A    between atoms: C_7  and  C_11
REMARK    6  A    between atoms: C_12  and  C_15
REMARK    7  A    between atoms: C_20  and  C_23
REMARK                            x       y       z     vdW  Elec       q    Type
REMARK                         _______ _______ _______ _____ _____    ______ ____
ROOT
ATOM      6  C   UNL     1       1.263  -1.079  -0.054  0.00  0.00    +0.093 C 
ATOM      7  C   UNL     1       2.257  -0.294  -0.940  0.00  0.00    +0.042 C 
ATOM      8  C   UNL     1       1.634  -2.537  -0.322  0.00  0.00    +0.160 C 
ATOM      9  C   UNL     1       3.487  -1.226  -1.108  0.00  0.00    +0.043 C 
ATOM     10  C   UNL     1       3.159  -2.499  -0.325  0.00  0.00    +0.145 C 
ENDROOT
BRANCH   7  11
ATOM      4  N   UNL     1       2.610   3.475  -0.700  0.00  0.00    -0.263 NA
ATOM     11  C   UNL     1       2.590   1.078  -0.392  0.00  0.00    -0.025 A 
ATOM     13  C   UNL     1       3.159   1.227   0.868  0.00  0.00    +0.007 A 
ATOM     14  C   UNL     1       2.337   2.223  -1.130  0.00  0.00    +0.114 A 
ATOM     16  C   UNL     1       3.454   2.500   1.344  0.00  0.00    +0.020 A 
ATOM     17  C   UNL     1       3.163   3.581   0.529  0.00  0.00    +0.111 A 
ENDBRANCH   7  11
BRANCH   8   1
ATOM      1  O   UNL     1       1.126  -3.398   0.679  0.00  0.00    -0.388 OA
ATOM     25  H   UNL     1       1.482  -4.286   0.506  0.00  0.00    +0.210 HD
ENDBRANCH   8   1
BRANCH  10   2
ATOM      2  O   UNL     1       3.651  -2.377   1.007  0.00  0.00    -0.389 OA
ATOM     26  H   UNL     1       4.619  -2.305   0.955  0.00  0.00    +0.210 HD
ENDBRANCH  10   2
BRANCH   6   3
ATOM      3  N   UNL     1      -0.125  -0.800  -0.406  0.00  0.00    -0.306 NA
ATOM     24  H   UNL     1      -0.225   0.197  -0.599  0.00  0.00    +0.123 HD
BRANCH   3  12
ATOM     12  C   UNL     1      -1.020  -1.158   0.685  0.00  0.00    +0.116 C 
BRANCH  12  15
ATOM     15  C   UNL     1      -2.460  -0.887   0.341  0.00  0.00    -0.032 A 
ATOM     18  C   UNL     1      -2.949   0.419   0.361  0.00  0.00    +0.023 A 
ATOM     19  C   UNL     1      -3.305  -1.943   0.001  0.00  0.00    +0.005 A 
ATOM     20  C   UNL     1      -4.284   0.670   0.041  0.00  0.00    +0.052 A 
ATOM     21  C   UNL     1      -4.640  -1.693  -0.320  0.00  0.00    +0.002 A 
ATOM     22  C   UNL     1      -5.129  -0.387  -0.299  0.00  0.00    +0.019 A 
BRANCH  20  23
ATOM      5  N   UNL     1      -5.193   3.094   0.077  0.00  0.00    -0.191 NA
ATOM     23  C   UNL     1      -4.785   2.007   0.061  0.00  0.00    +0.099 C 
ENDBRANCH  20  23
ENDBRANCH  12  15
ENDBRANCH   3  12
ENDBRANCH   6   3
TORSDOF 7
