MODEL 1
REMARK VINA RESULT:      -7.2      0.000      0.000
REMARK  Name = 51137477
REMARK  8 active torsions:
REMARK  status: ('A' for Active; 'I' for Inactive)
REMARK    1  A    between atoms: O_2  and  C_22
REMARK    2  A    between atoms: O_2  and  C_29
REMARK    3  A    between atoms: N_4  and  C_12
REMARK    4  A    between atoms: N_7  and  C_21
REMARK    5  A    between atoms: C_8  and  C_13
REMARK    6  A    between atoms: C_12  and  C_14
REMARK    7  A    between atoms: C_17  and  C_20
REMARK    8  A    between atoms: C_27  and  C_28
REMARK                            x       y       z     vdW  Elec       q    Type
REMARK                         _______ _______ _______ _____ _____    ______ ____
ROOT
ATOM      4  N   UNL     1      -3.066 -10.423  11.471  0.00  0.00    -0.297 NA
ATOM      8  C   UNL     1      -1.928 -11.598  13.195  0.00  0.00    +0.092 C 
ATOM      9  C   UNL     1      -3.122 -12.407  12.664  0.00  0.00    +0.029 C 
ATOM     10  C   UNL     1      -1.827 -10.384  12.254  0.00  0.00    +0.097 C 
ATOM     11  C   UNL     1      -3.366 -11.840  11.275  0.00  0.00    +0.085 C 
ENDROOT
BRANCH   8  13
ATOM      1  O   UNL     1      -3.297 -11.389  15.215  0.00  0.00    -0.420 OA
ATOM      5  N   UNL     1      -1.150 -10.835  15.507  0.00  0.00    -0.112 NA
ATOM      6  N   UNL     1      -1.801 -10.672  16.716  0.00  0.00    -0.107 NA
ATOM     13  C   UNL     1      -2.061 -11.254  14.661  0.00  0.00    +0.222 A 
ATOM     17  C   UNL     1      -3.051 -11.006  16.497  0.00  0.00    +0.252 A 
BRANCH  17  20
ATOM     20  C   UNL     1      -4.177 -11.031  17.386  0.00  0.00    +0.080 A 
ATOM     22  C   UNL     1      -5.342 -10.326  17.085  0.00  0.00    +0.132 A 
ATOM     23  C   UNL     1      -4.095 -11.771  18.565  0.00  0.00    +0.017 A 
ATOM     24  C   UNL     1      -6.426 -10.361  17.963  0.00  0.00    +0.046 A 
ATOM     25  C   UNL     1      -5.178 -11.805  19.444  0.00  0.00    +0.001 A 
ATOM     26  C   UNL     1      -6.344 -11.101  19.142  0.00  0.00    +0.004 A 
BRANCH  22   2
ATOM      2  O   UNL     1      -5.450  -9.594  15.939  0.00  0.00    -0.494 OA
ATOM     29  C   UNL     1      -6.527  -9.920  15.063  0.00  0.00    +0.277 C 
ENDBRANCH  22   2
ENDBRANCH  17  20
ENDBRANCH   8  13
BRANCH   4  12
ATOM     12  C   UNL     1      -2.958  -9.696  10.216  0.00  0.00    +0.119 C 
BRANCH  12  14
ATOM     14  C   UNL     1      -4.308  -9.303   9.677  0.00  0.00    -0.033 A 
ATOM     15  C   UNL     1      -5.160  -8.508  10.443  0.00  0.00    +0.007 A 
ATOM     16  C   UNL     1      -4.705  -9.733   8.411  0.00  0.00    +0.007 A 
ATOM     18  C   UNL     1      -6.410  -8.144   9.944  0.00  0.00    +0.023 A 
ATOM     19  C   UNL     1      -5.956  -9.369   7.912  0.00  0.00    +0.023 A 
ATOM     21  C   UNL     1      -6.808  -8.574   8.678  0.00  0.00    +0.033 A 
BRANCH  21   7
ATOM      3  O   UNL     1      -7.958  -5.856   8.081  0.00  0.00    -0.276 OA
ATOM      7  N   UNL     1      -8.059  -8.209   8.178  0.00  0.00    -0.286 N 
ATOM     27  C   UNL     1      -8.544  -6.920   7.920  0.00  0.00    +0.214 C 
ATOM     28  C   UNL     1      -9.952  -6.951   7.382  0.00  0.00    +0.109 C 
ATOM     30  H   UNL     1      -8.689  -8.983   7.979  0.00  0.00    +0.155 HD
ENDBRANCH  21   7
ENDBRANCH  12  14
ENDBRANCH   4  12
TORSDOF 6
ENDMDL
MODEL 2
REMARK VINA RESULT:      -7.0      1.034      1.800
REMARK  Name = 51137477
REMARK  8 active torsions:
REMARK  status: ('A' for Active; 'I' for Inactive)
REMARK    1  A    between atoms: O_2  and  C_22
REMARK    2  A    between atoms: O_2  and  C_29
REMARK    3  A    between atoms: N_4  and  C_12
REMARK    4  A    between atoms: N_7  and  C_21
REMARK    5  A    between atoms: C_8  and  C_13
REMARK    6  A    between atoms: C_12  and  C_14
REMARK    7  A    between atoms: C_17  and  C_20
REMARK    8  A    between atoms: C_27  and  C_28
REMARK                            x       y       z     vdW  Elec       q    Type
REMARK                         _______ _______ _______ _____ _____    ______ ____
ROOT
ATOM      4  N   UNL     1      -3.297 -10.275  11.063  0.00  0.00    -0.297 NA
ATOM      8  C   UNL     1      -2.039 -11.286  12.808  0.00  0.00    +0.092 C 
ATOM      9  C   UNL     1      -2.989 -12.298  12.148  0.00  0.00    +0.029 C 
ATOM     10  C   UNL     1      -2.149 -10.020  11.939  0.00  0.00    +0.097 C 
ATOM     11  C   UNL     1      -3.264 -11.707  10.775  0.00  0.00    +0.085 C 
ENDROOT
BRANCH   8  13
ATOM      1  O   UNL     1      -3.646 -10.936  14.623  0.00  0.00    -0.420 OA
ATOM      5  N   UNL     1      -1.514 -11.002  15.294  0.00  0.00    -0.112 NA
ATOM      6  N   UNL     1      -2.305 -10.801  16.409  0.00  0.00    -0.107 NA
ATOM     13  C   UNL     1      -2.338 -11.075  14.275  0.00  0.00    +0.222 A 
ATOM     17  C   UNL     1      -3.542 -10.769  15.969  0.00  0.00    +0.252 A 
BRANCH  17  20
ATOM     20  C   UNL     1      -4.776 -10.588  16.676  0.00  0.00    +0.080 A 
ATOM     22  C   UNL     1      -5.095 -11.385  17.776  0.00  0.00    +0.132 A 
ATOM     23  C   UNL     1      -5.665  -9.601  16.251  0.00  0.00    +0.017 A 
ATOM     24  C   UNL     1      -6.301 -11.196  18.450  0.00  0.00    +0.046 A 
ATOM     25  C   UNL     1      -6.873  -9.412  16.924  0.00  0.00    +0.001 A 
ATOM     26  C   UNL     1      -7.190 -10.209  18.024  0.00  0.00    +0.004 A 
BRANCH  22   2
ATOM      2  O   UNL     1      -4.245 -12.358  18.214  0.00  0.00    -0.494 OA
ATOM     29  C   UNL     1      -3.663 -12.175  19.503  0.00  0.00    +0.277 C 
ENDBRANCH  22   2
ENDBRANCH  17  20
ENDBRANCH   8  13
BRANCH   4  12
ATOM     12  C   UNL     1      -3.272  -9.462   9.857  0.00  0.00    +0.119 C 
BRANCH  12  14
ATOM     14  C   UNL     1      -4.646  -9.296   9.264  0.00  0.00    -0.033 A 
ATOM     15  C   UNL     1      -5.641  -8.635   9.986  0.00  0.00    +0.007 A 
ATOM     16  C   UNL     1      -4.924  -9.801   7.994  0.00  0.00    +0.007 A 
ATOM     18  C   UNL     1      -6.914  -8.481   9.437  0.00  0.00    +0.023 A 
ATOM     19  C   UNL     1      -6.197  -9.646   7.446  0.00  0.00    +0.023 A 
ATOM     21  C   UNL     1      -7.191  -8.986   8.166  0.00  0.00    +0.033 A 
BRANCH  21   7
ATOM      3  O   UNL     1      -8.503  -6.580   6.918  0.00  0.00    -0.276 OA
ATOM      7  N   UNL     1      -8.465  -8.831   7.617  0.00  0.00    -0.286 N 
ATOM     27  C   UNL     1      -9.027  -7.680   7.047  0.00  0.00    +0.214 C 
ATOM     28  C   UNL     1     -10.434  -7.926   6.566  0.00  0.00    +0.109 C 
ATOM     30  H   UNL     1      -9.050  -9.664   7.636  0.00  0.00    +0.155 HD
ENDBRANCH  21   7
ENDBRANCH  12  14
ENDBRANCH   4  12
TORSDOF 6
ENDMDL
MODEL 3
REMARK VINA RESULT:      -6.9      2.586      7.372
REMARK  Name = 51137477
REMARK  8 active torsions:
REMARK  status: ('A' for Active; 'I' for Inactive)
REMARK    1  A    between atoms: O_2  and  C_22
REMARK    2  A    between atoms: O_2  and  C_29
REMARK    3  A    between atoms: N_4  and  C_12
REMARK    4  A    between atoms: N_7  and  C_21
REMARK    5  A    between atoms: C_8  and  C_13
REMARK    6  A    between atoms: C_12  and  C_14
REMARK    7  A    between atoms: C_17  and  C_20
REMARK    8  A    between atoms: C_27  and  C_28
REMARK                            x       y       z     vdW  Elec       q    Type
REMARK                         _______ _______ _______ _____ _____    ______ ____
ROOT
ATOM      4  N   UNL     1      -3.094 -10.873  16.010  0.00  0.00    -0.297 NA
ATOM      8  C   UNL     1      -1.875 -11.320  14.020  0.00  0.00    +0.092 C 
ATOM      9  C   UNL     1      -1.082 -10.402  14.964  0.00  0.00    +0.029 C 
ATOM     10  C   UNL     1      -3.110 -11.747  14.833  0.00  0.00    +0.097 C 
ATOM     11  C   UNL     1      -1.684 -10.671  16.334  0.00  0.00    +0.085 C 
ENDROOT
BRANCH   8  13
ATOM      1  O   UNL     1      -3.392 -10.951  12.133  0.00  0.00    -0.420 OA
ATOM      5  N   UNL     1      -1.455  -9.844  11.975  0.00  0.00    -0.112 NA
ATOM      6  N   UNL     1      -2.207  -9.548  10.854  0.00  0.00    -0.107 NA
ATOM     13  C   UNL     1      -2.185 -10.665  12.693  0.00  0.00    +0.222 A 
ATOM     17  C   UNL     1      -3.329 -10.216  10.989  0.00  0.00    +0.252 A 
BRANCH  17  20
ATOM     20  C   UNL     1      -4.478 -10.289  10.134  0.00  0.00    +0.080 A 
ATOM     22  C   UNL     1      -5.627  -9.548  10.412  0.00  0.00    +0.132 A 
ATOM     23  C   UNL     1      -4.437 -11.115   9.010  0.00  0.00    +0.017 A 
ATOM     24  C   UNL     1      -6.734  -9.634   9.569  0.00  0.00    +0.046 A 
ATOM     25  C   UNL     1      -5.545 -11.201   8.167  0.00  0.00    +0.001 A 
ATOM     26  C   UNL     1      -6.693 -10.460   8.446  0.00  0.00    +0.004 A 
BRANCH  22   2
ATOM      2  O   UNL     1      -5.695  -8.733  11.503  0.00  0.00    -0.494 OA
ATOM     29  C   UNL     1      -6.509  -9.172  12.589  0.00  0.00    +0.277 C 
ENDBRANCH  22   2
ENDBRANCH  17  20
ENDBRANCH   8  13
BRANCH   4  12
ATOM     12  C   UNL     1      -3.850 -11.423  17.125  0.00  0.00    +0.119 C 
BRANCH  12  14
ATOM     14  C   UNL     1      -5.198 -10.767  17.266  0.00  0.00    -0.033 A 
ATOM     15  C   UNL     1      -5.726 -10.024  16.210  0.00  0.00    +0.007 A 
ATOM     16  C   UNL     1      -5.920 -10.904  18.452  0.00  0.00    +0.007 A 
ATOM     18  C   UNL     1      -6.975  -9.417  16.341  0.00  0.00    +0.023 A 
ATOM     19  C   UNL     1      -7.168 -10.297  18.582  0.00  0.00    +0.023 A 
ATOM     21  C   UNL     1      -7.696  -9.554  17.527  0.00  0.00    +0.033 A 
BRANCH  21   7
ATOM      3  O   UNL     1     -10.375 -10.329  16.390  0.00  0.00    -0.276 OA
ATOM      7  N   UNL     1      -8.946  -8.946  17.657  0.00  0.00    -0.286 N 
ATOM     27  C   UNL     1     -10.167  -9.353  17.102  0.00  0.00    +0.214 C 
ATOM     28  C   UNL     1     -11.290  -8.422  17.482  0.00  0.00    +0.109 C 
ATOM     30  H   UNL     1      -8.962  -8.105  18.230  0.00  0.00    +0.155 HD
ENDBRANCH  21   7
ENDBRANCH  12  14
ENDBRANCH   4  12
TORSDOF 6
ENDMDL
MODEL 4
REMARK VINA RESULT:      -6.8      2.285      3.384
REMARK  Name = 51137477
REMARK  8 active torsions:
REMARK  status: ('A' for Active; 'I' for Inactive)
REMARK    1  A    between atoms: O_2  and  C_22
REMARK    2  A    between atoms: O_2  and  C_29
REMARK    3  A    between atoms: N_4  and  C_12
REMARK    4  A    between atoms: N_7  and  C_21
REMARK    5  A    between atoms: C_8  and  C_13
REMARK    6  A    between atoms: C_12  and  C_14
REMARK    7  A    between atoms: C_17  and  C_20
REMARK    8  A    between atoms: C_27  and  C_28
REMARK                            x       y       z     vdW  Elec       q    Type
REMARK                         _______ _______ _______ _____ _____    ______ ____
ROOT
ATOM      4  N   UNL     1      -3.744 -11.187  13.512  0.00  0.00    -0.297 NA
ATOM      8  C   UNL     1      -3.643 -12.034  15.730  0.00  0.00    +0.092 C 
ATOM      9  C   UNL     1      -4.473 -12.953  14.821  0.00  0.00    +0.029 C 
ATOM     10  C   UNL     1      -3.036 -10.985  14.780  0.00  0.00    +0.097 C 
ATOM     11  C   UNL     1      -3.987 -12.625  13.419  0.00  0.00    +0.085 C 
ENDROOT
BRANCH   8  13
ATOM      1  O   UNL     1      -5.749 -11.152  16.617  0.00  0.00    -0.420 OA
ATOM      5  N   UNL     1      -4.083 -11.206  18.109  0.00  0.00    -0.112 NA
ATOM      6  N   UNL     1      -5.201 -10.692  18.737  0.00  0.00    -0.107 NA
ATOM     13  C   UNL     1      -4.448 -11.461  16.874  0.00  0.00    +0.222 A 
ATOM     17  C   UNL     1      -6.149 -10.679  17.828  0.00  0.00    +0.252 A 
BRANCH  17  20
ATOM     20  C   UNL     1      -7.515 -10.250  17.914  0.00  0.00    +0.080 A 
ATOM     22  C   UNL     1      -8.360 -10.747  18.906  0.00  0.00    +0.132 A 
ATOM     23  C   UNL     1      -7.996  -9.325  16.988  0.00  0.00    +0.017 A 
ATOM     24  C   UNL     1      -9.686 -10.320  18.972  0.00  0.00    +0.046 A 
ATOM     25  C   UNL     1      -9.323  -8.898  17.053  0.00  0.00    +0.001 A 
ATOM     26  C   UNL     1     -10.168  -9.395  18.046  0.00  0.00    +0.004 A 
BRANCH  22   2
ATOM      2  O   UNL     1      -7.917 -11.653  19.825  0.00  0.00    -0.494 OA
ATOM     29  C   UNL     1      -8.462 -12.968  19.751  0.00  0.00    +0.277 C 
ENDBRANCH  22   2
ENDBRANCH  17  20
ENDBRANCH   8  13
BRANCH   4  12
ATOM     12  C   UNL     1      -3.004 -10.670  12.371  0.00  0.00    +0.119 C 
BRANCH  12  14
ATOM     14  C   UNL     1      -3.891  -9.898  11.431  0.00  0.00    -0.033 A 
ATOM     15  C   UNL     1      -3.414  -9.517  10.177  0.00  0.00    +0.007 A 
ATOM     16  C   UNL     1      -5.190  -9.563  11.815  0.00  0.00    +0.007 A 
ATOM     18  C   UNL     1      -4.236  -8.802   9.306  0.00  0.00    +0.023 A 
ATOM     19  C   UNL     1      -6.011  -8.847  10.944  0.00  0.00    +0.023 A 
ATOM     21  C   UNL     1      -5.535  -8.467   9.690  0.00  0.00    +0.033 A 
BRANCH  21   7
ATOM      3  O   UNL     1      -7.938  -9.348   8.104  0.00  0.00    -0.276 OA
ATOM      7  N   UNL     1      -6.357  -7.752   8.818  0.00  0.00    -0.286 N 
ATOM     27  C   UNL     1      -7.469  -8.216   8.101  0.00  0.00    +0.214 C 
ATOM     28  C   UNL     1      -8.089  -7.125   7.266  0.00  0.00    +0.109 C 
ATOM     30  H   UNL     1      -6.111  -6.772   8.696  0.00  0.00    +0.155 HD
ENDBRANCH  21   7
ENDBRANCH  12  14
ENDBRANCH   4  12
TORSDOF 6
ENDMDL
MODEL 5
REMARK VINA RESULT:      -6.7      2.658      8.039
REMARK  Name = 51137477
REMARK  8 active torsions:
REMARK  status: ('A' for Active; 'I' for Inactive)
REMARK    1  A    between atoms: O_2  and  C_22
REMARK    2  A    between atoms: O_2  and  C_29
REMARK    3  A    between atoms: N_4  and  C_12
REMARK    4  A    between atoms: N_7  and  C_21
REMARK    5  A    between atoms: C_8  and  C_13
REMARK    6  A    between atoms: C_12  and  C_14
REMARK    7  A    between atoms: C_17  and  C_20
REMARK    8  A    between atoms: C_27  and  C_28
REMARK                            x       y       z     vdW  Elec       q    Type
REMARK                         _______ _______ _______ _____ _____    ______ ____
ROOT
ATOM      4  N   UNL     1      -2.886 -10.951  14.881  0.00  0.00    -0.297 NA
ATOM      8  C   UNL     1      -2.063 -12.028  12.930  0.00  0.00    +0.092 C 
ATOM      9  C   UNL     1      -1.748 -10.524  12.909  0.00  0.00    +0.029 C 
ATOM     10  C   UNL     1      -2.650 -12.288  14.329  0.00  0.00    +0.097 C 
ATOM     11  C   UNL     1      -1.800 -10.115  14.372  0.00  0.00    +0.085 C 
ENDROOT
BRANCH   8  13
ATOM      1  O   UNL     1      -3.317 -11.489  10.896  0.00  0.00    -0.420 OA
ATOM      5  N   UNL     1      -3.435 -13.641  11.495  0.00  0.00    -0.112 NA
ATOM      6  N   UNL     1      -4.180 -13.478  10.343  0.00  0.00    -0.107 NA
ATOM     13  C   UNL     1      -2.950 -12.455  11.781  0.00  0.00    +0.222 A 
ATOM     17  C   UNL     1      -4.084 -12.207  10.030  0.00  0.00    +0.252 A 
BRANCH  17  20
ATOM     20  C   UNL     1      -4.650 -11.472   8.936  0.00  0.00    +0.080 A 
ATOM     22  C   UNL     1      -5.456 -10.357   9.164  0.00  0.00    +0.132 A 
ATOM     23  C   UNL     1      -4.386 -11.887   7.631  0.00  0.00    +0.017 A 
ATOM     24  C   UNL     1      -5.999  -9.657   8.087  0.00  0.00    +0.046 A 
ATOM     25  C   UNL     1      -4.930 -11.187   6.553  0.00  0.00    +0.001 A 
ATOM     26  C   UNL     1      -5.736 -10.072   6.781  0.00  0.00    +0.004 A 
BRANCH  22   2
ATOM      2  O   UNL     1      -5.731  -9.929  10.429  0.00  0.00    -0.494 OA
ATOM     29  C   UNL     1      -6.918  -9.160  10.608  0.00  0.00    +0.277 C 
ENDBRANCH  22   2
ENDBRANCH  17  20
ENDBRANCH   8  13
BRANCH   4  12
ATOM     12  C   UNL     1      -2.957 -10.950  16.334  0.00  0.00    +0.119 C 
BRANCH  12  14
ATOM     14  C   UNL     1      -4.340 -10.617  16.828  0.00  0.00    -0.033 A 
ATOM     15  C   UNL     1      -4.733 -11.000  18.110  0.00  0.00    +0.007 A 
ATOM     16  C   UNL     1      -5.227  -9.924  16.003  0.00  0.00    +0.007 A 
ATOM     18  C   UNL     1      -6.014 -10.691  18.568  0.00  0.00    +0.023 A 
ATOM     19  C   UNL     1      -6.507  -9.616  16.462  0.00  0.00    +0.023 A 
ATOM     21  C   UNL     1      -6.901  -9.998  17.743  0.00  0.00    +0.033 A 
BRANCH  21   7
ATOM      3  O   UNL     1      -9.362 -11.718  17.977  0.00  0.00    -0.276 OA
ATOM      7  N   UNL     1      -8.182  -9.689  18.202  0.00  0.00    -0.286 N 
ATOM     27  C   UNL     1      -9.297 -10.534  18.288  0.00  0.00    +0.214 C 
ATOM     28  C   UNL     1     -10.502  -9.814  18.839  0.00  0.00    +0.109 C 
ATOM     30  H   UNL     1      -8.313  -8.728  18.510  0.00  0.00    +0.155 HD
ENDBRANCH  21   7
ENDBRANCH  12  14
ENDBRANCH   4  12
TORSDOF 6
ENDMDL
MODEL 6
REMARK VINA RESULT:      -6.7     23.716     25.893
REMARK  Name = 51137477
REMARK  8 active torsions:
REMARK  status: ('A' for Active; 'I' for Inactive)
REMARK    1  A    between atoms: O_2  and  C_22
REMARK    2  A    between atoms: O_2  and  C_29
REMARK    3  A    between atoms: N_4  and  C_12
REMARK    4  A    between atoms: N_7  and  C_21
REMARK    5  A    between atoms: C_8  and  C_13
REMARK    6  A    between atoms: C_12  and  C_14
REMARK    7  A    between atoms: C_17  and  C_20
REMARK    8  A    between atoms: C_27  and  C_28
REMARK                            x       y       z     vdW  Elec       q    Type
REMARK                         _______ _______ _______ _____ _____    ______ ____
ROOT
ATOM      4  N   UNL     1      12.143   4.111   0.532  0.00  0.00    -0.297 NA
ATOM      8  C   UNL     1      10.572   4.281   2.306  0.00  0.00    +0.092 C 
ATOM      9  C   UNL     1      10.176   5.179   1.124  0.00  0.00    +0.029 C 
ATOM     10  C   UNL     1      11.772   3.464   1.794  0.00  0.00    +0.097 C 
ATOM     11  C   UNL     1      10.888   4.560  -0.067  0.00  0.00    +0.085 C 
ENDROOT
BRANCH   8  13
ATOM      1  O   UNL     1      10.130   4.696   4.679  0.00  0.00    -0.420 OA
ATOM      5  N   UNL     1      11.652   6.068   3.782  0.00  0.00    -0.112 NA
ATOM      6  N   UNL     1      11.501   6.411   5.112  0.00  0.00    -0.107 NA
ATOM     13  C   UNL     1      10.833   5.064   3.573  0.00  0.00    +0.222 A 
ATOM     17  C   UNL     1      10.603   5.584   5.596  0.00  0.00    +0.252 A 
BRANCH  17  20
ATOM     20  C   UNL     1      10.055   5.474   6.916  0.00  0.00    +0.080 A 
ATOM     22  C   UNL     1       9.492   6.580   7.553  0.00  0.00    +0.132 A 
ATOM     23  C   UNL     1      10.091   4.240   7.566  0.00  0.00    +0.017 A 
ATOM     24  C   UNL     1       8.966   6.454   8.838  0.00  0.00    +0.046 A 
ATOM     25  C   UNL     1       9.565   4.114   8.852  0.00  0.00    +0.001 A 
ATOM     26  C   UNL     1       9.002   5.220   9.488  0.00  0.00    +0.004 A 
BRANCH  22   2
ATOM      2  O   UNL     1       9.444   7.799   6.941  0.00  0.00    -0.494 OA
ATOM     29  C   UNL     1       8.242   8.126   6.247  0.00  0.00    +0.277 C 
ENDBRANCH  22   2
ENDBRANCH  17  20
ENDBRANCH   8  13
BRANCH   4  12
ATOM     12  C   UNL     1      12.898   3.231  -0.347  0.00  0.00    +0.119 C 
BRANCH  12  14
ATOM     14  C   UNL     1      14.179   3.869  -0.815  0.00  0.00    -0.033 A 
ATOM     15  C   UNL     1      14.321   4.247  -2.151  0.00  0.00    +0.007 A 
ATOM     16  C   UNL     1      15.222   4.083   0.086  0.00  0.00    +0.007 A 
ATOM     18  C   UNL     1      15.507   4.839  -2.585  0.00  0.00    +0.023 A 
ATOM     19  C   UNL     1      16.407   4.675  -0.349  0.00  0.00    +0.023 A 
ATOM     21  C   UNL     1      16.550   5.053  -1.683  0.00  0.00    +0.033 A 
BRANCH  21   7
ATOM      3  O   UNL     1      19.189   3.816  -2.442  0.00  0.00    -0.276 OA
ATOM      7  N   UNL     1      17.737   5.645  -2.117  0.00  0.00    -0.286 N 
ATOM     27  C   UNL     1      18.943   5.017  -2.457  0.00  0.00    +0.214 C 
ATOM     28  C   UNL     1      19.992   6.014  -2.880  0.00  0.00    +0.109 C 
ATOM     30  H   UNL     1      17.713   6.660  -2.194  0.00  0.00    +0.155 HD
ENDBRANCH  21   7
ENDBRANCH  12  14
ENDBRANCH   4  12
TORSDOF 6
ENDMDL
MODEL 7
REMARK VINA RESULT:      -6.7     28.228     30.085
REMARK  Name = 51137477
REMARK  8 active torsions:
REMARK  status: ('A' for Active; 'I' for Inactive)
REMARK    1  A    between atoms: O_2  and  C_22
REMARK    2  A    between atoms: O_2  and  C_29
REMARK    3  A    between atoms: N_4  and  C_12
REMARK    4  A    between atoms: N_7  and  C_21
REMARK    5  A    between atoms: C_8  and  C_13
REMARK    6  A    between atoms: C_12  and  C_14
REMARK    7  A    between atoms: C_17  and  C_20
REMARK    8  A    between atoms: C_27  and  C_28
REMARK                            x       y       z     vdW  Elec       q    Type
REMARK                         _______ _______ _______ _____ _____    ______ ____
ROOT
ATOM      4  N   UNL     1      16.241  11.912  15.174  0.00  0.00    -0.297 NA
ATOM      8  C   UNL     1      14.030  11.093  15.474  0.00  0.00    +0.092 C 
ATOM      9  C   UNL     1      14.366  12.181  16.507  0.00  0.00    +0.029 C 
ATOM     10  C   UNL     1      15.230  11.084  14.509  0.00  0.00    +0.097 C 
ATOM     11  C   UNL     1      15.499  12.965  15.864  0.00  0.00    +0.085 C 
ENDROOT
BRANCH   8  13
ATOM      1  O   UNL     1      13.261   9.780  17.393  0.00  0.00    -0.420 OA
ATOM      5  N   UNL     1      13.826   8.548  15.614  0.00  0.00    -0.112 NA
ATOM      6  N   UNL     1      13.415   7.688  16.614  0.00  0.00    -0.107 NA
ATOM     13  C   UNL     1      13.720   9.758  16.112  0.00  0.00    +0.222 A 
ATOM     17  C   UNL     1      13.095   8.451  17.633  0.00  0.00    +0.252 A 
BRANCH  17  20
ATOM     20  C   UNL     1      12.606   8.105  18.936  0.00  0.00    +0.080 A 
ATOM     22  C   UNL     1      13.367   7.322  19.803  0.00  0.00    +0.132 A 
ATOM     23  C   UNL     1      11.349   8.562  19.333  0.00  0.00    +0.017 A 
ATOM     24  C   UNL     1      12.874   6.995  21.066  0.00  0.00    +0.046 A 
ATOM     25  C   UNL     1      10.854   8.235  20.596  0.00  0.00    +0.001 A 
ATOM     26  C   UNL     1      11.617   7.452  21.462  0.00  0.00    +0.004 A 
BRANCH  22   2
ATOM      2  O   UNL     1      14.599   6.861  19.442  0.00  0.00    -0.494 OA
ATOM     29  C   UNL     1      15.452   6.407  20.490  0.00  0.00    +0.277 C 
ENDBRANCH  22   2
ENDBRANCH  17  20
ENDBRANCH   8  13
BRANCH   4  12
ATOM     12  C   UNL     1      17.228  12.442  14.245  0.00  0.00    +0.119 C 
BRANCH  12  14
ATOM     14  C   UNL     1      18.635  12.145  14.692  0.00  0.00    -0.033 A 
ATOM     15  C   UNL     1      19.528  11.526  13.818  0.00  0.00    +0.007 A 
ATOM     16  C   UNL     1      19.044  12.489  15.981  0.00  0.00    +0.007 A 
ATOM     18  C   UNL     1      20.831  11.251  14.232  0.00  0.00    +0.023 A 
ATOM     19  C   UNL     1      20.347  12.214  16.394  0.00  0.00    +0.023 A 
ATOM     21  C   UNL     1      21.241  11.596  15.520  0.00  0.00    +0.033 A 
BRANCH  21   7
ATOM      3  O   UNL     1      23.074   9.312  14.819  0.00  0.00    -0.276 OA
ATOM      7  N   UNL     1      22.545  11.321  15.934  0.00  0.00    -0.286 N 
ATOM     27  C   UNL     1      23.355  10.235  15.575  0.00  0.00    +0.214 C 
ATOM     28  C   UNL     1      24.706  10.302  16.241  0.00  0.00    +0.109 C 
ATOM     30  H   UNL     1      22.949  11.999  16.576  0.00  0.00    +0.155 HD
ENDBRANCH  21   7
ENDBRANCH  12  14
ENDBRANCH   4  12
TORSDOF 6
ENDMDL
MODEL 8
REMARK VINA RESULT:      -6.6     28.134     30.065
REMARK  Name = 51137477
REMARK  8 active torsions:
REMARK  status: ('A' for Active; 'I' for Inactive)
REMARK    1  A    between atoms: O_2  and  C_22
REMARK    2  A    between atoms: O_2  and  C_29
REMARK    3  A    between atoms: N_4  and  C_12
REMARK    4  A    between atoms: N_7  and  C_21
REMARK    5  A    between atoms: C_8  and  C_13
REMARK    6  A    between atoms: C_12  and  C_14
REMARK    7  A    between atoms: C_17  and  C_20
REMARK    8  A    between atoms: C_27  and  C_28
REMARK                            x       y       z     vdW  Elec       q    Type
REMARK                         _______ _______ _______ _____ _____    ______ ____
ROOT
ATOM      4  N   UNL     1      20.712   5.323  21.341  0.00  0.00    -0.297 NA
ATOM      8  C   UNL     1      22.558   4.098  22.200  0.00  0.00    +0.092 C 
ATOM      9  C   UNL     1      21.821   3.303  21.111  0.00  0.00    +0.029 C 
ATOM     10  C   UNL     1      21.900   5.489  22.185  0.00  0.00    +0.097 C 
ATOM     11  C   UNL     1      21.094   4.366  20.305  0.00  0.00    +0.085 C 
ENDROOT
BRANCH   8  13
ATOM      1  O   UNL     1      22.816   2.072  23.551  0.00  0.00    -0.420 OA
ATOM      5  N   UNL     1      22.295   3.896  24.736  0.00  0.00    -0.112 NA
ATOM      6  N   UNL     1      22.409   2.836  25.615  0.00  0.00    -0.107 NA
ATOM     13  C   UNL     1      22.541   3.404  23.544  0.00  0.00    +0.222 A 
ATOM     17  C   UNL     1      22.713   1.791  24.879  0.00  0.00    +0.252 A 
BRANCH  17  20
ATOM     20  C   UNL     1      22.951   0.427  25.253  0.00  0.00    +0.080 A 
ATOM     22  C   UNL     1      21.890  -0.436  25.525  0.00  0.00    +0.132 A 
ATOM     23  C   UNL     1      24.265  -0.033  25.343  0.00  0.00    +0.017 A 
ATOM     24  C   UNL     1      22.142  -1.759  25.889  0.00  0.00    +0.046 A 
ATOM     25  C   UNL     1      24.517  -1.356  25.708  0.00  0.00    +0.001 A 
ATOM     26  C   UNL     1      23.455  -2.219  25.980  0.00  0.00    +0.004 A 
BRANCH  22   2
ATOM      2  O   UNL     1      20.596  -0.013  25.445  0.00  0.00    -0.494 OA
ATOM     29  C   UNL     1      19.607  -1.005  25.180  0.00  0.00    +0.277 C 
ENDBRANCH  22   2
ENDBRANCH  17  20
ENDBRANCH   8  13
BRANCH   4  12
ATOM     12  C   UNL     1      20.236   6.583  20.791  0.00  0.00    +0.119 C 
BRANCH  12  14
ATOM     14  C   UNL     1      18.748   6.569  20.564  0.00  0.00    -0.033 A 
ATOM     15  C   UNL     1      17.899   7.204  21.472  0.00  0.00    +0.007 A 
ATOM     16  C   UNL     1      18.218   5.923  19.448  0.00  0.00    +0.007 A 
ATOM     18  C   UNL     1      16.520   7.192  21.262  0.00  0.00    +0.023 A 
ATOM     19  C   UNL     1      16.839   5.911  19.239  0.00  0.00    +0.023 A 
ATOM     21  C   UNL     1      15.991   6.545  20.145  0.00  0.00    +0.033 A 
BRANCH  21   7
ATOM      3  O   UNL     1      14.248   8.364  18.494  0.00  0.00    -0.276 OA
ATOM      7  N   UNL     1      14.611   6.533  19.935  0.00  0.00    -0.286 N 
ATOM     27  C   UNL     1      13.848   7.411  19.153  0.00  0.00    +0.214 C 
ATOM     28  C   UNL     1      12.382   7.058  19.186  0.00  0.00    +0.109 C 
ATOM     30  H   UNL     1      14.105   5.791  20.413  0.00  0.00    +0.155 HD
ENDBRANCH  21   7
ENDBRANCH  12  14
ENDBRANCH   4  12
TORSDOF 6
ENDMDL
MODEL 9
REMARK VINA RESULT:      -6.6      4.505      7.428
REMARK  Name = 51137477
REMARK  8 active torsions:
REMARK  status: ('A' for Active; 'I' for Inactive)
REMARK    1  A    between atoms: O_2  and  C_22
REMARK    2  A    between atoms: O_2  and  C_29
REMARK    3  A    between atoms: N_4  and  C_12
REMARK    4  A    between atoms: N_7  and  C_21
REMARK    5  A    between atoms: C_8  and  C_13
REMARK    6  A    between atoms: C_12  and  C_14
REMARK    7  A    between atoms: C_17  and  C_20
REMARK    8  A    between atoms: C_27  and  C_28
REMARK                            x       y       z     vdW  Elec       q    Type
REMARK                         _______ _______ _______ _____ _____    ______ ____
ROOT
ATOM      4  N   UNL     1     -10.082  -9.821  18.080  0.00  0.00    -0.297 NA
ATOM      8  C   UNL     1      -8.257 -11.317  17.809  0.00  0.00    +0.092 C 
ATOM      9  C   UNL     1      -8.481 -10.976  19.290  0.00  0.00    +0.029 C 
ATOM     10  C   UNL     1      -9.448 -10.677  17.073  0.00  0.00    +0.097 C 
ATOM     11  C   UNL     1      -9.931 -10.526  19.351  0.00  0.00    +0.085 C 
ENDROOT
BRANCH   8  13
ATOM      1  O   UNL     1      -6.687 -10.946  15.966  0.00  0.00    -0.420 OA
ATOM      5  N   UNL     1      -5.858 -10.448  17.983  0.00  0.00    -0.112 NA
ATOM      6  N   UNL     1      -4.876 -10.194  17.044  0.00  0.00    -0.107 NA
ATOM     13  C   UNL     1      -6.897 -10.885  17.309  0.00  0.00    +0.222 A 
ATOM     17  C   UNL     1      -5.404 -10.499  15.881  0.00  0.00    +0.252 A 
BRANCH  17  20
ATOM     20  C   UNL     1      -4.848 -10.435  14.561  0.00  0.00    +0.080 A 
ATOM     22  C   UNL     1      -3.516 -10.777  14.328  0.00  0.00    +0.132 A 
ATOM     23  C   UNL     1      -5.657 -10.022  13.502  0.00  0.00    +0.017 A 
ATOM     24  C   UNL     1      -2.993 -10.706  13.037  0.00  0.00    +0.046 A 
ATOM     25  C   UNL     1      -5.134  -9.950  12.211  0.00  0.00    +0.001 A 
ATOM     26  C   UNL     1      -3.802 -10.293  11.978  0.00  0.00    +0.004 A 
BRANCH  22   2
ATOM      2  O   UNL     1      -2.702 -11.184  15.344  0.00  0.00    -0.494 OA
ATOM     29  C   UNL     1      -1.539 -10.398  15.594  0.00  0.00    +0.277 C 
ENDBRANCH  22   2
ENDBRANCH  17  20
ENDBRANCH   8  13
BRANCH   4  12
ATOM     12  C   UNL     1     -11.472  -9.526  17.767  0.00  0.00    +0.119 C 
BRANCH  12  14
ATOM     14  C   UNL     1     -11.601  -8.333  16.857  0.00  0.00    -0.033 A 
ATOM     15  C   UNL     1     -10.540  -7.435  16.731  0.00  0.00    +0.007 A 
ATOM     16  C   UNL     1     -12.779  -8.127  16.139  0.00  0.00    +0.007 A 
ATOM     18  C   UNL     1     -10.659  -6.330  15.888  0.00  0.00    +0.023 A 
ATOM     19  C   UNL     1     -12.897  -7.021  15.297  0.00  0.00    +0.023 A 
ATOM     21  C   UNL     1     -11.838  -6.124  15.171  0.00  0.00    +0.033 A 
BRANCH  21   7
ATOM      3  O   UNL     1     -12.379  -5.972  12.212  0.00  0.00    -0.276 OA
ATOM      7  N   UNL     1     -11.957  -5.019  14.327  0.00  0.00    -0.286 N 
ATOM     27  C   UNL     1     -12.209  -5.006  12.948  0.00  0.00    +0.214 C 
ATOM     28  C   UNL     1     -12.263  -3.602  12.403  0.00  0.00    +0.109 C 
ATOM     30  H   UNL     1     -11.845  -4.114  14.779  0.00  0.00    +0.155 HD
ENDBRANCH  21   7
ENDBRANCH  12  14
ENDBRANCH   4  12
TORSDOF 6
ENDMDL
MODEL 10
REMARK VINA RESULT:      -6.5      3.381      6.202
REMARK  Name = 51137477
REMARK  8 active torsions:
REMARK  status: ('A' for Active; 'I' for Inactive)
REMARK    1  A    between atoms: O_2  and  C_22
REMARK    2  A    between atoms: O_2  and  C_29
REMARK    3  A    between atoms: N_4  and  C_12
REMARK    4  A    between atoms: N_7  and  C_21
REMARK    5  A    between atoms: C_8  and  C_13
REMARK    6  A    between atoms: C_12  and  C_14
REMARK    7  A    between atoms: C_17  and  C_20
REMARK    8  A    between atoms: C_27  and  C_28
REMARK                            x       y       z     vdW  Elec       q    Type
REMARK                         _______ _______ _______ _____ _____    ______ ____
ROOT
ATOM      4  N   UNL     1      -4.229 -11.329  17.314  0.00  0.00    -0.297 NA
ATOM      8  C   UNL     1      -5.822 -10.452  18.844  0.00  0.00    +0.092 C 
ATOM      9  C   UNL     1      -5.377 -11.866  19.253  0.00  0.00    +0.029 C 
ATOM     10  C   UNL     1      -4.904 -10.076  17.668  0.00  0.00    +0.097 C 
ATOM     11  C   UNL     1      -4.028 -12.039  18.575  0.00  0.00    +0.085 C 
ENDROOT
BRANCH   8  13
ATOM      1  O   UNL     1      -7.696  -9.428  17.645  0.00  0.00    -0.420 OA
ATOM      5  N   UNL     1      -8.294 -11.081  19.028  0.00  0.00    -0.112 NA
ATOM      6  N   UNL     1      -9.438 -10.597  18.422  0.00  0.00    -0.107 NA
ATOM     13  C   UNL     1      -7.302 -10.370  18.545  0.00  0.00    +0.222 A 
ATOM     17  C   UNL     1      -9.041  -9.634  17.624  0.00  0.00    +0.252 A 
BRANCH  17  20
ATOM     20  C   UNL     1      -9.792  -8.781  16.749  0.00  0.00    +0.080 A 
ATOM     22  C   UNL     1      -9.980  -9.118  15.408  0.00  0.00    +0.132 A 
ATOM     23  C   UNL     1     -10.337  -7.601  17.254  0.00  0.00    +0.017 A 
ATOM     24  C   UNL     1     -10.712  -8.275  14.573  0.00  0.00    +0.046 A 
ATOM     25  C   UNL     1     -11.069  -6.757  16.418  0.00  0.00    +0.001 A 
ATOM     26  C   UNL     1     -11.257  -7.095  15.077  0.00  0.00    +0.004 A 
BRANCH  22   2
ATOM      2  O   UNL     1      -9.458 -10.266  14.888  0.00  0.00    -0.494 OA
ATOM     29  C   UNL     1      -8.357 -10.127  13.993  0.00  0.00    +0.277 C 
ENDBRANCH  22   2
ENDBRANCH  17  20
ENDBRANCH   8  13
BRANCH   4  12
ATOM     12  C   UNL     1      -2.986 -11.110  16.591  0.00  0.00    +0.119 C 
BRANCH  12  14
ATOM     14  C   UNL     1      -3.221 -10.914  15.117  0.00  0.00    -0.033 A 
ATOM     15  C   UNL     1      -4.468 -11.210  14.565  0.00  0.00    +0.007 A 
ATOM     16  C   UNL     1      -2.193 -10.436  14.304  0.00  0.00    +0.007 A 
ATOM     18  C   UNL     1      -4.686 -11.029  13.199  0.00  0.00    +0.023 A 
ATOM     19  C   UNL     1      -2.412 -10.255  12.939  0.00  0.00    +0.023 A 
ATOM     21  C   UNL     1      -3.658 -10.551  12.387  0.00  0.00    +0.033 A 
BRANCH  21   7
ATOM      3  O   UNL     1      -4.926  -8.261  10.897  0.00  0.00    -0.276 OA
ATOM      7  N   UNL     1      -3.876 -10.369  11.020  0.00  0.00    -0.286 N 
ATOM     27  C   UNL     1      -4.476  -9.277  10.378  0.00  0.00    +0.214 C 
ATOM     28  C   UNL     1      -4.524  -9.466   8.883  0.00  0.00    +0.109 C 
ATOM     30  H   UNL     1      -3.555 -11.129  10.424  0.00  0.00    +0.155 HD
ENDBRANCH  21   7
ENDBRANCH  12  14
ENDBRANCH   4  12
TORSDOF 6
ENDMDL
