MODEL 1
REMARK VINA RESULT:      -6.2      0.000      0.000
REMARK  Name = 75536535
REMARK  7 active torsions:
REMARK  status: ('A' for Active; 'I' for Inactive)
REMARK    1  A    between atoms: O_2  and  C_9
REMARK    2  A    between atoms: N_5  and  C_8
REMARK    3  A    between atoms: N_5  and  C_10
REMARK    4  A    between atoms: N_7  and  C_18
REMARK    5  A    between atoms: C_11  and  C_18
REMARK    6  A    between atoms: C_12  and  C_21
REMARK    7  A    between atoms: C_22  and  C_23
REMARK                            x       y       z     vdW  Elec       q    Type
REMARK                         _______ _______ _______ _____ _____    ______ ____
ROOT
ATOM      1  O   UNL     1      11.816   8.034   4.730  0.00  0.00    -0.371 OA
ATOM      8  C   UNL     1      11.361   5.976   3.634  0.00  0.00    +0.111 C 
ATOM      9  C   UNL     1      11.035   5.834   5.109  0.00  0.00    +0.164 C 
ATOM     11  C   UNL     1      10.868   7.291   5.515  0.00  0.00    +0.165 C 
ATOM     15  C   UNL     1      12.257   7.204   3.641  0.00  0.00    +0.181 C 
ENDROOT
BRANCH   9   2
ATOM      2  O   UNL     1       9.858   5.084   5.338  0.00  0.00    -0.388 OA
ATOM     26  H   UNL     1       9.972   4.579   6.161  0.00  0.00    +0.210 HD
ENDBRANCH   9   2
BRANCH   8   5
ATOM      5  N   UNL     1      12.008   4.807   3.063  0.00  0.00    -0.306 NA
ATOM     24  H   UNL     1      11.466   3.968   3.271  0.00  0.00    +0.123 HD
BRANCH   5  10
ATOM      4  O   UNL     1       9.968   3.454  -2.577  0.00  0.00    -0.276 OA
ATOM      6  N   UNL     1      11.645   4.023  -1.074  0.00  0.00    -0.302 N 
ATOM     10  C   UNL     1      12.164   4.954   1.618  0.00  0.00    +0.057 C 
ATOM     16  C   UNL     1      12.882   3.729   1.039  0.00  0.00    +0.037 C 
ATOM     17  C   UNL     1      10.792   5.134   0.956  0.00  0.00    +0.037 C 
ATOM     19  C   UNL     1      12.974   3.815  -0.484  0.00  0.00    +0.109 C 
ATOM     20  C   UNL     1      10.926   5.194  -0.565  0.00  0.00    +0.109 C 
ATOM     22  C   UNL     1      11.072   3.236  -2.072  0.00  0.00    +0.212 C 
ATOM     23  C   UNL     1      11.876   2.049  -2.540  0.00  0.00    +0.109 C 
ENDBRANCH   5  10
ENDBRANCH   8   5
BRANCH  11  18
ATOM     18  C   UNL     1      11.121   7.537   6.992  0.00  0.00    +0.138 C 
BRANCH  18   7
ATOM      3  O   UNL     1       8.464   7.495   8.174  0.00  0.00    -0.276 OA
ATOM      7  N   UNL     1      10.540   6.504   7.800  0.00  0.00    -0.313 N 
ATOM     21  C   UNL     1       9.256   6.572   8.323  0.00  0.00    +0.216 C 
ATOM     25  H   UNL     1      11.105   5.682   7.992  0.00  0.00    +0.149 HD
BRANCH  21  12
ATOM     12  C   UNL     1       8.856   5.382   9.132  0.00  0.00    +0.075 C 
ATOM     13  C   UNL     1       9.551   4.085   8.883  0.00  0.00    +0.013 C 
ATOM     14  C   UNL     1       9.817   4.853  10.143  0.00  0.00    +0.013 C 
ENDBRANCH  21  12
ENDBRANCH  18   7
ENDBRANCH  11  18
TORSDOF 6
ENDMDL
MODEL 2
REMARK VINA RESULT:      -6.1     16.615     19.733
REMARK  Name = 75536535
REMARK  7 active torsions:
REMARK  status: ('A' for Active; 'I' for Inactive)
REMARK    1  A    between atoms: O_2  and  C_9
REMARK    2  A    between atoms: N_5  and  C_8
REMARK    3  A    between atoms: N_5  and  C_10
REMARK    4  A    between atoms: N_7  and  C_18
REMARK    5  A    between atoms: C_11  and  C_18
REMARK    6  A    between atoms: C_12  and  C_21
REMARK    7  A    between atoms: C_22  and  C_23
REMARK                            x       y       z     vdW  Elec       q    Type
REMARK                         _______ _______ _______ _____ _____    ______ ____
ROOT
ATOM      1  O   UNL     1      19.985   6.603  22.040  0.00  0.00    -0.371 OA
ATOM      8  C   UNL     1      17.900   6.625  20.903  0.00  0.00    +0.111 C 
ATOM      9  C   UNL     1      18.955   6.030  19.990  0.00  0.00    +0.164 C 
ATOM     11  C   UNL     1      20.015   5.612  20.999  0.00  0.00    +0.165 C 
ATOM     15  C   UNL     1      18.761   7.348  21.926  0.00  0.00    +0.181 C 
ENDROOT
BRANCH   9   2
ATOM      2  O   UNL     1      18.474   4.929  19.244  0.00  0.00    -0.388 OA
ATOM     26  H   UNL     1      17.623   5.178  18.846  0.00  0.00    +0.210 HD
ENDBRANCH   9   2
BRANCH   8   5
ATOM      5  N   UNL     1      16.968   7.509  20.222  0.00  0.00    -0.306 NA
ATOM     24  H   UNL     1      17.177   7.537  19.223  0.00  0.00    +0.123 HD
BRANCH   5  10
ATOM      4  O   UNL     1      10.979   8.418  19.170  0.00  0.00    -0.276 OA
ATOM      6  N   UNL     1      12.750   7.629  20.450  0.00  0.00    -0.302 N 
ATOM     10  C   UNL     1      15.590   7.070  20.430  0.00  0.00    +0.057 C 
ATOM     16  C   UNL     1      14.941   7.891  21.551  0.00  0.00    +0.037 C 
ATOM     17  C   UNL     1      14.790   7.211  19.129  0.00  0.00    +0.037 C 
ATOM     19  C   UNL     1      13.470   7.515  21.724  0.00  0.00    +0.109 C 
ATOM     20  C   UNL     1      13.323   6.848  19.350  0.00  0.00    +0.109 C 
ATOM     22  C   UNL     1      11.585   8.367  20.243  0.00  0.00    +0.212 C 
ATOM     23  C   UNL     1      11.061   9.146  21.423  0.00  0.00    +0.109 C 
ENDBRANCH   5  10
ENDBRANCH   8   5
BRANCH  11  18
ATOM     18  C   UNL     1      21.411   5.534  20.406  0.00  0.00    +0.138 C 
BRANCH  18   7
ATOM      3  O   UNL     1      23.979   4.607  21.408  0.00  0.00    -0.276 OA
ATOM      7  N   UNL     1      21.910   4.189  20.422  0.00  0.00    -0.313 N 
ATOM     21  C   UNL     1      23.155   3.840  20.924  0.00  0.00    +0.216 C 
ATOM     25  H   UNL     1      21.311   3.461  20.045  0.00  0.00    +0.149 HD
BRANCH  21  12
ATOM     12  C   UNL     1      23.467   2.382  20.842  0.00  0.00    +0.075 C 
ATOM     13  C   UNL     1      24.895   1.954  20.910  0.00  0.00    +0.013 C 
ATOM     14  C   UNL     1      23.974   1.692  22.064  0.00  0.00    +0.013 C 
ENDBRANCH  21  12
ENDBRANCH  18   7
ENDBRANCH  11  18
TORSDOF 6
ENDMDL
MODEL 3
REMARK VINA RESULT:      -6.1     16.220     19.175
REMARK  Name = 75536535
REMARK  7 active torsions:
REMARK  status: ('A' for Active; 'I' for Inactive)
REMARK    1  A    between atoms: O_2  and  C_9
REMARK    2  A    between atoms: N_5  and  C_8
REMARK    3  A    between atoms: N_5  and  C_10
REMARK    4  A    between atoms: N_7  and  C_18
REMARK    5  A    between atoms: C_11  and  C_18
REMARK    6  A    between atoms: C_12  and  C_21
REMARK    7  A    between atoms: C_22  and  C_23
REMARK                            x       y       z     vdW  Elec       q    Type
REMARK                         _______ _______ _______ _____ _____    ______ ____
ROOT
ATOM      1  O   UNL     1      15.177   8.775  19.912  0.00  0.00    -0.371 OA
ATOM      8  C   UNL     1      17.014   7.359  20.425  0.00  0.00    +0.111 C 
ATOM      9  C   UNL     1      15.967   6.558  19.674  0.00  0.00    +0.164 C 
ATOM     11  C   UNL     1      15.180   7.669  18.993  0.00  0.00    +0.165 C 
ATOM     15  C   UNL     1      16.198   8.551  20.900  0.00  0.00    +0.181 C 
ENDROOT
BRANCH   9   2
ATOM      2  O   UNL     1      16.532   5.663  18.738  0.00  0.00    -0.388 OA
ATOM     26  H   UNL     1      15.821   5.110  18.374  0.00  0.00    +0.210 HD
ENDBRANCH   9   2
BRANCH   8   5
ATOM      5  N   UNL     1      17.636   6.628  21.517  0.00  0.00    -0.306 NA
ATOM     24  H   UNL     1      17.253   5.684  21.572  0.00  0.00    +0.123 HD
BRANCH   5  10
ATOM      4  O   UNL     1      22.740   3.205  21.341  0.00  0.00    -0.276 OA
ATOM      6  N   UNL     1      21.607   5.198  21.718  0.00  0.00    -0.302 N 
ATOM     10  C   UNL     1      19.085   6.568  21.343  0.00  0.00    +0.057 C 
ATOM     16  C   UNL     1      19.778   6.522  22.710  0.00  0.00    +0.037 C 
ATOM     17  C   UNL     1      19.464   5.339  20.507  0.00  0.00    +0.037 C 
ATOM     19  C   UNL     1      21.290   6.363  22.553  0.00  0.00    +0.109 C 
ATOM     20  C   UNL     1      20.982   5.205  20.393  0.00  0.00    +0.109 C 
ATOM     22  C   UNL     1      22.461   4.156  22.076  0.00  0.00    +0.212 C 
ATOM     23  C   UNL     1      23.063   4.221  23.457  0.00  0.00    +0.109 C 
ENDBRANCH   5  10
ENDBRANCH   8   5
BRANCH  11  18
ATOM     18  C   UNL     1      13.752   7.277  18.658  0.00  0.00    +0.138 C 
BRANCH  18   7
ATOM      3  O   UNL     1      11.596   6.344  20.372  0.00  0.00    -0.276 OA
ATOM      7  N   UNL     1      12.808   8.073  19.387  0.00  0.00    -0.313 N 
ATOM     21  C   UNL     1      11.807   7.537  20.185  0.00  0.00    +0.216 C 
ATOM     25  H   UNL     1      12.885   9.083  19.309  0.00  0.00    +0.149 HD
BRANCH  21  12
ATOM     12  C   UNL     1      10.939   8.552  20.852  0.00  0.00    +0.075 C 
ATOM     13  C   UNL     1      11.115   8.787  22.315  0.00  0.00    +0.013 C 
ATOM     14  C   UNL     1      11.564   9.821  21.326  0.00  0.00    +0.013 C 
ENDBRANCH  21  12
ENDBRANCH  18   7
ENDBRANCH  11  18
TORSDOF 6
ENDMDL
MODEL 4
REMARK VINA RESULT:      -6.0      1.541      1.788
REMARK  Name = 75536535
REMARK  7 active torsions:
REMARK  status: ('A' for Active; 'I' for Inactive)
REMARK    1  A    between atoms: O_2  and  C_9
REMARK    2  A    between atoms: N_5  and  C_8
REMARK    3  A    between atoms: N_5  and  C_10
REMARK    4  A    between atoms: N_7  and  C_18
REMARK    5  A    between atoms: C_11  and  C_18
REMARK    6  A    between atoms: C_12  and  C_21
REMARK    7  A    between atoms: C_22  and  C_23
REMARK                            x       y       z     vdW  Elec       q    Type
REMARK                         _______ _______ _______ _____ _____    ______ ____
ROOT
ATOM      1  O   UNL     1       9.499   7.520   3.495  0.00  0.00    -0.371 OA
ATOM      8  C   UNL     1      11.352   6.072   3.159  0.00  0.00    +0.111 C 
ATOM      9  C   UNL     1      10.661   5.698   4.458  0.00  0.00    +0.164 C 
ATOM     11  C   UNL     1       9.284   6.312   4.245  0.00  0.00    +0.165 C 
ATOM     15  C   UNL     1      10.820   7.477   2.930  0.00  0.00    +0.181 C 
ENDROOT
BRANCH   9   2
ATOM      2  O   UNL     1      10.590   4.300   4.655  0.00  0.00    -0.388 OA
ATOM     26  H   UNL     1      11.412   3.902   4.323  0.00  0.00    +0.210 HD
ENDBRANCH   9   2
BRANCH   8   5
ATOM      5  N   UNL     1      12.802   6.020   3.234  0.00  0.00    -0.306 NA
ATOM     24  H   UNL     1      13.094   5.555   4.093  0.00  0.00    +0.123 HD
BRANCH   5  10
ATOM      4  O   UNL     1      12.556   4.902  -2.807  0.00  0.00    -0.276 OA
ATOM      6  N   UNL     1      13.077   4.311  -0.622  0.00  0.00    -0.302 N 
ATOM     10  C   UNL     1      13.357   5.322   2.077  0.00  0.00    +0.057 C 
ATOM     16  C   UNL     1      12.527   4.069   1.770  0.00  0.00    +0.037 C 
ATOM     17  C   UNL     1      13.386   6.257   0.861  0.00  0.00    +0.037 C 
ATOM     19  C   UNL     1      13.031   3.373   0.506  0.00  0.00    +0.109 C 
ATOM     20  C   UNL     1      13.874   5.517  -0.383  0.00  0.00    +0.109 C 
ATOM     22  C   UNL     1      12.472   4.114  -1.862  0.00  0.00    +0.212 C 
ATOM     23  C   UNL     1      11.668   2.849  -2.027  0.00  0.00    +0.109 C 
ENDBRANCH   5  10
ENDBRANCH   8   5
BRANCH  11  18
ATOM     18  C   UNL     1       8.563   6.634   5.542  0.00  0.00    +0.138 C 
BRANCH  18   7
ATOM      3  O   UNL     1       8.622   7.478   8.324  0.00  0.00    -0.276 OA
ATOM      7  N   UNL     1       9.152   5.944   6.652  0.00  0.00    -0.313 N 
ATOM     21  C   UNL     1       9.130   6.427   7.953  0.00  0.00    +0.216 C 
ATOM     25  H   UNL     1       9.606   5.054   6.466  0.00  0.00    +0.149 HD
BRANCH  21  12
ATOM     12  C   UNL     1       9.803   5.542   8.950  0.00  0.00    +0.075 C 
ATOM     13  C   UNL     1       8.959   4.833   9.956  0.00  0.00    +0.013 C 
ATOM     14  C   UNL     1       9.606   4.067   8.841  0.00  0.00    +0.013 C 
ENDBRANCH  21  12
ENDBRANCH  18   7
ENDBRANCH  11  18
TORSDOF 6
ENDMDL
MODEL 5
REMARK VINA RESULT:      -6.0     25.689     28.130
REMARK  Name = 75536535
REMARK  7 active torsions:
REMARK  status: ('A' for Active; 'I' for Inactive)
REMARK    1  A    between atoms: O_2  and  C_9
REMARK    2  A    between atoms: N_5  and  C_8
REMARK    3  A    between atoms: N_5  and  C_10
REMARK    4  A    between atoms: N_7  and  C_18
REMARK    5  A    between atoms: C_11  and  C_18
REMARK    6  A    between atoms: C_12  and  C_21
REMARK    7  A    between atoms: C_22  and  C_23
REMARK                            x       y       z     vdW  Elec       q    Type
REMARK                         _______ _______ _______ _____ _____    ______ ____
ROOT
ATOM      1  O   UNL     1     -12.172  -7.757  13.983  0.00  0.00    -0.371 OA
ATOM      8  C   UNL     1     -10.384  -8.072  15.514  0.00  0.00    +0.111 C 
ATOM      9  C   UNL     1     -10.816  -6.617  15.549  0.00  0.00    +0.164 C 
ATOM     11  C   UNL     1     -12.220  -6.713  14.971  0.00  0.00    +0.165 C 
ATOM     15  C   UNL     1     -10.978  -8.529  14.192  0.00  0.00    +0.181 C 
ENDROOT
BRANCH   9   2
ATOM      2  O   UNL     1     -10.819  -6.080  16.857  0.00  0.00    -0.388 OA
ATOM     26  H   UNL     1     -11.524  -6.517  17.365  0.00  0.00    +0.210 HD
ENDBRANCH   9   2
BRANCH   8   5
ATOM      5  N   UNL     1      -8.944  -8.255  15.582  0.00  0.00    -0.306 NA
ATOM     24  H   UNL     1      -8.512  -7.476  16.080  0.00  0.00    +0.123 HD
BRANCH   5  10
ATOM      4  O   UNL     1      -6.525 -11.115  20.458  0.00  0.00    -0.276 OA
ATOM      6  N   UNL     1      -7.083 -10.996  18.206  0.00  0.00    -0.302 N 
ATOM     10  C   UNL     1      -8.612  -9.514  16.245  0.00  0.00    +0.057 C 
ATOM     16  C   UNL     1      -7.133  -9.853  16.021  0.00  0.00    +0.037 C 
ATOM     17  C   UNL     1      -8.920  -9.417  17.744  0.00  0.00    +0.037 C 
ATOM     19  C   UNL     1      -6.738 -11.117  16.784  0.00  0.00    +0.109 C 
ATOM     20  C   UNL     1      -8.491 -10.691  18.471  0.00  0.00    +0.109 C 
ATOM     22  C   UNL     1      -6.202 -11.187  19.269  0.00  0.00    +0.212 C 
ATOM     23  C   UNL     1      -4.770 -11.496  18.912  0.00  0.00    +0.109 C 
ENDBRANCH   5  10
ENDBRANCH   8   5
BRANCH  11  18
ATOM     18  C   UNL     1     -12.696  -5.421  14.330  0.00  0.00    +0.138 C 
BRANCH  18   7
ATOM      3  O   UNL     1     -12.389  -3.130  12.566  0.00  0.00    -0.276 OA
ATOM      7  N   UNL     1     -12.482  -5.433  12.912  0.00  0.00    -0.313 N 
ATOM     21  C   UNL     1     -12.346  -4.282  12.149  0.00  0.00    +0.216 C 
ATOM     25  H   UNL     1     -12.427  -6.337  12.452  0.00  0.00    +0.149 HD
BRANCH  21  12
ATOM     12  C   UNL     1     -12.128  -4.530  10.692  0.00  0.00    +0.075 C 
ATOM     13  C   UNL     1     -12.829  -3.653   9.709  0.00  0.00    +0.013 C 
ATOM     14  C   UNL     1     -11.348  -3.528   9.909  0.00  0.00    +0.013 C 
ENDBRANCH  21  12
ENDBRANCH  18   7
ENDBRANCH  11  18
TORSDOF 6
ENDMDL
MODEL 6
REMARK VINA RESULT:      -6.0     22.732     26.491
REMARK  Name = 75536535
REMARK  7 active torsions:
REMARK  status: ('A' for Active; 'I' for Inactive)
REMARK    1  A    between atoms: O_2  and  C_9
REMARK    2  A    between atoms: N_5  and  C_8
REMARK    3  A    between atoms: N_5  and  C_10
REMARK    4  A    between atoms: N_7  and  C_18
REMARK    5  A    between atoms: C_11  and  C_18
REMARK    6  A    between atoms: C_12  and  C_21
REMARK    7  A    between atoms: C_22  and  C_23
REMARK                            x       y       z     vdW  Elec       q    Type
REMARK                         _______ _______ _______ _____ _____    ______ ____
ROOT
ATOM      1  O   UNL     1      -1.814 -11.430  15.034  0.00  0.00    -0.371 OA
ATOM      8  C   UNL     1      -4.089 -10.938  15.508  0.00  0.00    +0.111 C 
ATOM      9  C   UNL     1      -3.888 -10.949  14.004  0.00  0.00    +0.164 C 
ATOM     11  C   UNL     1      -2.610 -11.766  13.884  0.00  0.00    +0.165 C 
ATOM     15  C   UNL     1      -2.659 -10.784  16.001  0.00  0.00    +0.181 C 
ENDROOT
BRANCH   9   2
ATOM      2  O   UNL     1      -4.965 -11.551  13.314  0.00  0.00    -0.388 OA
ATOM     26  H   UNL     1      -5.709 -10.925  13.303  0.00  0.00    +0.210 HD
ENDBRANCH   9   2
BRANCH   8   5
ATOM      5  N   UNL     1      -4.965  -9.875  15.972  0.00  0.00    -0.306 NA
ATOM     24  H   UNL     1      -5.038  -9.144  15.264  0.00  0.00    +0.123 HD
BRANCH   5  10
ATOM      4  O   UNL     1      -9.335 -10.853  20.187  0.00  0.00    -0.276 OA
ATOM      6  N   UNL     1      -8.221 -11.371  18.215  0.00  0.00    -0.302 N 
ATOM     10  C   UNL     1      -6.293 -10.398  16.286  0.00  0.00    +0.057 C 
ATOM     16  C   UNL     1      -6.175 -11.797  16.904  0.00  0.00    +0.037 C 
ATOM     17  C   UNL     1      -7.020  -9.447  17.245  0.00  0.00    +0.037 C 
ATOM     19  C   UNL     1      -7.545 -12.326  17.328  0.00  0.00    +0.109 C 
ATOM     20  C   UNL     1      -8.373 -10.023  17.661  0.00  0.00    +0.109 C 
ATOM     22  C   UNL     1      -8.739 -11.666  19.475  0.00  0.00    +0.212 C 
ATOM     23  C   UNL     1      -8.538 -13.075  19.974  0.00  0.00    +0.109 C 
ENDBRANCH   5  10
ENDBRANCH   8   5
BRANCH  11  18
ATOM     18  C   UNL     1      -1.826 -11.475  12.616  0.00  0.00    +0.138 C 
BRANCH  18   7
ATOM      3  O   UNL     1      -1.102  -9.116  11.078  0.00  0.00    -0.276 OA
ATOM      7  N   UNL     1      -2.630 -10.778  11.655  0.00  0.00    -0.313 N 
ATOM     21  C   UNL     1      -2.197  -9.655  10.965  0.00  0.00    +0.216 C 
ATOM     25  H   UNL     1      -3.564 -11.135  11.475  0.00  0.00    +0.149 HD
BRANCH  21  12
ATOM     12  C   UNL     1      -3.199  -9.093  10.011  0.00  0.00    +0.075 C 
ATOM     13  C   UNL     1      -4.232 -10.007   9.443  0.00  0.00    +0.013 C 
ATOM     14  C   UNL     1      -4.618  -8.972  10.457  0.00  0.00    +0.013 C 
ENDBRANCH  21  12
ENDBRANCH  18   7
ENDBRANCH  11  18
TORSDOF 6
ENDMDL
MODEL 7
REMARK VINA RESULT:      -5.9     33.593     37.298
REMARK  Name = 75536535
REMARK  7 active torsions:
REMARK  status: ('A' for Active; 'I' for Inactive)
REMARK    1  A    between atoms: O_2  and  C_9
REMARK    2  A    between atoms: N_5  and  C_8
REMARK    3  A    between atoms: N_5  and  C_10
REMARK    4  A    between atoms: N_7  and  C_18
REMARK    5  A    between atoms: C_11  and  C_18
REMARK    6  A    between atoms: C_12  and  C_21
REMARK    7  A    between atoms: C_22  and  C_23
REMARK                            x       y       z     vdW  Elec       q    Type
REMARK                         _______ _______ _______ _____ _____    ______ ____
ROOT
ATOM      1  O   UNL     1     -13.590   0.960  30.995  0.00  0.00    -0.371 OA
ATOM      8  C   UNL     1     -15.316   1.393  29.423  0.00  0.00    +0.111 C 
ATOM      9  C   UNL     1     -15.775   1.844  30.797  0.00  0.00    +0.164 C 
ATOM     11  C   UNL     1     -14.442   1.994  31.517  0.00  0.00    +0.165 C 
ATOM     15  C   UNL     1     -14.171   0.460  29.779  0.00  0.00    +0.181 C 
ENDROOT
BRANCH   9   2
ATOM      2  O   UNL     1     -16.495   3.060  30.761  0.00  0.00    -0.388 OA
ATOM     26  H   UNL     1     -17.210   2.973  30.108  0.00  0.00    +0.210 HD
ENDBRANCH   9   2
BRANCH   8   5
ATOM      5  N   UNL     1     -16.356   0.741  28.645  0.00  0.00    -0.306 NA
ATOM     24  H   UNL     1     -17.107   0.423  29.258  0.00  0.00    +0.123 HD
BRANCH   5  10
ATOM      4  O   UNL     1     -16.286   2.689  22.813  0.00  0.00    -0.276 OA
ATOM      6  N   UNL     1     -16.640   3.005  25.087  0.00  0.00    -0.302 N 
ATOM     10  C   UNL     1     -16.892   1.647  27.632  0.00  0.00    +0.057 C 
ATOM     16  C   UNL     1     -15.955   2.848  27.451  0.00  0.00    +0.037 C 
ATOM     17  C   UNL     1     -17.073   0.903  26.303  0.00  0.00    +0.037 C 
ATOM     19  C   UNL     1     -16.446   3.763  26.330  0.00  0.00    +0.109 C 
ATOM     20  C   UNL     1     -17.543   1.857  25.205  0.00  0.00    +0.109 C 
ATOM     22  C   UNL     1     -16.078   3.321  23.851  0.00  0.00    +0.212 C 
ATOM     23  C   UNL     1     -15.158   4.516  23.815  0.00  0.00    +0.109 C 
ENDBRANCH   5  10
ENDBRANCH   8   5
BRANCH  11  18
ATOM     18  C   UNL     1     -14.554   1.855  33.025  0.00  0.00    +0.138 C 
BRANCH  18   7
ATOM      3  O   UNL     1     -13.906   4.614  33.680  0.00  0.00    -0.276 OA
ATOM      7  N   UNL     1     -15.426   2.850  33.577  0.00  0.00    -0.313 N 
ATOM     21  C   UNL     1     -15.026   4.149  33.858  0.00  0.00    +0.216 C 
ATOM     25  H   UNL     1     -16.387   2.580  33.768  0.00  0.00    +0.149 HD
BRANCH  21  12
ATOM     12  C   UNL     1     -16.101   5.017  34.426  0.00  0.00    +0.075 C 
ATOM     13  C   UNL     1     -16.614   6.148  33.600  0.00  0.00    +0.013 C 
ATOM     14  C   UNL     1     -17.468   4.937  33.834  0.00  0.00    +0.013 C 
ENDBRANCH  21  12
ENDBRANCH  18   7
ENDBRANCH  11  18
TORSDOF 6
ENDMDL
MODEL 8
REMARK VINA RESULT:      -5.8     32.598     36.304
REMARK  Name = 75536535
REMARK  7 active torsions:
REMARK  status: ('A' for Active; 'I' for Inactive)
REMARK    1  A    between atoms: O_2  and  C_9
REMARK    2  A    between atoms: N_5  and  C_8
REMARK    3  A    between atoms: N_5  and  C_10
REMARK    4  A    between atoms: N_7  and  C_18
REMARK    5  A    between atoms: C_11  and  C_18
REMARK    6  A    between atoms: C_12  and  C_21
REMARK    7  A    between atoms: C_22  and  C_23
REMARK                            x       y       z     vdW  Elec       q    Type
REMARK                         _______ _______ _______ _____ _____    ______ ____
ROOT
ATOM      1  O   UNL     1     -16.454   0.425  29.042  0.00  0.00    -0.371 OA
ATOM      8  C   UNL     1     -16.292   2.461  27.829  0.00  0.00    +0.111 C 
ATOM      9  C   UNL     1     -15.535   2.602  29.137  0.00  0.00    +0.164 C 
ATOM     11  C   UNL     1     -15.293   1.143  29.496  0.00  0.00    +0.165 C 
ATOM     15  C   UNL     1     -17.178   1.261  28.123  0.00  0.00    +0.181 C 
ENDROOT
BRANCH   9   2
ATOM      2  O   UNL     1     -14.323   3.317  28.991  0.00  0.00    -0.388 OA
ATOM     26  H   UNL     1     -13.586   2.707  29.162  0.00  0.00    +0.210 HD
ENDBRANCH   9   2
BRANCH   8   5
ATOM      5  N   UNL     1     -17.048   3.646  27.461  0.00  0.00    -0.306 NA
ATOM     24  H   UNL     1     -16.585   4.483  27.815  0.00  0.00    +0.123 HD
BRANCH   5  10
ATOM      4  O   UNL     1     -14.414   4.570  21.982  0.00  0.00    -0.276 OA
ATOM      6  N   UNL     1     -16.227   4.630  23.434  0.00  0.00    -0.302 N 
ATOM     10  C   UNL     1     -17.198   3.736  26.011  0.00  0.00    +0.057 C 
ATOM     16  C   UNL     1     -17.293   5.206  25.582  0.00  0.00    +0.037 C 
ATOM     17  C   UNL     1     -16.016   3.050  25.315  0.00  0.00    +0.037 C 
ATOM     19  C   UNL     1     -17.355   5.330  24.060  0.00  0.00    +0.109 C 
ATOM     20  C   UNL     1     -16.105   3.216  23.799  0.00  0.00    +0.109 C 
ATOM     22  C   UNL     1     -15.333   5.191  22.523  0.00  0.00    +0.212 C 
ATOM     23  C   UNL     1     -15.525   6.652  22.201  0.00  0.00    +0.109 C 
ENDBRANCH   5  10
ENDBRANCH   8   5
BRANCH  11  18
ATOM     18  C   UNL     1     -15.098   0.914  30.984  0.00  0.00    +0.138 C 
BRANCH  18   7
ATOM      3  O   UNL     1     -14.488   1.302  33.801  0.00  0.00    -0.276 OA
ATOM      7  N   UNL     1     -15.001   2.157  31.694  0.00  0.00    -0.313 N 
ATOM     21  C   UNL     1     -14.702   2.244  33.047  0.00  0.00    +0.216 C 
ATOM     25  H   UNL     1     -15.159   3.012  31.170  0.00  0.00    +0.149 HD
BRANCH  21  12
ATOM     12  C   UNL     1     -14.650   3.639  33.578  0.00  0.00    +0.075 C 
ATOM     13  C   UNL     1     -14.020   4.698  32.736  0.00  0.00    +0.013 C 
ATOM     14  C   UNL     1     -15.506   4.678  32.935  0.00  0.00    +0.013 C 
ENDBRANCH  21  12
ENDBRANCH  18   7
ENDBRANCH  11  18
TORSDOF 6
ENDMDL
MODEL 9
REMARK VINA RESULT:      -5.8     29.539     34.689
REMARK  Name = 75536535
REMARK  7 active torsions:
REMARK  status: ('A' for Active; 'I' for Inactive)
REMARK    1  A    between atoms: O_2  and  C_9
REMARK    2  A    between atoms: N_5  and  C_8
REMARK    3  A    between atoms: N_5  and  C_10
REMARK    4  A    between atoms: N_7  and  C_18
REMARK    5  A    between atoms: C_11  and  C_18
REMARK    6  A    between atoms: C_12  and  C_21
REMARK    7  A    between atoms: C_22  and  C_23
REMARK                            x       y       z     vdW  Elec       q    Type
REMARK                         _______ _______ _______ _____ _____    ______ ____
ROOT
ATOM      1  O   UNL     1     -17.522   5.759  23.687  0.00  0.00    -0.371 OA
ATOM      8  C   UNL     1     -16.746   4.017  25.102  0.00  0.00    +0.111 C 
ATOM      9  C   UNL     1     -15.848   4.100  23.882  0.00  0.00    +0.164 C 
ATOM     11  C   UNL     1     -16.134   5.516  23.403  0.00  0.00    +0.165 C 
ATOM     15  C   UNL     1     -17.978   4.765  24.620  0.00  0.00    +0.181 C 
ENDROOT
BRANCH   9   2
ATOM      2  O   UNL     1     -14.482   3.915  24.196  0.00  0.00    -0.388 OA
ATOM     26  H   UNL     1     -14.364   4.063  25.149  0.00  0.00    +0.210 HD
ENDBRANCH   9   2
BRANCH   8   5
ATOM      5  N   UNL     1     -17.038   2.656  25.521  0.00  0.00    -0.306 NA
ATOM     24  H   UNL     1     -16.406   2.002  25.058  0.00  0.00    +0.123 HD
BRANCH   5  10
ATOM      4  O   UNL     1     -13.384   2.380  30.459  0.00  0.00    -0.276 OA
ATOM      6  N   UNL     1     -15.344   1.882  29.315  0.00  0.00    -0.302 N 
ATOM     10  C   UNL     1     -16.917   2.522  26.971  0.00  0.00    +0.057 C 
ATOM     16  C   UNL     1     -16.578   1.072  27.339  0.00  0.00    +0.037 C 
ATOM     17  C   UNL     1     -15.840   3.476  27.501  0.00  0.00    +0.037 C 
ATOM     19  C   UNL     1     -16.355   0.927  28.844  0.00  0.00    +0.109 C 
ATOM     20  C   UNL     1     -15.632   3.284  29.002  0.00  0.00    +0.109 C 
ATOM     22  C   UNL     1     -14.201   1.555  30.044  0.00  0.00    +0.212 C 
ATOM     23  C   UNL     1     -13.974   0.090  30.322  0.00  0.00    +0.109 C 
ENDBRANCH   5  10
ENDBRANCH   8   5
BRANCH  11  18
ATOM     18  C   UNL     1     -15.871   5.713  21.920  0.00  0.00    +0.138 C 
BRANCH  18   7
ATOM      3  O   UNL     1     -14.243   7.984  21.115  0.00  0.00    -0.276 OA
ATOM      7  N   UNL     1     -14.466   5.723  21.636  0.00  0.00    -0.313 N 
ATOM     21  C   UNL     1     -13.769   6.862  21.257  0.00  0.00    +0.216 C 
ATOM     25  H   UNL     1     -13.962   4.845  21.721  0.00  0.00    +0.149 HD
BRANCH  21  12
ATOM     12  C   UNL     1     -12.313   6.642  21.013  0.00  0.00    +0.075 C 
ATOM     13  C   UNL     1     -11.777   6.876  19.641  0.00  0.00    +0.013 C 
ATOM     14  C   UNL     1     -11.447   7.829  20.751  0.00  0.00    +0.013 C 
ENDBRANCH  21  12
ENDBRANCH  18   7
ENDBRANCH  11  18
TORSDOF 6
ENDMDL
MODEL 10
REMARK VINA RESULT:      -5.7     14.731     18.906
REMARK  Name = 75536535
REMARK  7 active torsions:
REMARK  status: ('A' for Active; 'I' for Inactive)
REMARK    1  A    between atoms: O_2  and  C_9
REMARK    2  A    between atoms: N_5  and  C_8
REMARK    3  A    between atoms: N_5  and  C_10
REMARK    4  A    between atoms: N_7  and  C_18
REMARK    5  A    between atoms: C_11  and  C_18
REMARK    6  A    between atoms: C_12  and  C_21
REMARK    7  A    between atoms: C_22  and  C_23
REMARK                            x       y       z     vdW  Elec       q    Type
REMARK                         _______ _______ _______ _____ _____    ______ ____
ROOT
ATOM      1  O   UNL     1      13.833   7.726  17.842  0.00  0.00    -0.371 OA
ATOM      8  C   UNL     1      12.347   7.361  19.658  0.00  0.00    +0.111 C 
ATOM      9  C   UNL     1      11.820   8.504  18.810  0.00  0.00    +0.164 C 
ATOM     11  C   UNL     1      12.539   8.248  17.493  0.00  0.00    +0.165 C 
ATOM     15  C   UNL     1      13.800   7.303  19.215  0.00  0.00    +0.181 C 
ENDROOT
BRANCH   9   2
ATOM      2  O   UNL     1      10.415   8.468  18.659  0.00  0.00    -0.388 OA
ATOM     26  H   UNL     1      10.061   7.783  19.249  0.00  0.00    +0.210 HD
ENDBRANCH   9   2
BRANCH   8   5
ATOM      5  N   UNL     1      12.199   7.578  21.087  0.00  0.00    -0.306 NA
ATOM     24  H   UNL     1      12.952   7.112  21.594  0.00  0.00    +0.123 HD
BRANCH   5  10
ATOM      4  O   UNL     1      13.406  12.044  25.138  0.00  0.00    -0.276 OA
ATOM      6  N   UNL     1      12.241  11.158  23.334  0.00  0.00    -0.302 N 
ATOM     10  C   UNL     1      12.201   9.006  21.398  0.00  0.00    +0.057 C 
ATOM     16  C   UNL     1      10.960   9.366  22.224  0.00  0.00    +0.037 C 
ATOM     17  C   UNL     1      13.479   9.378  22.160  0.00  0.00    +0.037 C 
ATOM     19  C   UNL     1      10.987  10.836  22.641  0.00  0.00    +0.109 C 
ATOM     20  C   UNL     1      13.456  10.848  22.577  0.00  0.00    +0.109 C 
ATOM     22  C   UNL     1      12.339  11.751  24.592  0.00  0.00    +0.212 C 
ATOM     23  C   UNL     1      11.042  12.036  25.307  0.00  0.00    +0.109 C 
ENDBRANCH   5  10
ENDBRANCH   8   5
BRANCH  11  18
ATOM     18  C   UNL     1      12.701   9.496  16.644  0.00  0.00    +0.138 C 
BRANCH  18   7
ATOM      3  O   UNL     1      15.170  11.031  16.559  0.00  0.00    -0.276 OA
ATOM      7  N   UNL     1      13.053  10.631  17.447  0.00  0.00    -0.313 N 
ATOM     21  C   UNL     1      14.261  11.304  17.334  0.00  0.00    +0.216 C 
ATOM     25  H   UNL     1      12.373  10.953  18.130  0.00  0.00    +0.149 HD
BRANCH  21  12
ATOM     12  C   UNL     1      14.414  12.459  18.269  0.00  0.00    +0.075 C 
ATOM     13  C   UNL     1      13.618  13.694  18.009  0.00  0.00    +0.013 C 
ATOM     14  C   UNL     1      13.272  12.805  19.165  0.00  0.00    +0.013 C 
ENDBRANCH  21  12
ENDBRANCH  18   7
ENDBRANCH  11  18
TORSDOF 6
ENDMDL
