REMARK  Name = 7662560
REMARK  11 active torsions:
REMARK  status: ('A' for Active; 'I' for Inactive)
REMARK    1  A    between atoms: O_4  and  C_29
REMARK    2  A    between atoms: O_4  and  C_35
REMARK    3  A    between atoms: N_7  and  C_11
REMARK    4  A    between atoms: N_9  and  C_25
REMARK    5  A    between atoms: N_10  and  C_32
REMARK    6  A    between atoms: N_10  and  C_33
REMARK    7  A    between atoms: N_10  and  C_34
REMARK    8  A    between atoms: C_17  and  C_22
REMARK    9  A    between atoms: C_23  and  C_24
REMARK   10  A    between atoms: C_25  and  C_28
REMARK   11  A    between atoms: C_25  and  C_29
REMARK                            x       y       z     vdW  Elec       q    Type
REMARK                         _______ _______ _______ _____ _____    ______ ____
ROOT
ATOM      1  O   UNL     1      -2.274   3.731  -0.491  0.00  0.00    -0.253 OA
ATOM      3  O   UNL     1       2.439  -1.058   2.465  0.00  0.00    -0.270 OA
ATOM      6  N   UNL     1      -1.192   1.896   0.441  0.00  0.00    -0.271 N 
ATOM      7  N   UNL     1      -3.537   1.915   0.133  0.00  0.00    -0.296 N 
ATOM      8  N   UNL     1       1.269   0.539   1.222  0.00  0.00    -0.294 N 
ATOM     17  C   UNL     1      -1.227   0.620   1.172  0.00  0.00    +0.181 C 
ATOM     18  C   UNL     1       0.037   0.371   1.996  0.00  0.00    +0.140 C 
ATOM     19  C   UNL     1       0.115   2.548   0.321  0.00  0.00    +0.129 C 
ATOM     20  C   UNL     1       1.250   1.546   0.154  0.00  0.00    +0.127 C 
ATOM     21  C   UNL     1      -2.332   2.596  -0.006  0.00  0.00    +0.303 C 
ATOM     23  C   UNL     1       2.398  -0.208   1.575  0.00  0.00    +0.247 C 
ATOM     36  H   UNL     1      -3.537   0.945   0.421  0.00  0.00    +0.151 HD
ENDROOT
BRANCH   7  11
ATOM     11  C   UNL     1      -4.797   2.491  -0.280  0.00  0.00    +0.074 C 
ATOM     12  C   UNL     1      -5.944   2.007   0.613  0.00  0.00    +0.022 C 
ATOM     13  C   UNL     1      -5.080   2.194  -1.757  0.00  0.00    +0.022 C 
ATOM     14  C   UNL     1      -6.300   0.541   0.366  0.00  0.00    +0.002 C 
ATOM     15  C   UNL     1      -5.437   0.728  -2.001  0.00  0.00    +0.002 C 
ATOM     16  C   UNL     1      -6.588   0.273  -1.108  0.00  0.00    +0.000 C 
ENDBRANCH   7  11
BRANCH  23  24
ATOM     24  C   UNL     1       3.645   0.027   0.831  0.00  0.00    +0.037 A 
ATOM     26  C   UNL     1       3.922  -0.714  -0.319  0.00  0.00    +0.015 A 
ATOM     27  C   UNL     1       4.551   0.991   1.274  0.00  0.00    +0.015 A 
ATOM     30  C   UNL     1       5.104  -0.490  -1.024  0.00  0.00    +0.024 A 
ATOM     31  C   UNL     1       5.733   1.214   0.568  0.00  0.00    +0.024 A 
ATOM     32  C   UNL     1       6.010   0.473  -0.581  0.00  0.00    +0.029 A 
BRANCH  32  10
ATOM     10  N   UNL     1       7.206   0.698  -1.294  0.00  0.00    -0.336 N 
ATOM     33  C   UNL     1       7.509  -0.076  -2.481  0.00  0.00    +0.129 C 
ATOM     34  C   UNL     1       8.154   1.696  -0.841  0.00  0.00    +0.129 C 
ENDBRANCH  32  10
ENDBRANCH  23  24
BRANCH  17  22
ATOM      2  O   UNL     1      -0.956  -0.390  -0.977  0.00  0.00    -0.274 OA
ATOM      9  N   UNL     1      -2.126  -1.545   0.671  0.00  0.00    -0.301 N 
ATOM     22  C   UNL     1      -1.403  -0.479   0.164  0.00  0.00    +0.236 C 
ATOM     37  H   UNL     1      -2.382  -1.542   1.655  0.00  0.00    +0.150 HD
BRANCH   9  25
ATOM     25  C   UNL     1      -2.453  -2.719  -0.104  0.00  0.00    +0.179 C 
ATOM     28  C   UNL     1      -3.768  -3.317   0.371  0.00  0.00    +0.040 C 
BRANCH  25  29
ATOM      5  O   UNL     1      -0.342  -3.624   0.643  0.00  0.00    -0.249 OA
ATOM     29  C   UNL     1      -1.347  -3.762  -0.048  0.00  0.00    +0.327 C 
BRANCH  29   4
ATOM      4  O   UNL     1      -1.613  -4.841  -0.836  0.00  0.00    -0.467 OA
ATOM     35  C   UNL     1      -0.623  -5.875  -0.832  0.00  0.00    +0.280 C 
ENDBRANCH  29   4
ENDBRANCH  25  29
ENDBRANCH   9  25
ENDBRANCH  17  22
TORSDOF 7
