MODEL 1
REMARK VINA RESULT:      -6.6      0.000      0.000
REMARK  Name = 56775535
REMARK  8 active torsions:
REMARK  status: ('A' for Active; 'I' for Inactive)
REMARK    1  A    between atoms: O_3  and  C_19
REMARK    2  A    between atoms: O_3  and  C_25
REMARK    3  A    between atoms: N_4  and  C_7
REMARK    4  A    between atoms: N_4  and  C_11
REMARK    5  A    between atoms: C_7  and  C_10
REMARK    6  A    between atoms: C_10  and  C_12
REMARK    7  A    between atoms: C_11  and  C_13
REMARK    8  A    between atoms: C_15  and  C_19
REMARK                            x       y       z     vdW  Elec       q    Type
REMARK                         _______ _______ _______ _____ _____    ______ ____
ROOT
ATOM      4  N   UNL     1      14.604   8.181  19.051  0.00  0.00    -0.302 NA
ATOM     26  H   UNL     1      14.235   8.176  20.001  0.00  0.00    +0.123 HD
ENDROOT
BRANCH   4   7
ATOM      1  O   UNL     1      14.233   9.461  16.328  0.00  0.00    -0.376 OA
ATOM      7  C   UNL     1      13.597   8.286  17.993  0.00  0.00    +0.072 C 
ATOM      8  C   UNL     1      14.273   8.051  16.647  0.00  0.00    +0.184 C 
ATOM      9  C   UNL     1      13.505   9.741  17.546  0.00  0.00    +0.184 C 
BRANCH   7  10
ATOM     10  C   UNL     1      12.336   7.542  18.312  0.00  0.00    +0.085 C 
BRANCH  10  12
ATOM      2  O   UNL     1      11.779   7.318  21.874  0.00  0.00    -0.357 OA
ATOM      5  N   UNL     1      12.285   6.831  20.674  0.00  0.00    -0.083 NA
ATOM     12  C   UNL     1      11.943   7.743  19.760  0.00  0.00    +0.086 A 
ATOM     14  C   UNL     1      11.227   8.816  20.318  0.00  0.00    +0.073 A 
ATOM     15  C   UNL     1      11.152   8.501  21.649  0.00  0.00    +0.163 A 
BRANCH  15  19
ATOM     19  C   UNL     1      10.556   9.158  22.817  0.00  0.00    +0.236 C 
BRANCH  19   3
ATOM      3  O   UNL     1      10.832  10.561  22.793  0.00  0.00    -0.375 OA
ATOM     25  C   UNL     1      11.041  11.066  24.102  0.00  0.00    +0.194 C 
ENDBRANCH  19   3
ENDBRANCH  15  19
ENDBRANCH  10  12
ENDBRANCH   7  10
ENDBRANCH   4   7
BRANCH   4  11
ATOM     11  C   UNL     1      15.408   6.975  18.828  0.00  0.00    +0.118 C 
BRANCH  11  13
ATOM      6  N   UNL     1      17.877   7.846  21.536  0.00  0.00    -0.255 NA
ATOM     13  C   UNL     1      16.622   6.934  19.686  0.00  0.00    -0.015 A 
ATOM     16  C   UNL     1      17.619   5.993  19.477  0.00  0.00    +0.016 A 
ATOM     17  C   UNL     1      16.797   7.830  20.721  0.00  0.00    +0.116 A 
ATOM     18  C   UNL     1      18.754   5.974  20.298  0.00  0.00    +0.001 A 
ATOM     20  C   UNL     1      18.843   6.931  21.330  0.00  0.00    +0.071 A 
ATOM     21  C   UNL     1      19.782   5.034  20.112  0.00  0.00    +0.010 A 
ATOM     22  C   UNL     1      19.971   6.912  22.145  0.00  0.00    +0.028 A 
ATOM     23  C   UNL     1      20.899   5.037  20.942  0.00  0.00    +0.001 A 
ATOM     24  C   UNL     1      20.993   5.978  21.961  0.00  0.00    +0.002 A 
ENDBRANCH  11  13
ENDBRANCH   4  11
TORSDOF 7
ENDMDL
MODEL 2
REMARK VINA RESULT:      -6.6      1.775      4.142
REMARK  Name = 56775535
REMARK  8 active torsions:
REMARK  status: ('A' for Active; 'I' for Inactive)
REMARK    1  A    between atoms: O_3  and  C_19
REMARK    2  A    between atoms: O_3  and  C_25
REMARK    3  A    between atoms: N_4  and  C_7
REMARK    4  A    between atoms: N_4  and  C_11
REMARK    5  A    between atoms: C_7  and  C_10
REMARK    6  A    between atoms: C_10  and  C_12
REMARK    7  A    between atoms: C_11  and  C_13
REMARK    8  A    between atoms: C_15  and  C_19
REMARK                            x       y       z     vdW  Elec       q    Type
REMARK                         _______ _______ _______ _____ _____    ______ ____
ROOT
ATOM      4  N   UNL     1      13.405   7.224  21.642  0.00  0.00    -0.302 NA
ATOM     26  H   UNL     1      14.119   6.523  21.448  0.00  0.00    +0.123 HD
ENDROOT
BRANCH   4   7
ATOM      1  O   UNL     1      10.574   8.292  21.460  0.00  0.00    -0.376 OA
ATOM      7  C   UNL     1      12.270   7.229  20.718  0.00  0.00    +0.072 C 
ATOM      8  C   UNL     1      11.710   8.645  20.636  0.00  0.00    +0.184 C 
ATOM      9  C   UNL     1      10.999   6.911  21.497  0.00  0.00    +0.184 C 
BRANCH   7  10
ATOM     10  C   UNL     1      12.549   6.486  19.447  0.00  0.00    +0.085 C 
BRANCH  10  12
ATOM      2  O   UNL     1      12.182   8.523  16.486  0.00  0.00    -0.357 OA
ATOM      5  N   UNL     1      11.716   7.585  17.400  0.00  0.00    -0.083 NA
ATOM     12  C   UNL     1      12.707   7.444  18.286  0.00  0.00    +0.086 A 
ATOM     14  C   UNL     1      13.812   8.259  17.983  0.00  0.00    +0.073 A 
ATOM     15  C   UNL     1      13.430   8.917  16.845  0.00  0.00    +0.163 A 
BRANCH  15  19
ATOM     19  C   UNL     1      14.076   9.912  15.981  0.00  0.00    +0.236 C 
BRANCH  19   3
ATOM      3  O   UNL     1      14.947  10.746  16.749  0.00  0.00    -0.375 OA
ATOM     25  C   UNL     1      14.284  11.925  17.175  0.00  0.00    +0.194 C 
ENDBRANCH  19   3
ENDBRANCH  15  19
ENDBRANCH  10  12
ENDBRANCH   7  10
ENDBRANCH   4   7
BRANCH   4  11
ATOM     11  C   UNL     1      14.015   8.557  21.659  0.00  0.00    +0.118 C 
BRANCH  11  13
ATOM      6  N   UNL     1      17.624   9.623  21.820  0.00  0.00    -0.255 NA
ATOM     13  C   UNL     1      15.499   8.506  21.568  0.00  0.00    -0.015 A 
ATOM     16  C   UNL     1      16.155   7.353  21.166  0.00  0.00    +0.016 A 
ATOM     17  C   UNL     1      16.272   9.604  21.883  0.00  0.00    +0.116 A 
ATOM     18  C   UNL     1      17.554   7.328  21.088  0.00  0.00    +0.001 A 
ATOM     20  C   UNL     1      18.258   8.502  21.429  0.00  0.00    +0.071 A 
ATOM     21  C   UNL     1      18.250   6.176  20.683  0.00  0.00    +0.010 A 
ATOM     22  C   UNL     1      19.648   8.478  21.351  0.00  0.00    +0.028 A 
ATOM     23  C   UNL     1      19.640   6.179  20.614  0.00  0.00    +0.001 A 
ATOM     24  C   UNL     1      20.339   7.333  20.949  0.00  0.00    +0.002 A 
ENDBRANCH  11  13
ENDBRANCH   4  11
TORSDOF 7
ENDMDL
MODEL 3
REMARK VINA RESULT:      -6.6      2.376      5.135
REMARK  Name = 56775535
REMARK  8 active torsions:
REMARK  status: ('A' for Active; 'I' for Inactive)
REMARK    1  A    between atoms: O_3  and  C_19
REMARK    2  A    between atoms: O_3  and  C_25
REMARK    3  A    between atoms: N_4  and  C_7
REMARK    4  A    between atoms: N_4  and  C_11
REMARK    5  A    between atoms: C_7  and  C_10
REMARK    6  A    between atoms: C_10  and  C_12
REMARK    7  A    between atoms: C_11  and  C_13
REMARK    8  A    between atoms: C_15  and  C_19
REMARK                            x       y       z     vdW  Elec       q    Type
REMARK                         _______ _______ _______ _____ _____    ______ ____
ROOT
ATOM      4  N   UNL     1      13.263   7.513  18.161  0.00  0.00    -0.302 NA
ATOM     26  H   UNL     1      14.185   7.571  17.728  0.00  0.00    +0.123 HD
ENDROOT
BRANCH   4   7
ATOM      1  O   UNL     1      10.402   8.506  18.292  0.00  0.00    -0.376 OA
ATOM      7  C   UNL     1      12.519   8.772  18.212  0.00  0.00    +0.072 C 
ATOM      8  C   UNL     1      11.442   8.662  19.285  0.00  0.00    +0.184 C 
ATOM      9  C   UNL     1      11.359   8.698  17.225  0.00  0.00    +0.184 C 
BRANCH   7  10
ATOM     10  C   UNL     1      13.409   9.977  18.198  0.00  0.00    +0.085 C 
BRANCH  10  12
ATOM      2  O   UNL     1      14.745   9.784  14.847  0.00  0.00    -0.357 OA
ATOM      5  N   UNL     1      14.308   9.205  16.033  0.00  0.00    -0.083 NA
ATOM     12  C   UNL     1      13.946  10.234  16.806  0.00  0.00    +0.086 A 
ATOM     14  C   UNL     1      14.132  11.472  16.168  0.00  0.00    +0.073 A 
ATOM     15  C   UNL     1      14.634  11.134  14.940  0.00  0.00    +0.163 A 
BRANCH  15  19
ATOM     19  C   UNL     1      15.056  11.907  13.766  0.00  0.00    +0.236 C 
BRANCH  19   3
ATOM      3  O   UNL     1      14.140  11.711  12.686  0.00  0.00    -0.375 OA
ATOM     25  C   UNL     1      13.016  12.567  12.805  0.00  0.00    +0.194 C 
ENDBRANCH  19   3
ENDBRANCH  15  19
ENDBRANCH  10  12
ENDBRANCH   7  10
ENDBRANCH   4   7
BRANCH   4  11
ATOM     11  C   UNL     1      13.390   6.975  19.519  0.00  0.00    +0.118 C 
BRANCH  11  13
ATOM      6  N   UNL     1      16.200   8.349  21.617  0.00  0.00    -0.255 NA
ATOM     13  C   UNL     1      14.750   7.173  20.086  0.00  0.00    -0.015 A 
ATOM     16  C   UNL     1      15.827   6.413  19.654  0.00  0.00    +0.016 A 
ATOM     17  C   UNL     1      14.987   8.119  21.062  0.00  0.00    +0.116 A 
ATOM     18  C   UNL     1      17.100   6.618  20.203  0.00  0.00    +0.001 A 
ATOM     20  C   UNL     1      17.243   7.610  21.196  0.00  0.00    +0.071 A 
ATOM     21  C   UNL     1      18.211   5.864  19.788  0.00  0.00    +0.010 A 
ATOM     22  C   UNL     1      18.508   7.813  21.740  0.00  0.00    +0.028 A 
ATOM     23  C   UNL     1      19.464   6.088  20.349  0.00  0.00    +0.001 A 
ATOM     24  C   UNL     1      19.612   7.064  21.328  0.00  0.00    +0.002 A 
ENDBRANCH  11  13
ENDBRANCH   4  11
TORSDOF 7
ENDMDL
MODEL 4
REMARK VINA RESULT:      -6.3      2.104      3.682
REMARK  Name = 56775535
REMARK  8 active torsions:
REMARK  status: ('A' for Active; 'I' for Inactive)
REMARK    1  A    between atoms: O_3  and  C_19
REMARK    2  A    between atoms: O_3  and  C_25
REMARK    3  A    between atoms: N_4  and  C_7
REMARK    4  A    between atoms: N_4  and  C_11
REMARK    5  A    between atoms: C_7  and  C_10
REMARK    6  A    between atoms: C_10  and  C_12
REMARK    7  A    between atoms: C_11  and  C_13
REMARK    8  A    between atoms: C_15  and  C_19
REMARK                            x       y       z     vdW  Elec       q    Type
REMARK                         _______ _______ _______ _____ _____    ______ ____
ROOT
ATOM      4  N   UNL     1      13.378   8.716  20.994  0.00  0.00    -0.302 NA
ATOM     26  H   UNL     1      13.371   7.778  21.393  0.00  0.00    +0.123 HD
ENDROOT
BRANCH   4   7
ATOM      1  O   UNL     1      10.522   7.875  20.426  0.00  0.00    -0.376 OA
ATOM      7  C   UNL     1      12.058   9.313  20.785  0.00  0.00    +0.072 C 
ATOM      8  C   UNL     1      11.033   8.537  21.605  0.00  0.00    +0.184 C 
ATOM      9  C   UNL     1      11.403   8.648  19.579  0.00  0.00    +0.184 C 
BRANCH   7  10
ATOM     10  C   UNL     1      12.074  10.808  20.871  0.00  0.00    +0.085 C 
BRANCH  10  12
ATOM      2  O   UNL     1      12.755  11.612  24.326  0.00  0.00    -0.357 OA
ATOM      5  N   UNL     1      13.116  11.089  23.090  0.00  0.00    -0.083 NA
ATOM     12  C   UNL     1      12.043  11.266  22.313  0.00  0.00    +0.086 A 
ATOM     14  C   UNL     1      10.985  11.888  22.999  0.00  0.00    +0.073 A 
ATOM     15  C   UNL     1      11.484  12.085  24.258  0.00  0.00    +0.163 A 
BRANCH  15  19
ATOM     19  C   UNL     1      10.939  12.677  25.486  0.00  0.00    +0.236 C 
BRANCH  19   3
ATOM      3  O   UNL     1      10.269  13.905  25.191  0.00  0.00    -0.375 OA
ATOM     25  C   UNL     1      11.196  14.953  24.960  0.00  0.00    +0.194 C 
ENDBRANCH  19   3
ENDBRANCH  15  19
ENDBRANCH  10  12
ENDBRANCH   7  10
ENDBRANCH   4   7
BRANCH   4  11
ATOM     11  C   UNL     1      14.106   8.706  19.722  0.00  0.00    +0.118 C 
BRANCH  11  13
ATOM      6  N   UNL     1      16.590   5.956  19.043  0.00  0.00    -0.255 NA
ATOM     13  C   UNL     1      15.349   7.890  19.783  0.00  0.00    -0.015 A 
ATOM     16  C   UNL     1      16.410   8.256  20.597  0.00  0.00    +0.016 A 
ATOM     17  C   UNL     1      15.488   6.742  19.031  0.00  0.00    +0.116 A 
ATOM     18  C   UNL     1      17.571   7.472  20.639  0.00  0.00    +0.001 A 
ATOM     20  C   UNL     1      17.618   6.315  19.834  0.00  0.00    +0.071 A 
ATOM     21  C   UNL     1      18.663   7.815  21.453  0.00  0.00    +0.010 A 
ATOM     22  C   UNL     1      18.771   5.536  19.876  0.00  0.00    +0.028 A 
ATOM     23  C   UNL     1      19.804   7.018  21.475  0.00  0.00    +0.001 A 
ATOM     24  C   UNL     1      19.857   5.876  20.684  0.00  0.00    +0.002 A 
ENDBRANCH  11  13
ENDBRANCH   4  11
TORSDOF 7
ENDMDL
MODEL 5
REMARK VINA RESULT:      -6.3      4.471      8.407
REMARK  Name = 56775535
REMARK  8 active torsions:
REMARK  status: ('A' for Active; 'I' for Inactive)
REMARK    1  A    between atoms: O_3  and  C_19
REMARK    2  A    between atoms: O_3  and  C_25
REMARK    3  A    between atoms: N_4  and  C_7
REMARK    4  A    between atoms: N_4  and  C_11
REMARK    5  A    between atoms: C_7  and  C_10
REMARK    6  A    between atoms: C_10  and  C_12
REMARK    7  A    between atoms: C_11  and  C_13
REMARK    8  A    between atoms: C_15  and  C_19
REMARK                            x       y       z     vdW  Elec       q    Type
REMARK                         _______ _______ _______ _____ _____    ______ ____
ROOT
ATOM      4  N   UNL     1      11.907   8.812  22.562  0.00  0.00    -0.302 NA
ATOM     26  H   UNL     1      12.491   8.306  23.227  0.00  0.00    +0.123 HD
ENDROOT
BRANCH   4   7
ATOM      1  O   UNL     1      11.855   5.963  21.527  0.00  0.00    -0.376 OA
ATOM      7  C   UNL     1      11.560   8.070  21.349  0.00  0.00    +0.072 C 
ATOM      8  C   UNL     1      10.733   6.850  21.740  0.00  0.00    +0.184 C 
ATOM      9  C   UNL     1      12.666   7.063  21.054  0.00  0.00    +0.184 C 
BRANCH   7  10
ATOM     10  C   UNL     1      11.069   8.955  20.244  0.00  0.00    +0.085 C 
BRANCH  10  12
ATOM      2  O   UNL     1      12.431   7.718  17.136  0.00  0.00    -0.357 OA
ATOM      5  N   UNL     1      11.548   7.647  18.207  0.00  0.00    -0.083 NA
ATOM     12  C   UNL     1      11.845   8.705  18.969  0.00  0.00    +0.086 A 
ATOM     14  C   UNL     1      12.896   9.469  18.435  0.00  0.00    +0.073 A 
ATOM     15  C   UNL     1      13.228   8.807  17.283  0.00  0.00    +0.163 A 
BRANCH  15  19
ATOM     19  C   UNL     1      14.228   9.033  16.233  0.00  0.00    +0.236 C 
BRANCH  19   3
ATOM      3  O   UNL     1      13.643   9.735  15.133  0.00  0.00    -0.375 OA
ATOM     25  C   UNL     1      13.944  11.120  15.189  0.00  0.00    +0.194 C 
ENDBRANCH  19   3
ENDBRANCH  15  19
ENDBRANCH  10  12
ENDBRANCH   7  10
ENDBRANCH   4   7
BRANCH   4  11
ATOM     11  C   UNL     1      12.564  10.067  22.184  0.00  0.00    +0.118 C 
BRANCH  11  13
ATOM      6  N   UNL     1      11.315  12.531  24.744  0.00  0.00    -0.255 NA
ATOM     13  C   UNL     1      11.901  11.258  22.779  0.00  0.00    -0.015 A 
ATOM     16  C   UNL     1      11.263  12.198  21.983  0.00  0.00    +0.016 A 
ATOM     17  C   UNL     1      11.900  11.470  24.142  0.00  0.00    +0.116 A 
ATOM     18  C   UNL     1      10.645  13.313  22.566  0.00  0.00    +0.001 A 
ATOM     20  C   UNL     1      10.696  13.441  23.969  0.00  0.00    +0.071 A 
ATOM     21  C   UNL     1       9.990  14.283  21.788  0.00  0.00    +0.010 A 
ATOM     22  C   UNL     1      10.081  14.548  24.548  0.00  0.00    +0.028 A 
ATOM     23  C   UNL     1       9.384  15.380  22.392  0.00  0.00    +0.001 A 
ATOM     24  C   UNL     1       9.431  15.512  23.775  0.00  0.00    +0.002 A 
ENDBRANCH  11  13
ENDBRANCH   4  11
TORSDOF 7
ENDMDL
MODEL 6
REMARK VINA RESULT:      -5.9     26.967     28.350
REMARK  Name = 56775535
REMARK  8 active torsions:
REMARK  status: ('A' for Active; 'I' for Inactive)
REMARK    1  A    between atoms: O_3  and  C_19
REMARK    2  A    between atoms: O_3  and  C_25
REMARK    3  A    between atoms: N_4  and  C_7
REMARK    4  A    between atoms: N_4  and  C_11
REMARK    5  A    between atoms: C_7  and  C_10
REMARK    6  A    between atoms: C_10  and  C_12
REMARK    7  A    between atoms: C_11  and  C_13
REMARK    8  A    between atoms: C_15  and  C_19
REMARK                            x       y       z     vdW  Elec       q    Type
REMARK                         _______ _______ _______ _____ _____    ______ ____
ROOT
ATOM      4  N   UNL     1      -5.052 -12.000  15.725  0.00  0.00    -0.302 NA
ATOM     26  H   UNL     1      -5.641 -11.660  14.967  0.00  0.00    +0.123 HD
ENDROOT
BRANCH   4   7
ATOM      1  O   UNL     1      -4.929 -12.541  18.705  0.00  0.00    -0.376 OA
ATOM      7  C   UNL     1      -5.203 -11.291  16.997  0.00  0.00    +0.072 C 
ATOM      8  C   UNL     1      -4.059 -11.692  17.922  0.00  0.00    +0.184 C 
ATOM      9  C   UNL     1      -6.075 -12.127  17.926  0.00  0.00    +0.184 C 
BRANCH   7  10
ATOM     10  C   UNL     1      -5.515  -9.836  16.820  0.00  0.00    +0.085 C 
BRANCH  10  12
ATOM      2  O   UNL     1      -8.805  -9.732  15.331  0.00  0.00    -0.357 OA
ATOM      5  N   UNL     1      -7.456 -10.067  15.313  0.00  0.00    -0.083 NA
ATOM     12  C   UNL     1      -6.978  -9.637  16.485  0.00  0.00    +0.086 A 
ATOM     14  C   UNL     1      -7.969  -9.028  17.274  0.00  0.00    +0.073 A 
ATOM     15  C   UNL     1      -9.098  -9.115  16.504  0.00  0.00    +0.163 A 
BRANCH  15  19
ATOM     19  C   UNL     1     -10.491  -8.691  16.691  0.00  0.00    +0.236 C 
BRANCH  19   3
ATOM      3  O   UNL     1     -10.553  -7.283  16.930  0.00  0.00    -0.375 OA
ATOM     25  C   UNL     1     -10.449  -6.552  15.719  0.00  0.00    +0.194 C 
ENDBRANCH  19   3
ENDBRANCH  15  19
ENDBRANCH  10  12
ENDBRANCH   7  10
ENDBRANCH   4   7
BRANCH   4  11
ATOM     11  C   UNL     1      -3.645 -11.954  15.315  0.00  0.00    +0.118 C 
BRANCH  11  13
ATOM      6  N   UNL     1      -1.969 -10.576  12.237  0.00  0.00    -0.255 NA
ATOM     13  C   UNL     1      -3.456 -11.280  14.002  0.00  0.00    -0.015 A 
ATOM     16  C   UNL     1      -4.529 -10.736  13.313  0.00  0.00    +0.016 A 
ATOM     17  C   UNL     1      -2.207 -11.176  13.426  0.00  0.00    +0.116 A 
ATOM     18  C   UNL     1      -4.327 -10.106  12.077  0.00  0.00    +0.001 A 
ATOM     20  C   UNL     1      -3.012 -10.048  11.570  0.00  0.00    +0.071 A 
ATOM     21  C   UNL     1      -5.392  -9.544  11.353  0.00  0.00    +0.010 A 
ATOM     22  C   UNL     1      -2.811  -9.422  10.343  0.00  0.00    +0.028 A 
ATOM     23  C   UNL     1      -5.163  -8.924  10.129  0.00  0.00    +0.001 A 
ATOM     24  C   UNL     1      -3.870  -8.863   9.623  0.00  0.00    +0.002 A 
ENDBRANCH  11  13
ENDBRANCH   4  11
TORSDOF 7
ENDMDL
MODEL 7
REMARK VINA RESULT:      -5.8     26.325     28.305
REMARK  Name = 56775535
REMARK  8 active torsions:
REMARK  status: ('A' for Active; 'I' for Inactive)
REMARK    1  A    between atoms: O_3  and  C_19
REMARK    2  A    between atoms: O_3  and  C_25
REMARK    3  A    between atoms: N_4  and  C_7
REMARK    4  A    between atoms: N_4  and  C_11
REMARK    5  A    between atoms: C_7  and  C_10
REMARK    6  A    between atoms: C_10  and  C_12
REMARK    7  A    between atoms: C_11  and  C_13
REMARK    8  A    between atoms: C_15  and  C_19
REMARK                            x       y       z     vdW  Elec       q    Type
REMARK                         _______ _______ _______ _____ _____    ______ ____
ROOT
ATOM      4  N   UNL     1      -5.075 -10.307  17.653  0.00  0.00    -0.302 NA
ATOM     26  H   UNL     1      -4.679  -9.561  18.225  0.00  0.00    +0.123 HD
ENDROOT
BRANCH   4   7
ATOM      1  O   UNL     1      -5.942 -11.337  20.369  0.00  0.00    -0.376 OA
ATOM      7  C   UNL     1      -6.180 -11.043  18.268  0.00  0.00    +0.072 C 
ATOM      8  C   UNL     1      -6.588 -10.332  19.554  0.00  0.00    +0.184 C 
ATOM      9  C   UNL     1      -5.607 -12.110  19.194  0.00  0.00    +0.184 C 
BRANCH   7  10
ATOM     10  C   UNL     1      -7.243 -11.429  17.284  0.00  0.00    +0.085 C 
BRANCH  10  12
ATOM      2  O   UNL     1     -10.219  -9.399  17.545  0.00  0.00    -0.357 OA
ATOM      5  N   UNL     1      -9.485 -10.547  17.817  0.00  0.00    -0.083 NA
ATOM     12  C   UNL     1      -8.313 -10.362  17.201  0.00  0.00    +0.086 A 
ATOM     14  C   UNL     1      -8.253  -9.129  16.531  0.00  0.00    +0.073 A 
ATOM     15  C   UNL     1      -9.474  -8.562  16.778  0.00  0.00    +0.163 A 
BRANCH  15  19
ATOM     19  C   UNL     1     -10.102  -7.292  16.395  0.00  0.00    +0.236 C 
BRANCH  19   3
ATOM      3  O   UNL     1     -11.495  -7.311  16.715  0.00  0.00    -0.375 OA
ATOM     25  C   UNL     1     -12.237  -6.490  15.827  0.00  0.00    +0.194 C 
ENDBRANCH  19   3
ENDBRANCH  15  19
ENDBRANCH  10  12
ENDBRANCH   7  10
ENDBRANCH   4   7
BRANCH   4  11
ATOM     11  C   UNL     1      -4.019 -11.253  17.278  0.00  0.00    +0.118 C 
BRANCH  11  13
ATOM      6  N   UNL     1      -1.557 -10.696  14.483  0.00  0.00    -0.255 NA
ATOM     13  C   UNL     1      -3.475 -10.990  15.919  0.00  0.00    -0.015 A 
ATOM     16  C   UNL     1      -4.315 -10.795  14.833  0.00  0.00    +0.016 A 
ATOM     17  C   UNL     1      -2.115 -10.932  15.693  0.00  0.00    +0.116 A 
ATOM     18  C   UNL     1      -3.779 -10.549  13.562  0.00  0.00    +0.001 A 
ATOM     20  C   UNL     1      -2.375 -10.507  13.431  0.00  0.00    +0.071 A 
ATOM     21  C   UNL     1      -4.603 -10.347  12.441  0.00  0.00    +0.010 A 
ATOM     22  C   UNL     1      -1.844 -10.262  12.168  0.00  0.00    +0.028 A 
ATOM     23  C   UNL     1      -4.045 -10.104  11.190  0.00  0.00    +0.001 A 
ATOM     24  C   UNL     1      -2.662 -10.062  11.054  0.00  0.00    +0.002 A 
ENDBRANCH  11  13
ENDBRANCH   4  11
TORSDOF 7
ENDMDL
MODEL 8
REMARK VINA RESULT:      -5.7      2.768      6.927
REMARK  Name = 56775535
REMARK  8 active torsions:
REMARK  status: ('A' for Active; 'I' for Inactive)
REMARK    1  A    between atoms: O_3  and  C_19
REMARK    2  A    between atoms: O_3  and  C_25
REMARK    3  A    between atoms: N_4  and  C_7
REMARK    4  A    between atoms: N_4  and  C_11
REMARK    5  A    between atoms: C_7  and  C_10
REMARK    6  A    between atoms: C_10  and  C_12
REMARK    7  A    between atoms: C_11  and  C_13
REMARK    8  A    between atoms: C_15  and  C_19
REMARK                            x       y       z     vdW  Elec       q    Type
REMARK                         _______ _______ _______ _____ _____    ______ ____
ROOT
ATOM      4  N   UNL     1      12.247   9.247  19.740  0.00  0.00    -0.302 NA
ATOM     26  H   UNL     1      13.102   9.801  19.709  0.00  0.00    +0.123 HD
ENDROOT
BRANCH   4   7
ATOM      1  O   UNL     1      11.282   8.074  22.364  0.00  0.00    -0.376 OA
ATOM      7  C   UNL     1      12.337   8.005  20.509  0.00  0.00    +0.072 C 
ATOM      8  C   UNL     1      10.948   7.644  21.024  0.00  0.00    +0.184 C 
ATOM      9  C   UNL     1      12.644   8.348  21.963  0.00  0.00    +0.184 C 
BRANCH   7  10
ATOM     10  C   UNL     1      13.153   6.952  19.823  0.00  0.00    +0.085 C 
BRANCH  10  12
ATOM      2  O   UNL     1      16.562   8.126  20.053  0.00  0.00    -0.357 OA
ATOM      5  N   UNL     1      15.242   8.255  19.640  0.00  0.00    -0.083 NA
ATOM     12  C   UNL     1      14.629   7.156  20.090  0.00  0.00    +0.086 A 
ATOM     14  C   UNL     1      15.505   6.305  20.787  0.00  0.00    +0.073 A 
ATOM     15  C   UNL     1      16.706   6.961  20.736  0.00  0.00    +0.163 A 
BRANCH  15  19
ATOM     19  C   UNL     1      18.049   6.664  21.247  0.00  0.00    +0.236 C 
BRANCH  19   3
ATOM      3  O   UNL     1      18.572   7.791  21.954  0.00  0.00    -0.375 OA
ATOM     25  C   UNL     1      19.966   7.654  22.180  0.00  0.00    +0.194 C 
ENDBRANCH  19   3
ENDBRANCH  15  19
ENDBRANCH  10  12
ENDBRANCH   7  10
ENDBRANCH   4   7
BRANCH   4  11
ATOM     11  C   UNL     1      11.812   8.935  18.375  0.00  0.00    +0.118 C 
BRANCH  11  13
ATOM      6  N   UNL     1      13.194   9.934  15.017  0.00  0.00    -0.255 NA
ATOM     13  C   UNL     1      12.633   9.625  17.344  0.00  0.00    -0.015 A 
ATOM     16  C   UNL     1      13.579  10.575  17.696  0.00  0.00    +0.016 A 
ATOM     17  C   UNL     1      12.479   9.343  16.003  0.00  0.00    +0.116 A 
ATOM     18  C   UNL     1      14.341  11.212  16.707  0.00  0.00    +0.001 A 
ATOM     20  C   UNL     1      14.112  10.856  15.362  0.00  0.00    +0.071 A 
ATOM     21  C   UNL     1      15.308  12.180  17.030  0.00  0.00    +0.010 A 
ATOM     22  C   UNL     1      14.869  11.489  14.380  0.00  0.00    +0.028 A 
ATOM     23  C   UNL     1      16.050  12.796  16.028  0.00  0.00    +0.001 A 
ATOM     24  C   UNL     1      15.830  12.450  14.700  0.00  0.00    +0.002 A 
ENDBRANCH  11  13
ENDBRANCH   4  11
TORSDOF 7
ENDMDL
MODEL 9
REMARK VINA RESULT:      -5.7      4.192      9.069
REMARK  Name = 56775535
REMARK  8 active torsions:
REMARK  status: ('A' for Active; 'I' for Inactive)
REMARK    1  A    between atoms: O_3  and  C_19
REMARK    2  A    between atoms: O_3  and  C_25
REMARK    3  A    between atoms: N_4  and  C_7
REMARK    4  A    between atoms: N_4  and  C_11
REMARK    5  A    between atoms: C_7  and  C_10
REMARK    6  A    between atoms: C_10  and  C_12
REMARK    7  A    between atoms: C_11  and  C_13
REMARK    8  A    between atoms: C_15  and  C_19
REMARK                            x       y       z     vdW  Elec       q    Type
REMARK                         _______ _______ _______ _____ _____    ______ ____
ROOT
ATOM      4  N   UNL     1      18.130   6.545  21.874  0.00  0.00    -0.302 NA
ATOM     26  H   UNL     1      17.460   6.997  22.496  0.00  0.00    +0.123 HD
ENDROOT
BRANCH   4   7
ATOM      1  O   UNL     1      19.928   8.276  23.594  0.00  0.00    -0.376 OA
ATOM      7  C   UNL     1      19.456   7.163  21.835  0.00  0.00    +0.072 C 
ATOM      8  C   UNL     1      20.154   6.913  23.168  0.00  0.00    +0.184 C 
ATOM      9  C   UNL     1      19.342   8.606  22.314  0.00  0.00    +0.184 C 
BRANCH   7  10
ATOM     10  C   UNL     1      20.197   6.875  20.565  0.00  0.00    +0.085 C 
BRANCH  10  12
ATOM      2  O   UNL     1      21.586   3.553  20.857  0.00  0.00    -0.357 OA
ATOM      5  N   UNL     1      20.521   4.432  20.697  0.00  0.00    -0.083 NA
ATOM     12  C   UNL     1      21.072   5.650  20.717  0.00  0.00    +0.086 A 
ATOM     14  C   UNL     1      22.467   5.601  20.886  0.00  0.00    +0.073 A 
ATOM     15  C   UNL     1      22.739   4.261  20.968  0.00  0.00    +0.163 A 
BRANCH  15  19
ATOM     19  C   UNL     1      23.970   3.483  21.144  0.00  0.00    +0.236 C 
BRANCH  19   3
ATOM      3  O   UNL     1      23.700   2.284  21.874  0.00  0.00    -0.375 OA
ATOM     25  C   UNL     1      24.262   1.153  21.229  0.00  0.00    +0.194 C 
ENDBRANCH  19   3
ENDBRANCH  15  19
ENDBRANCH  10  12
ENDBRANCH   7  10
ENDBRANCH   4   7
BRANCH   4  11
ATOM     11  C   UNL     1      17.585   6.495  20.514  0.00  0.00    +0.118 C 
BRANCH  11  13
ATOM      6  N   UNL     1      14.201   7.748  21.595  0.00  0.00    -0.255 NA
ATOM     13  C   UNL     1      16.178   6.974  20.446  0.00  0.00    -0.015 A 
ATOM     16  C   UNL     1      15.520   7.103  19.233  0.00  0.00    +0.016 A 
ATOM     17  C   UNL     1      15.481   7.307  21.589  0.00  0.00    +0.116 A 
ATOM     18  C   UNL     1      14.195   7.557  19.193  0.00  0.00    +0.001 A 
ATOM     20  C   UNL     1      13.565   7.872  20.416  0.00  0.00    +0.071 A 
ATOM     21  C   UNL     1      13.500   7.698  17.980  0.00  0.00    +0.010 A 
ATOM     22  C   UNL     1      12.249   8.322  20.376  0.00  0.00    +0.028 A 
ATOM     23  C   UNL     1      12.184   8.150  17.970  0.00  0.00    +0.001 A 
ATOM     24  C   UNL     1      11.558   8.463  19.171  0.00  0.00    +0.002 A 
ENDBRANCH  11  13
ENDBRANCH   4  11
TORSDOF 7
ENDMDL
MODEL 10
REMARK VINA RESULT:      -5.7      4.497      6.254
REMARK  Name = 56775535
REMARK  8 active torsions:
REMARK  status: ('A' for Active; 'I' for Inactive)
REMARK    1  A    between atoms: O_3  and  C_19
REMARK    2  A    between atoms: O_3  and  C_25
REMARK    3  A    between atoms: N_4  and  C_7
REMARK    4  A    between atoms: N_4  and  C_11
REMARK    5  A    between atoms: C_7  and  C_10
REMARK    6  A    between atoms: C_10  and  C_12
REMARK    7  A    between atoms: C_11  and  C_13
REMARK    8  A    between atoms: C_15  and  C_19
REMARK                            x       y       z     vdW  Elec       q    Type
REMARK                         _______ _______ _______ _____ _____    ______ ____
ROOT
ATOM      4  N   UNL     1      13.334  10.732  16.726  0.00  0.00    -0.302 NA
ATOM     26  H   UNL     1      12.429  10.883  16.280  0.00  0.00    +0.123 HD
ENDROOT
BRANCH   4   7
ATOM      1  O   UNL     1      14.454  11.041  13.926  0.00  0.00    -0.376 OA
ATOM      7  C   UNL     1      14.474  11.341  16.039  0.00  0.00    +0.072 C 
ATOM      8  C   UNL     1      13.967  12.081  14.806  0.00  0.00    +0.184 C 
ATOM      9  C   UNL     1      15.042  10.337  15.043  0.00  0.00    +0.184 C 
BRANCH   7  10
ATOM     10  C   UNL     1      15.409  12.046  16.974  0.00  0.00    +0.085 C 
BRANCH  10  12
ATOM      2  O   UNL     1      13.253  13.265  19.603  0.00  0.00    -0.357 OA
ATOM      5  N   UNL     1      13.628  13.160  18.269  0.00  0.00    -0.083 NA
ATOM     12  C   UNL     1      14.716  12.383  18.277  0.00  0.00    +0.086 A 
ATOM     14  C   UNL     1      15.069  11.973  19.574  0.00  0.00    +0.073 A 
ATOM     15  C   UNL     1      14.118  12.553  20.370  0.00  0.00    +0.163 A 
BRANCH  15  19
ATOM     19  C   UNL     1      13.867  12.556  21.816  0.00  0.00    +0.236 C 
BRANCH  19   3
ATOM      3  O   UNL     1      14.071  11.249  22.358  0.00  0.00    -0.375 OA
ATOM     25  C   UNL     1      14.910  11.292  23.500  0.00  0.00    +0.194 C 
ENDBRANCH  19   3
ENDBRANCH  15  19
ENDBRANCH  10  12
ENDBRANCH   7  10
ENDBRANCH   4   7
BRANCH   4  11
ATOM     11  C   UNL     1      13.576   9.294  16.875  0.00  0.00    +0.118 C 
BRANCH  11  13
ATOM      6  N   UNL     1      12.185   6.784  19.314  0.00  0.00    -0.255 NA
ATOM     13  C   UNL     1      12.910   8.726  18.078  0.00  0.00    -0.015 A 
ATOM     16  C   UNL     1      12.399   9.547  19.071  0.00  0.00    +0.016 A 
ATOM     17  C   UNL     1      12.780   7.363  18.246  0.00  0.00    +0.116 A 
ATOM     18  C   UNL     1      11.775   8.989  20.195  0.00  0.00    +0.001 A 
ATOM     20  C   UNL     1      11.689   7.583  20.277  0.00  0.00    +0.071 A 
ATOM     21  C   UNL     1      11.246   9.793  21.220  0.00  0.00    +0.010 A 
ATOM     22  C   UNL     1      11.069   7.029  21.394  0.00  0.00    +0.028 A 
ATOM     23  C   UNL     1      10.631   9.212  22.325  0.00  0.00    +0.001 A 
ATOM     24  C   UNL     1      10.543   7.827  22.412  0.00  0.00    +0.002 A 
ENDBRANCH  11  13
ENDBRANCH   4  11
TORSDOF 7
ENDMDL
