MODEL 1
REMARK VINA RESULT:      -6.0      0.000      0.000
REMARK  Name = 25317550
REMARK  11 active torsions:
REMARK  status: ('A' for Active; 'I' for Inactive)
REMARK    1  A    between atoms: O_3  and  C_10
REMARK    2  A    between atoms: O_4  and  C_25
REMARK    3  A    between atoms: O_4  and  C_29
REMARK    4  A    between atoms: N_5  and  C_8
REMARK    5  A    between atoms: N_5  and  C_14
REMARK    6  A    between atoms: N_5  and  C_15
REMARK    7  A    between atoms: N_6  and  C_9
REMARK    8  A    between atoms: N_6  and  C_16
REMARK    9  A    between atoms: C_14  and  C_17
REMARK   10  A    between atoms: C_16  and  C_18
REMARK   11  A    between atoms: C_17  and  C_19
REMARK                            x       y       z     vdW  Elec       q    Type
REMARK                         _______ _______ _______ _____ _____    ______ ____
ROOT
ATOM      1  O   UNL     1      11.199  14.251  22.925  0.00  0.00    -0.343 OA
ATOM      2  O   UNL     1      12.006  15.107  24.923  0.00  0.00    -0.347 OA
ATOM      8  C   UNL     1      13.141  13.221  23.923  0.00  0.00    +0.143 C 
ATOM      9  C   UNL     1      10.734  12.352  24.347  0.00  0.00    +0.116 C 
ATOM     10  C   UNL     1      12.237  12.238  24.703  0.00  0.00    +0.156 C 
ATOM     11  C   UNL     1      10.324  13.791  23.962  0.00  0.00    +0.166 C 
ATOM     12  C   UNL     1      12.395  14.543  23.660  0.00  0.00    +0.270 C 
ATOM     13  C   UNL     1      10.603  14.827  25.035  0.00  0.00    +0.196 C 
ENDROOT
BRANCH  10   3
ATOM      3  O   UNL     1      12.398  12.518  26.101  0.00  0.00    -0.388 OA
ATOM     31  H   UNL     1      12.655  11.687  26.538  0.00  0.00    +0.210 HD
ENDBRANCH  10   3
BRANCH   8   5
ATOM      5  N   UNL     1      13.577  12.633  22.656  0.00  0.00    -0.295 NA
ATOM     15  C   UNL     1      14.434  13.566  21.928  0.00  0.00    +0.105 C 
BRANCH   5  14
ATOM     14  C   UNL     1      14.278  11.372  22.894  0.00  0.00    +0.091 C 
BRANCH  14  17
ATOM     17  C   UNL     1      15.284  11.085  21.779  0.00  0.00    +0.071 C 
BRANCH  17  19
ATOM      7  N   UNL     1      15.583   9.371  20.075  0.00  0.00    -0.260 NA
ATOM     19  C   UNL     1      15.246   9.638  21.357  0.00  0.00    +0.042 A 
ATOM     22  C   UNL     1      14.876   8.672  22.279  0.00  0.00    +0.023 A 
ATOM     26  C   UNL     1      14.852   7.347  21.859  0.00  0.00    +0.003 A 
ATOM     27  C   UNL     1      15.548   8.072  19.703  0.00  0.00    +0.111 A 
ATOM     28  C   UNL     1      15.192   7.032  20.549  0.00  0.00    +0.020 A 
ENDBRANCH  17  19
ENDBRANCH  14  17
ENDBRANCH   5  14
ENDBRANCH   8   5
BRANCH   9   6
ATOM      6  N   UNL     1      10.402  11.465  23.227  0.00  0.00    -0.305 NA
ATOM     30  H   UNL     1      10.901  11.768  22.391  0.00  0.00    +0.123 HD
BRANCH   6  16
ATOM     16  C   UNL     1      10.744  10.090  23.546  0.00  0.00    +0.116 C 
BRANCH  16  18
ATOM     18  C   UNL     1      11.068   9.292  22.311  0.00  0.00    -0.033 A 
ATOM     20  C   UNL     1      11.520   9.938  21.161  0.00  0.00    +0.008 A 
ATOM     21  C   UNL     1      10.915   7.905  22.317  0.00  0.00    +0.008 A 
ATOM     23  C   UNL     1      11.821   9.198  20.017  0.00  0.00    +0.046 A 
ATOM     24  C   UNL     1      11.215   7.165  21.173  0.00  0.00    +0.046 A 
ATOM     25  C   UNL     1      11.668   7.812  20.023  0.00  0.00    +0.120 A 
BRANCH  25   4
ATOM      4  O   UNL     1      11.960   7.090  18.908  0.00  0.00    -0.495 OA
ATOM     29  C   UNL     1      12.390   7.816  17.757  0.00  0.00    +0.277 C 
ENDBRANCH  25   4
ENDBRANCH  16  18
ENDBRANCH   6  16
ENDBRANCH   9   6
TORSDOF 9
ENDMDL
MODEL 2
REMARK VINA RESULT:      -5.6      3.469      5.896
REMARK  Name = 25317550
REMARK  11 active torsions:
REMARK  status: ('A' for Active; 'I' for Inactive)
REMARK    1  A    between atoms: O_3  and  C_10
REMARK    2  A    between atoms: O_4  and  C_25
REMARK    3  A    between atoms: O_4  and  C_29
REMARK    4  A    between atoms: N_5  and  C_8
REMARK    5  A    between atoms: N_5  and  C_14
REMARK    6  A    between atoms: N_5  and  C_15
REMARK    7  A    between atoms: N_6  and  C_9
REMARK    8  A    between atoms: N_6  and  C_16
REMARK    9  A    between atoms: C_14  and  C_17
REMARK   10  A    between atoms: C_16  and  C_18
REMARK   11  A    between atoms: C_17  and  C_19
REMARK                            x       y       z     vdW  Elec       q    Type
REMARK                         _______ _______ _______ _____ _____    ______ ____
ROOT
ATOM      1  O   UNL     1      11.433   9.529  21.056  0.00  0.00    -0.343 OA
ATOM      2  O   UNL     1      11.567   7.727  22.508  0.00  0.00    -0.347 OA
ATOM      8  C   UNL     1      13.585   8.499  21.424  0.00  0.00    +0.143 C 
ATOM      9  C   UNL     1      12.037   7.820  19.457  0.00  0.00    +0.116 C 
ATOM     10  C   UNL     1      13.342   7.535  20.240  0.00  0.00    +0.156 C 
ATOM     11  C   UNL     1      10.918   8.391  20.358  0.00  0.00    +0.166 C 
ATOM     12  C   UNL     1      12.246   8.913  22.063  0.00  0.00    +0.270 C 
ATOM     13  C   UNL     1      10.545   7.498  21.527  0.00  0.00    +0.196 C 
ENDROOT
BRANCH  10   3
ATOM      3  O   UNL     1      13.273   6.204  20.772  0.00  0.00    -0.388 OA
ATOM     31  H   UNL     1      12.365   6.063  21.091  0.00  0.00    +0.210 HD
ENDBRANCH  10   3
BRANCH   8   5
ATOM      5  N   UNL     1      14.317   9.687  20.984  0.00  0.00    -0.295 NA
ATOM     15  C   UNL     1      14.498  10.617  22.098  0.00  0.00    +0.105 C 
BRANCH   5  14
ATOM     14  C   UNL     1      15.610   9.309  20.417  0.00  0.00    +0.091 C 
BRANCH  14  17
ATOM     17  C   UNL     1      16.605   8.938  21.518  0.00  0.00    +0.071 C 
BRANCH  17  19
ATOM      7  N   UNL     1      18.712   7.735  21.715  0.00  0.00    -0.260 NA
ATOM     19  C   UNL     1      17.519   7.820  21.085  0.00  0.00    +0.042 A 
ATOM     22  C   UNL     1      17.104   6.952  20.089  0.00  0.00    +0.023 A 
ATOM     26  C   UNL     1      17.969   5.930  19.714  0.00  0.00    +0.003 A 
ATOM     27  C   UNL     1      19.527   6.730  21.324  0.00  0.00    +0.111 A 
ATOM     28  C   UNL     1      19.206   5.810  20.338  0.00  0.00    +0.020 A 
ENDBRANCH  17  19
ENDBRANCH  14  17
ENDBRANCH   5  14
ENDBRANCH   8   5
BRANCH   9   6
ATOM      6  N   UNL     1      12.285   8.777  18.374  0.00  0.00    -0.305 NA
ATOM     30  H   UNL     1      12.513   9.690  18.769  0.00  0.00    +0.123 HD
BRANCH   6  16
ATOM     16  C   UNL     1      13.367   8.314  17.521  0.00  0.00    +0.116 C 
BRANCH  16  18
ATOM     18  C   UNL     1      14.039   9.452  16.801  0.00  0.00    -0.033 A 
ATOM     20  C   UNL     1      14.526   9.269  15.507  0.00  0.00    +0.008 A 
ATOM     21  C   UNL     1      14.175  10.691  17.428  0.00  0.00    +0.008 A 
ATOM     23  C   UNL     1      15.148  10.324  14.839  0.00  0.00    +0.046 A 
ATOM     24  C   UNL     1      14.798  11.746  16.761  0.00  0.00    +0.046 A 
ATOM     25  C   UNL     1      15.285  11.562  15.466  0.00  0.00    +0.120 A 
BRANCH  25   4
ATOM      4  O   UNL     1      15.892  12.592  14.816  0.00  0.00    -0.495 OA
ATOM     29  C   UNL     1      17.117  12.305  14.145  0.00  0.00    +0.277 C 
ENDBRANCH  25   4
ENDBRANCH  16  18
ENDBRANCH   6  16
ENDBRANCH   9   6
TORSDOF 9
ENDMDL
MODEL 3
REMARK VINA RESULT:      -5.3      1.664      6.470
REMARK  Name = 25317550
REMARK  11 active torsions:
REMARK  status: ('A' for Active; 'I' for Inactive)
REMARK    1  A    between atoms: O_3  and  C_10
REMARK    2  A    between atoms: O_4  and  C_25
REMARK    3  A    between atoms: O_4  and  C_29
REMARK    4  A    between atoms: N_5  and  C_8
REMARK    5  A    between atoms: N_5  and  C_14
REMARK    6  A    between atoms: N_5  and  C_15
REMARK    7  A    between atoms: N_6  and  C_9
REMARK    8  A    between atoms: N_6  and  C_16
REMARK    9  A    between atoms: C_14  and  C_17
REMARK   10  A    between atoms: C_16  and  C_18
REMARK   11  A    between atoms: C_17  and  C_19
REMARK                            x       y       z     vdW  Elec       q    Type
REMARK                         _______ _______ _______ _____ _____    ______ ____
ROOT
ATOM      1  O   UNL     1      12.212   7.277  19.201  0.00  0.00    -0.343 OA
ATOM      2  O   UNL     1      12.433   7.887  16.975  0.00  0.00    -0.347 OA
ATOM      8  C   UNL     1      14.278   8.297  18.481  0.00  0.00    +0.143 C 
ATOM      9  C   UNL     1      12.326   9.674  19.491  0.00  0.00    +0.116 C 
ATOM     10  C   UNL     1      13.720   9.700  18.815  0.00  0.00    +0.156 C 
ATOM     11  C   UNL     1      11.461   8.483  19.021  0.00  0.00    +0.166 C 
ATOM     12  C   UNL     1      13.133   7.339  18.104  0.00  0.00    +0.270 C 
ATOM     13  C   UNL     1      11.226   8.438  17.523  0.00  0.00    +0.196 C 
ENDROOT
BRANCH  10   3
ATOM      3  O   UNL     1      13.616  10.430  17.585  0.00  0.00    -0.388 OA
ATOM     31  H   UNL     1      14.045   9.899  16.892  0.00  0.00    +0.210 HD
ENDBRANCH  10   3
BRANCH   8   5
ATOM      5  N   UNL     1      15.032   7.755  19.612  0.00  0.00    -0.295 NA
ATOM     15  C   UNL     1      15.741   6.540  19.217  0.00  0.00    +0.105 C 
BRANCH   5  14
ATOM     14  C   UNL     1      15.970   8.752  20.124  0.00  0.00    +0.091 C 
BRANCH  14  17
ATOM     17  C   UNL     1      15.882   8.856  21.648  0.00  0.00    +0.071 C 
BRANCH  17  19
ATOM      7  N   UNL     1      14.807  10.358  23.234  0.00  0.00    -0.260 NA
ATOM     19  C   UNL     1      15.515  10.251  22.088  0.00  0.00    +0.042 A 
ATOM     22  C   UNL     1      15.911  11.331  21.317  0.00  0.00    +0.023 A 
ATOM     26  C   UNL     1      15.559  12.605  21.751  0.00  0.00    +0.003 A 
ATOM     27  C   UNL     1      14.482  11.610  23.624  0.00  0.00    +0.111 A 
ATOM     28  C   UNL     1      14.830  12.756  22.925  0.00  0.00    +0.020 A 
ENDBRANCH  17  19
ENDBRANCH  14  17
ENDBRANCH   5  14
ENDBRANCH   8   5
BRANCH   9   6
ATOM      6  N   UNL     1      12.463   9.594  20.949  0.00  0.00    -0.305 NA
ATOM     30  H   UNL     1      13.086  10.332  21.276  0.00  0.00    +0.123 HD
BRANCH   6  16
ATOM     16  C   UNL     1      11.165   9.711  21.591  0.00  0.00    +0.116 C 
BRANCH  16  18
ATOM     18  C   UNL     1      11.087  10.923  22.482  0.00  0.00    -0.033 A 
ATOM     20  C   UNL     1      10.947  10.767  23.861  0.00  0.00    +0.008 A 
ATOM     21  C   UNL     1      11.157  12.201  21.928  0.00  0.00    +0.008 A 
ATOM     23  C   UNL     1      10.876  11.890  24.686  0.00  0.00    +0.046 A 
ATOM     24  C   UNL     1      11.086  13.324  22.753  0.00  0.00    +0.046 A 
ATOM     25  C   UNL     1      10.945  13.168  24.132  0.00  0.00    +0.120 A 
BRANCH  25   4
ATOM      4  O   UNL     1      10.876  14.263  24.936  0.00  0.00    -0.495 OA
ATOM     29  C   UNL     1      11.157  15.527  24.339  0.00  0.00    +0.277 C 
ENDBRANCH  25   4
ENDBRANCH  16  18
ENDBRANCH   6  16
ENDBRANCH   9   6
TORSDOF 9
ENDMDL
MODEL 4
REMARK VINA RESULT:      -5.2      1.731      6.589
REMARK  Name = 25317550
REMARK  11 active torsions:
REMARK  status: ('A' for Active; 'I' for Inactive)
REMARK    1  A    between atoms: O_3  and  C_10
REMARK    2  A    between atoms: O_4  and  C_25
REMARK    3  A    between atoms: O_4  and  C_29
REMARK    4  A    between atoms: N_5  and  C_8
REMARK    5  A    between atoms: N_5  and  C_14
REMARK    6  A    between atoms: N_5  and  C_15
REMARK    7  A    between atoms: N_6  and  C_9
REMARK    8  A    between atoms: N_6  and  C_16
REMARK    9  A    between atoms: C_14  and  C_17
REMARK   10  A    between atoms: C_16  and  C_18
REMARK   11  A    between atoms: C_17  and  C_19
REMARK                            x       y       z     vdW  Elec       q    Type
REMARK                         _______ _______ _______ _____ _____    ______ ____
ROOT
ATOM      1  O   UNL     1      12.846   7.598  21.999  0.00  0.00    -0.343 OA
ATOM      2  O   UNL     1      11.836   6.280  20.381  0.00  0.00    -0.347 OA
ATOM      8  C   UNL     1      12.848   8.370  19.712  0.00  0.00    +0.143 C 
ATOM      9  C   UNL     1      11.024   9.074  21.416  0.00  0.00    +0.116 C 
ATOM     10  C   UNL     1      11.514   9.115  19.947  0.00  0.00    +0.156 C 
ATOM     11  C   UNL     1      11.432   7.772  22.141  0.00  0.00    +0.166 C 
ATOM     12  C   UNL     1      12.952   7.147  20.642  0.00  0.00    +0.270 C 
ATOM     13  C   UNL     1      10.932   6.504  21.474  0.00  0.00    +0.196 C 
ENDROOT
BRANCH  10   3
ATOM      3  O   UNL     1      10.520   8.497  19.118  0.00  0.00    -0.388 OA
ATOM     31  H   UNL     1      10.926   8.328  18.250  0.00  0.00    +0.210 HD
ENDBRANCH  10   3
BRANCH   8   5
ATOM      5  N   UNL     1      13.987   9.262  19.932  0.00  0.00    -0.295 NA
ATOM     15  C   UNL     1      15.240   8.577  19.621  0.00  0.00    +0.105 C 
BRANCH   5  14
ATOM     14  C   UNL     1      13.850  10.472  19.122  0.00  0.00    +0.091 C 
BRANCH  14  17
ATOM     17  C   UNL     1      14.749  11.590  19.652  0.00  0.00    +0.071 C 
BRANCH  17  19
ATOM      7  N   UNL     1      14.611  13.239  21.438  0.00  0.00    -0.260 NA
ATOM     19  C   UNL     1      13.961  12.612  20.431  0.00  0.00    +0.042 A 
ATOM     22  C   UNL     1      12.641  12.857  20.089  0.00  0.00    +0.023 A 
ATOM     26  C   UNL     1      11.942  13.806  20.827  0.00  0.00    +0.003 A 
ATOM     27  C   UNL     1      13.900  14.155  22.133  0.00  0.00    +0.111 A 
ATOM     28  C   UNL     1      12.576  14.472  21.870  0.00  0.00    +0.020 A 
ENDBRANCH  17  19
ENDBRANCH  14  17
ENDBRANCH   5  14
ENDBRANCH   8   5
BRANCH   9   6
ATOM      6  N   UNL     1      11.566  10.209  22.171  0.00  0.00    -0.305 NA
ATOM     30  H   UNL     1      11.386  11.075  21.663  0.00  0.00    +0.123 HD
BRANCH   6  16
ATOM     16  C   UNL     1      10.974  10.270  23.496  0.00  0.00    +0.116 C 
BRANCH  16  18
ATOM     18  C   UNL     1      11.307  11.558  24.201  0.00  0.00    -0.033 A 
ATOM     20  C   UNL     1      10.364  12.584  24.261  0.00  0.00    +0.008 A 
ATOM     21  C   UNL     1      12.559  11.725  24.793  0.00  0.00    +0.008 A 
ATOM     23  C   UNL     1      10.673  13.778  24.915  0.00  0.00    +0.046 A 
ATOM     24  C   UNL     1      12.869  12.918  25.445  0.00  0.00    +0.046 A 
ATOM     25  C   UNL     1      11.925  13.945  25.506  0.00  0.00    +0.120 A 
BRANCH  25   4
ATOM      4  O   UNL     1      12.227  15.108  26.143  0.00  0.00    -0.495 OA
ATOM     29  C   UNL     1      13.492  15.181  26.800  0.00  0.00    +0.277 C 
ENDBRANCH  25   4
ENDBRANCH  16  18
ENDBRANCH   6  16
ENDBRANCH   9   6
TORSDOF 9
ENDMDL
MODEL 5
REMARK VINA RESULT:      -5.2     25.070     27.221
REMARK  Name = 25317550
REMARK  11 active torsions:
REMARK  status: ('A' for Active; 'I' for Inactive)
REMARK    1  A    between atoms: O_3  and  C_10
REMARK    2  A    between atoms: O_4  and  C_25
REMARK    3  A    between atoms: O_4  and  C_29
REMARK    4  A    between atoms: N_5  and  C_8
REMARK    5  A    between atoms: N_5  and  C_14
REMARK    6  A    between atoms: N_5  and  C_15
REMARK    7  A    between atoms: N_6  and  C_9
REMARK    8  A    between atoms: N_6  and  C_16
REMARK    9  A    between atoms: C_14  and  C_17
REMARK   10  A    between atoms: C_16  and  C_18
REMARK   11  A    between atoms: C_17  and  C_19
REMARK                            x       y       z     vdW  Elec       q    Type
REMARK                         _______ _______ _______ _____ _____    ______ ____
ROOT
ATOM      1  O   UNL     1     -15.041   4.610  21.546  0.00  0.00    -0.343 OA
ATOM      2  O   UNL     1     -15.952   4.892  23.660  0.00  0.00    -0.347 OA
ATOM      8  C   UNL     1     -16.453   6.527  21.950  0.00  0.00    +0.143 C 
ATOM      9  C   UNL     1     -13.871   6.629  22.179  0.00  0.00    +0.116 C 
ATOM     10  C   UNL     1     -15.221   7.365  22.363  0.00  0.00    +0.156 C 
ATOM     11  C   UNL     1     -13.995   5.103  22.391  0.00  0.00    +0.166 C 
ATOM     12  C   UNL     1     -16.214   5.036  22.254  0.00  0.00    +0.270 C 
ATOM     13  C   UNL     1     -14.532   4.705  23.753  0.00  0.00    +0.196 C 
ENDROOT
BRANCH  10   3
ATOM      3  O   UNL     1     -15.371   7.703  23.750  0.00  0.00    -0.388 OA
ATOM     31  H   UNL     1     -14.485   7.689  24.152  0.00  0.00    +0.210 HD
ENDBRANCH  10   3
BRANCH   8   5
ATOM      5  N   UNL     1     -16.751   6.706  20.529  0.00  0.00    -0.295 NA
ATOM     15  C   UNL     1     -18.121   6.286  20.238  0.00  0.00    +0.105 C 
BRANCH   5  14
ATOM     14  C   UNL     1     -16.547   8.099  20.137  0.00  0.00    +0.091 C 
BRANCH  14  17
ATOM     17  C   UNL     1     -15.767   8.191  18.825  0.00  0.00    +0.071 C 
BRANCH  17  19
ATOM      7  N   UNL     1     -14.481   9.870  20.032  0.00  0.00    -0.260 NA
ATOM     19  C   UNL     1     -14.821   9.366  18.824  0.00  0.00    +0.042 A 
ATOM     22  C   UNL     1     -14.356   9.861  17.618  0.00  0.00    +0.023 A 
ATOM     26  C   UNL     1     -13.484  10.944  17.651  0.00  0.00    +0.003 A 
ATOM     27  C   UNL     1     -13.632  10.922  20.025  0.00  0.00    +0.111 A 
ATOM     28  C   UNL     1     -13.110  11.491  18.874  0.00  0.00    +0.020 A 
ENDBRANCH  17  19
ENDBRANCH  14  17
ENDBRANCH   5  14
ENDBRANCH   8   5
BRANCH   9   6
ATOM      6  N   UNL     1     -13.337   6.863  20.833  0.00  0.00    -0.305 NA
ATOM     30  H   UNL     1     -13.705   7.741  20.466  0.00  0.00    +0.123 HD
BRANCH   6  16
ATOM     16  C   UNL     1     -11.885   6.898  20.859  0.00  0.00    +0.116 C 
BRANCH  16  18
ATOM     18  C   UNL     1     -11.324   7.726  19.734  0.00  0.00    -0.033 A 
ATOM     20  C   UNL     1     -11.522   7.332  18.411  0.00  0.00    +0.008 A 
ATOM     21  C   UNL     1     -10.606   8.889  20.016  0.00  0.00    +0.008 A 
ATOM     23  C   UNL     1     -11.002   8.100  17.369  0.00  0.00    +0.046 A 
ATOM     24  C   UNL     1     -10.086   9.657  18.974  0.00  0.00    +0.046 A 
ATOM     25  C   UNL     1     -10.284   9.262  17.650  0.00  0.00    +0.120 A 
BRANCH  25   4
ATOM      4  O   UNL     1      -9.777  10.011  16.634  0.00  0.00    -0.495 OA
ATOM     29  C   UNL     1      -9.707  11.421  16.838  0.00  0.00    +0.277 C 
ENDBRANCH  25   4
ENDBRANCH  16  18
ENDBRANCH   6  16
ENDBRANCH   9   6
TORSDOF 9
ENDMDL
MODEL 6
REMARK VINA RESULT:      -5.1      3.148      6.847
REMARK  Name = 25317550
REMARK  11 active torsions:
REMARK  status: ('A' for Active; 'I' for Inactive)
REMARK    1  A    between atoms: O_3  and  C_10
REMARK    2  A    between atoms: O_4  and  C_25
REMARK    3  A    between atoms: O_4  and  C_29
REMARK    4  A    between atoms: N_5  and  C_8
REMARK    5  A    between atoms: N_5  and  C_14
REMARK    6  A    between atoms: N_5  and  C_15
REMARK    7  A    between atoms: N_6  and  C_9
REMARK    8  A    between atoms: N_6  and  C_16
REMARK    9  A    between atoms: C_14  and  C_17
REMARK   10  A    between atoms: C_16  and  C_18
REMARK   11  A    between atoms: C_17  and  C_19
REMARK                            x       y       z     vdW  Elec       q    Type
REMARK                         _______ _______ _______ _____ _____    ______ ____
ROOT
ATOM      1  O   UNL     1      13.579   7.266  20.795  0.00  0.00    -0.343 OA
ATOM      2  O   UNL     1      11.677   6.075  20.212  0.00  0.00    -0.347 OA
ATOM      8  C   UNL     1      12.378   7.910  18.803  0.00  0.00    +0.143 C 
ATOM      9  C   UNL     1      11.944   9.019  21.107  0.00  0.00    +0.116 C 
ATOM     10  C   UNL     1      11.515   8.896  19.624  0.00  0.00    +0.156 C 
ATOM     11  C   UNL     1      12.529   7.701  21.666  0.00  0.00    +0.166 C 
ATOM     12  C   UNL     1      12.840   6.737  19.687  0.00  0.00    +0.270 C 
ATOM     13  C   UNL     1      11.588   6.515  21.576  0.00  0.00    +0.196 C 
ENDROOT
BRANCH  10   3
ATOM      3  O   UNL     1      10.159   8.428  19.579  0.00  0.00    -0.388 OA
ATOM     31  H   UNL     1      10.073   7.856  18.797  0.00  0.00    +0.210 HD
ENDBRANCH  10   3
BRANCH   8   5
ATOM      5  N   UNL     1      13.538   8.590  18.228  0.00  0.00    -0.295 NA
ATOM     15  C   UNL     1      14.296   7.675  17.376  0.00  0.00    +0.105 C 
BRANCH   5  14
ATOM     14  C   UNL     1      13.116   9.766  17.469  0.00  0.00    +0.091 C 
BRANCH  14  17
ATOM     17  C   UNL     1      14.089  10.929  17.673  0.00  0.00    +0.071 C 
BRANCH  17  19
ATOM      7  N   UNL     1      14.302  12.870  16.219  0.00  0.00    -0.260 NA
ATOM     19  C   UNL     1      14.504  11.540  16.359  0.00  0.00    +0.042 A 
ATOM     22  C   UNL     1      15.059  10.733  15.380  0.00  0.00    +0.023 A 
ATOM     26  C   UNL     1      15.433  11.328  14.180  0.00  0.00    +0.003 A 
ATOM     27  C   UNL     1      14.677  13.413  15.039  0.00  0.00    +0.111 A 
ATOM     28  C   UNL     1      15.241  12.693  13.998  0.00  0.00    +0.020 A 
ENDBRANCH  17  19
ENDBRANCH  14  17
ENDBRANCH   5  14
ENDBRANCH   8   5
BRANCH   9   6
ATOM      6  N   UNL     1      12.953  10.072  21.266  0.00  0.00    -0.305 NA
ATOM     30  H   UNL     1      12.759  10.832  20.614  0.00  0.00    +0.123 HD
BRANCH   6  16
ATOM     16  C   UNL     1      12.960  10.570  22.631  0.00  0.00    +0.116 C 
BRANCH  16  18
ATOM     18  C   UNL     1      11.958  11.676  22.829  0.00  0.00    -0.033 A 
ATOM     20  C   UNL     1      11.359  11.860  24.075  0.00  0.00    +0.008 A 
ATOM     21  C   UNL     1      11.629  12.517  21.766  0.00  0.00    +0.008 A 
ATOM     23  C   UNL     1      10.431  12.886  24.259  0.00  0.00    +0.046 A 
ATOM     24  C   UNL     1      10.700  13.542  21.949  0.00  0.00    +0.046 A 
ATOM     25  C   UNL     1      10.101  13.726  23.196  0.00  0.00    +0.120 A 
BRANCH  25   4
ATOM      4  O   UNL     1       9.196  14.726  23.374  0.00  0.00    -0.495 OA
ATOM     29  C   UNL     1       8.332  15.023  22.279  0.00  0.00    +0.277 C 
ENDBRANCH  25   4
ENDBRANCH  16  18
ENDBRANCH   6  16
ENDBRANCH   9   6
TORSDOF 9
ENDMDL
MODEL 7
REMARK VINA RESULT:      -5.0      2.530      6.439
REMARK  Name = 25317550
REMARK  11 active torsions:
REMARK  status: ('A' for Active; 'I' for Inactive)
REMARK    1  A    between atoms: O_3  and  C_10
REMARK    2  A    between atoms: O_4  and  C_25
REMARK    3  A    between atoms: O_4  and  C_29
REMARK    4  A    between atoms: N_5  and  C_8
REMARK    5  A    between atoms: N_5  and  C_14
REMARK    6  A    between atoms: N_5  and  C_15
REMARK    7  A    between atoms: N_6  and  C_9
REMARK    8  A    between atoms: N_6  and  C_16
REMARK    9  A    between atoms: C_14  and  C_17
REMARK   10  A    between atoms: C_16  and  C_18
REMARK   11  A    between atoms: C_17  and  C_19
REMARK                            x       y       z     vdW  Elec       q    Type
REMARK                         _______ _______ _______ _____ _____    ______ ____
ROOT
ATOM      1  O   UNL     1      12.228   7.258  19.231  0.00  0.00    -0.343 OA
ATOM      2  O   UNL     1      12.379   7.948  17.022  0.00  0.00    -0.347 OA
ATOM      8  C   UNL     1      14.275   8.296  18.481  0.00  0.00    +0.143 C 
ATOM      9  C   UNL     1      12.363   9.643  19.604  0.00  0.00    +0.116 C 
ATOM     10  C   UNL     1      13.734   9.688  18.885  0.00  0.00    +0.156 C 
ATOM     11  C   UNL     1      11.477   8.472  19.119  0.00  0.00    +0.166 C 
ATOM     12  C   UNL     1      13.113   7.357  18.107  0.00  0.00    +0.270 C 
ATOM     13  C   UNL     1      11.193   8.483  17.629  0.00  0.00    +0.196 C 
ENDROOT
BRANCH  10   3
ATOM      3  O   UNL     1      13.594  10.464  17.686  0.00  0.00    -0.388 OA
ATOM     31  H   UNL     1      12.748  10.217  17.274  0.00  0.00    +0.210 HD
ENDBRANCH  10   3
BRANCH   8   5
ATOM      5  N   UNL     1      15.062   7.711  19.567  0.00  0.00    -0.295 NA
ATOM     15  C   UNL     1      15.793   6.537  19.092  0.00  0.00    +0.105 C 
BRANCH   5  14
ATOM     14  C   UNL     1      15.985   8.700  20.119  0.00  0.00    +0.091 C 
BRANCH  14  17
ATOM     17  C   UNL     1      16.570   8.222  21.449  0.00  0.00    +0.071 C 
BRANCH  17  19
ATOM      7  N   UNL     1      18.675   7.068  21.044  0.00  0.00    -0.260 NA
ATOM     19  C   UNL     1      18.078   8.221  21.421  0.00  0.00    +0.042 A 
ATOM     22  C   UNL     1      18.765   9.371  21.774  0.00  0.00    +0.023 A 
ATOM     26  C   UNL     1      20.154   9.337  21.737  0.00  0.00    +0.003 A 
ATOM     27  C   UNL     1      20.027   7.072  21.020  0.00  0.00    +0.111 A 
ATOM     28  C   UNL     1      20.806   8.170  21.354  0.00  0.00    +0.020 A 
ENDBRANCH  17  19
ENDBRANCH  14  17
ENDBRANCH   5  14
ENDBRANCH   8   5
BRANCH   9   6
ATOM      6  N   UNL     1      12.546   9.509  21.053  0.00  0.00    -0.305 NA
ATOM     30  H   UNL     1      13.183  10.233  21.386  0.00  0.00    +0.123 HD
BRANCH   6  16
ATOM     16  C   UNL     1      11.270   9.606  21.741  0.00  0.00    +0.116 C 
BRANCH  16  18
ATOM     18  C   UNL     1      11.129  10.911  22.478  0.00  0.00    -0.033 A 
ATOM     20  C   UNL     1      11.238  12.118  21.788  0.00  0.00    +0.008 A 
ATOM     21  C   UNL     1      10.888  10.913  23.852  0.00  0.00    +0.008 A 
ATOM     23  C   UNL     1      11.106  13.328  22.471  0.00  0.00    +0.046 A 
ATOM     24  C   UNL     1      10.757  12.122  24.536  0.00  0.00    +0.046 A 
ATOM     25  C   UNL     1      10.867  13.329  23.845  0.00  0.00    +0.120 A 
BRANCH  25   4
ATOM      4  O   UNL     1      10.738  14.508  24.512  0.00  0.00    -0.495 OA
ATOM     29  C   UNL     1       9.724  15.404  24.060  0.00  0.00    +0.277 C 
ENDBRANCH  25   4
ENDBRANCH  16  18
ENDBRANCH   6  16
ENDBRANCH   9   6
TORSDOF 9
ENDMDL
MODEL 8
REMARK VINA RESULT:      -5.0     15.461     20.523
REMARK  Name = 25317550
REMARK  11 active torsions:
REMARK  status: ('A' for Active; 'I' for Inactive)
REMARK    1  A    between atoms: O_3  and  C_10
REMARK    2  A    between atoms: O_4  and  C_25
REMARK    3  A    between atoms: O_4  and  C_29
REMARK    4  A    between atoms: N_5  and  C_8
REMARK    5  A    between atoms: N_5  and  C_14
REMARK    6  A    between atoms: N_5  and  C_15
REMARK    7  A    between atoms: N_6  and  C_9
REMARK    8  A    between atoms: N_6  and  C_16
REMARK    9  A    between atoms: C_14  and  C_17
REMARK   10  A    between atoms: C_16  and  C_18
REMARK   11  A    between atoms: C_17  and  C_19
REMARK                            x       y       z     vdW  Elec       q    Type
REMARK                         _______ _______ _______ _____ _____    ______ ____
ROOT
ATOM      1  O   UNL     1      13.451   5.442   0.804  0.00  0.00    -0.343 OA
ATOM      2  O   UNL     1      12.452   4.013  -0.724  0.00  0.00    -0.347 OA
ATOM      8  C   UNL     1      11.188   5.902   0.099  0.00  0.00    +0.143 C 
ATOM      9  C   UNL     1      11.728   4.530   2.233  0.00  0.00    +0.116 C 
ATOM     10  C   UNL     1      10.636   5.049   1.265  0.00  0.00    +0.156 C 
ATOM     11  C   UNL     1      13.073   4.262   1.521  0.00  0.00    +0.166 C 
ATOM     12  C   UNL     1      12.576   5.389  -0.331  0.00  0.00    +0.270 C 
ATOM     13  C   UNL     1      12.985   3.265   0.380  0.00  0.00    +0.196 C 
ENDROOT
BRANCH  10   3
ATOM      3  O   UNL     1       9.958   3.921   0.695  0.00  0.00    -0.388 OA
ATOM     31  H   UNL     1       9.929   3.223   1.372  0.00  0.00    +0.210 HD
ENDBRANCH  10   3
BRANCH   8   5
ATOM      5  N   UNL     1      11.272   7.312   0.480  0.00  0.00    -0.295 NA
ATOM     15  C   UNL     1      11.912   8.090  -0.579  0.00  0.00    +0.105 C 
BRANCH   5  14
ATOM     14  C   UNL     1       9.941   7.841   0.771  0.00  0.00    +0.091 C 
BRANCH  14  17
ATOM     17  C   UNL     1      10.031   9.190   1.487  0.00  0.00    +0.071 C 
BRANCH  17  19
ATOM      7  N   UNL     1      10.273   9.582   3.877  0.00  0.00    -0.260 NA
ATOM     19  C   UNL     1       9.481   9.111   2.888  0.00  0.00    +0.042 A 
ATOM     22  C   UNL     1       8.220   8.574   3.093  0.00  0.00    +0.023 A 
ATOM     26  C   UNL     1       7.741   8.517   4.397  0.00  0.00    +0.003 A 
ATOM     27  C   UNL     1       9.774   9.510   5.132  0.00  0.00    +0.111 A 
ATOM     28  C   UNL     1       8.526   8.992   5.442  0.00  0.00    +0.020 A 
ENDBRANCH  17  19
ENDBRANCH  14  17
ENDBRANCH   5  14
ENDBRANCH   8   5
BRANCH   9   6
ATOM      6  N   UNL     1      11.964   5.499   3.309  0.00  0.00    -0.305 NA
ATOM     30  H   UNL     1      12.531   6.270   2.956  0.00  0.00    +0.123 HD
BRANCH   6  16
ATOM     16  C   UNL     1      10.705   5.998   3.833  0.00  0.00    +0.116 C 
BRANCH  16  18
ATOM     18  C   UNL     1      10.629   5.868   5.331  0.00  0.00    -0.033 A 
ATOM     20  C   UNL     1       9.559   5.194   5.919  0.00  0.00    +0.008 A 
ATOM     21  C   UNL     1      11.631   6.420   6.130  0.00  0.00    +0.008 A 
ATOM     23  C   UNL     1       9.490   5.073   7.308  0.00  0.00    +0.046 A 
ATOM     24  C   UNL     1      11.561   6.299   7.518  0.00  0.00    +0.046 A 
ATOM     25  C   UNL     1      10.490   5.626   8.107  0.00  0.00    +0.120 A 
BRANCH  25   4
ATOM      4  O   UNL     1      10.423   5.508   9.460  0.00  0.00    -0.495 OA
ATOM     29  C   UNL     1       9.504   4.551   9.985  0.00  0.00    +0.277 C 
ENDBRANCH  25   4
ENDBRANCH  16  18
ENDBRANCH   6  16
ENDBRANCH   9   6
TORSDOF 9
ENDMDL
MODEL 9
REMARK VINA RESULT:      -5.0     15.265     18.856
REMARK  Name = 25317550
REMARK  11 active torsions:
REMARK  status: ('A' for Active; 'I' for Inactive)
REMARK    1  A    between atoms: O_3  and  C_10
REMARK    2  A    between atoms: O_4  and  C_25
REMARK    3  A    between atoms: O_4  and  C_29
REMARK    4  A    between atoms: N_5  and  C_8
REMARK    5  A    between atoms: N_5  and  C_14
REMARK    6  A    between atoms: N_5  and  C_15
REMARK    7  A    between atoms: N_6  and  C_9
REMARK    8  A    between atoms: N_6  and  C_16
REMARK    9  A    between atoms: C_14  and  C_17
REMARK   10  A    between atoms: C_16  and  C_18
REMARK   11  A    between atoms: C_17  and  C_19
REMARK                            x       y       z     vdW  Elec       q    Type
REMARK                         _______ _______ _______ _____ _____    ______ ____
ROOT
ATOM      1  O   UNL     1       8.786   6.147   6.909  0.00  0.00    -0.343 OA
ATOM      2  O   UNL     1       9.935   5.511   8.820  0.00  0.00    -0.347 OA
ATOM      8  C   UNL     1      10.637   7.507   7.651  0.00  0.00    +0.143 C 
ATOM      9  C   UNL     1      10.914   5.620   5.893  0.00  0.00    +0.116 C 
ATOM     10  C   UNL     1      11.612   6.679   6.782  0.00  0.00    +0.156 C 
ATOM     11  C   UNL     1       9.632   5.052   6.544  0.00  0.00    +0.166 C 
ATOM     12  C   UNL     1       9.439   6.643   8.086  0.00  0.00    +0.270 C 
ATOM     13  C   UNL     1       9.854   4.412   7.901  0.00  0.00    +0.196 C 
ENDROOT
BRANCH  10   3
ATOM      3  O   UNL     1      12.518   6.006   7.668  0.00  0.00    -0.388 OA
ATOM     31  H   UNL     1      11.984   5.545   8.338  0.00  0.00    +0.210 HD
ENDBRANCH  10   3
BRANCH   8   5
ATOM      5  N   UNL     1      10.166   8.685   6.923  0.00  0.00    -0.295 NA
ATOM     15  C   UNL     1       9.592   9.661   7.848  0.00  0.00    +0.105 C 
BRANCH   5  14
ATOM     14  C   UNL     1      11.259   9.284   6.160  0.00  0.00    +0.091 C 
BRANCH  14  17
ATOM     17  C   UNL     1      10.724  10.254   5.105  0.00  0.00    +0.071 C 
BRANCH  17  19
ATOM      7  N   UNL     1       8.931   9.076   3.954  0.00  0.00    -0.260 NA
ATOM     19  C   UNL     1      10.205   9.523   3.893  0.00  0.00    +0.042 A 
ATOM     22  C   UNL     1      11.037   9.346   2.799  0.00  0.00    +0.023 A 
ATOM     26  C   UNL     1      10.528   8.669   1.696  0.00  0.00    +0.003 A 
ATOM     27  C   UNL     1       8.470   8.422   2.864  0.00  0.00    +0.111 A 
ATOM     28  C   UNL     1       9.221   8.194   1.721  0.00  0.00    +0.020 A 
ENDBRANCH  17  19
ENDBRANCH  14  17
ENDBRANCH   5  14
ENDBRANCH   8   5
BRANCH   9   6
ATOM      6  N   UNL     1      10.552   6.196   4.594  0.00  0.00    -0.305 NA
ATOM     30  H   UNL     1      11.315   6.784   4.256  0.00  0.00    +0.123 HD
BRANCH   6  16
ATOM     16  C   UNL     1      10.263   5.146   3.633  0.00  0.00    +0.116 C 
BRANCH  16  18
ATOM     18  C   UNL     1      11.480   4.767   2.832  0.00  0.00    -0.033 A 
ATOM     20  C   UNL     1      11.640   3.457   2.382  0.00  0.00    +0.008 A 
ATOM     21  C   UNL     1      12.449   5.728   2.541  0.00  0.00    +0.008 A 
ATOM     23  C   UNL     1      12.768   3.107   1.639  0.00  0.00    +0.046 A 
ATOM     24  C   UNL     1      13.578   5.378   1.799  0.00  0.00    +0.046 A 
ATOM     25  C   UNL     1      13.737   4.067   1.349  0.00  0.00    +0.120 A 
BRANCH  25   4
ATOM      4  O   UNL     1      14.837   3.726   0.625  0.00  0.00    -0.495 OA
ATOM     29  C   UNL     1      15.198   4.586  -0.454  0.00  0.00    +0.277 C 
ENDBRANCH  25   4
ENDBRANCH  16  18
ENDBRANCH   6  16
ENDBRANCH   9   6
TORSDOF 9
ENDMDL
MODEL 10
REMARK VINA RESULT:      -4.9     27.961     30.189
REMARK  Name = 25317550
REMARK  11 active torsions:
REMARK  status: ('A' for Active; 'I' for Inactive)
REMARK    1  A    between atoms: O_3  and  C_10
REMARK    2  A    between atoms: O_4  and  C_25
REMARK    3  A    between atoms: O_4  and  C_29
REMARK    4  A    between atoms: N_5  and  C_8
REMARK    5  A    between atoms: N_5  and  C_14
REMARK    6  A    between atoms: N_5  and  C_15
REMARK    7  A    between atoms: N_6  and  C_9
REMARK    8  A    between atoms: N_6  and  C_16
REMARK    9  A    between atoms: C_14  and  C_17
REMARK   10  A    between atoms: C_16  and  C_18
REMARK   11  A    between atoms: C_17  and  C_19
REMARK                            x       y       z     vdW  Elec       q    Type
REMARK                         _______ _______ _______ _____ _____    ______ ____
ROOT
ATOM      1  O   UNL     1      -3.828 -12.004  12.460  0.00  0.00    -0.343 OA
ATOM      2  O   UNL     1      -1.534 -12.082  12.785  0.00  0.00    -0.347 OA
ATOM      8  C   UNL     1      -2.974 -13.160  14.399  0.00  0.00    +0.143 C 
ATOM      9  C   UNL     1      -3.702 -10.672  14.472  0.00  0.00    +0.116 C 
ATOM     10  C   UNL     1      -3.053 -11.857  15.229  0.00  0.00    +0.156 C 
ATOM     11  C   UNL     1      -3.432 -10.719  12.951  0.00  0.00    +0.166 C 
ATOM     12  C   UNL     1      -2.751 -12.836  12.910  0.00  0.00    +0.270 C 
ATOM     13  C   UNL     1      -1.960 -10.726  12.581  0.00  0.00    +0.196 C 
ENDROOT
BRANCH  10   3
ATOM      3  O   UNL     1      -1.713 -11.490  15.589  0.00  0.00    -0.388 OA
ATOM     31  H   UNL     1      -1.519 -11.898  16.450  0.00  0.00    +0.210 HD
ENDBRANCH  10   3
BRANCH   8   5
ATOM      5  N   UNL     1      -4.192 -13.953  14.561  0.00  0.00    -0.295 NA
ATOM     15  C   UNL     1      -4.079 -15.217  13.836  0.00  0.00    +0.105 C 
BRANCH   5  14
ATOM     14  C   UNL     1      -4.457 -14.198  15.978  0.00  0.00    +0.091 C 
BRANCH  14  17
ATOM     17  C   UNL     1      -5.929 -13.949  16.311  0.00  0.00    +0.071 C 
BRANCH  17  19
ATOM      7  N   UNL     1      -4.956 -12.541  18.043  0.00  0.00    -0.260 NA
ATOM     19  C   UNL     1      -6.081 -13.113  17.557  0.00  0.00    +0.042 A 
ATOM     22  C   UNL     1      -7.333 -12.973  18.132  0.00  0.00    +0.023 A 
ATOM     26  C   UNL     1      -7.440 -12.195  19.279  0.00  0.00    +0.003 A 
ATOM     27  C   UNL     1      -5.098 -11.792  19.159  0.00  0.00    +0.111 A 
ATOM     28  C   UNL     1      -6.306 -11.589  19.810  0.00  0.00    +0.020 A 
ENDBRANCH  17  19
ENDBRANCH  14  17
ENDBRANCH   5  14
ENDBRANCH   8   5
BRANCH   9   6
ATOM      6  N   UNL     1      -5.154 -10.662  14.679  0.00  0.00    -0.305 NA
ATOM     30  H   UNL     1      -5.489 -11.618  14.799  0.00  0.00    +0.123 HD
BRANCH   6  16
ATOM     16  C   UNL     1      -5.499  -9.859  15.840  0.00  0.00    +0.116 C 
BRANCH  16  18
ATOM     18  C   UNL     1      -6.977  -9.893  16.125  0.00  0.00    -0.033 A 
ATOM     20  C   UNL     1      -7.497  -9.172  17.200  0.00  0.00    +0.008 A 
ATOM     21  C   UNL     1      -7.827 -10.647  15.314  0.00  0.00    +0.008 A 
ATOM     23  C   UNL     1      -8.867  -9.203  17.464  0.00  0.00    +0.046 A 
ATOM     24  C   UNL     1      -9.196 -10.679  15.579  0.00  0.00    +0.046 A 
ATOM     25  C   UNL     1      -9.716  -9.957  16.654  0.00  0.00    +0.120 A 
BRANCH  25   4
ATOM      4  O   UNL     1     -11.051  -9.988  16.911  0.00  0.00    -0.495 OA
ATOM     29  C   UNL     1     -11.515 -10.980  17.826  0.00  0.00    +0.277 C 
ENDBRANCH  25   4
ENDBRANCH  16  18
ENDBRANCH   6  16
ENDBRANCH   9   6
TORSDOF 9
ENDMDL
