REMARK  Name = 45783434
REMARK  9 active torsions:
REMARK  status: ('A' for Active; 'I' for Inactive)
REMARK    1  A    between atoms: O_3  and  C_25
REMARK    2  A    between atoms: O_3  and  C_28
REMARK    3  A    between atoms: O_4  and  C_29
REMARK    4  A    between atoms: O_4  and  C_30
REMARK    5  A    between atoms: N_5  and  C_10
REMARK    6  A    between atoms: C_11  and  C_19
REMARK    7  A    between atoms: C_20  and  C_21
REMARK    8  A    between atoms: C_22  and  C_23
REMARK    9  A    between atoms: C_28  and  C_29
REMARK                            x       y       z     vdW  Elec       q    Type
REMARK                         _______ _______ _______ _____ _____    ______ ____
ROOT
ATOM      1  O   UNL     1       1.300   3.076   1.343  0.00  0.00    -0.336 OA
ATOM      7  N   UNL     1       0.265   1.760  -0.144  0.00  0.00    -0.189 NA
ATOM      8  N   UNL     1      -0.047   3.042   1.724  0.00  0.00    -0.054 NA
ATOM     19  C   UNL     1       1.397   2.296   0.235  0.00  0.00    +0.245 A 
ATOM     22  C   UNL     1      -0.592   2.246   0.799  0.00  0.00    +0.221 A 
ENDROOT
BRANCH  22  23
ATOM      9  N   UNL     1      -2.726   2.468   1.781  0.00  0.00    -0.252 NA
ATOM     23  C   UNL     1      -1.989   1.919   0.789  0.00  0.00    +0.115 A 
ATOM     24  C   UNL     1      -2.505   1.089  -0.193  0.00  0.00    +0.077 A 
ATOM     25  C   UNL     1      -3.865   0.805  -0.156  0.00  0.00    +0.124 A 
ATOM     26  C   UNL     1      -4.044   2.168   1.785  0.00  0.00    +0.115 A 
ATOM     27  C   UNL     1      -4.657   1.351   0.849  0.00  0.00    +0.065 A 
BRANCH  25   3
ATOM      3  O   UNL     1      -4.420  -0.004  -1.098  0.00  0.00    -0.490 OA
BRANCH   3  28
ATOM     28  C   UNL     1      -3.585  -1.016  -1.659  0.00  0.00    +0.257 C 
BRANCH  28  29
ATOM     29  C   UNL     1      -4.440  -2.211  -2.035  0.00  0.00    +0.200 C 
BRANCH  29   4
ATOM      4  O   UNL     1      -5.068  -2.720  -0.865  0.00  0.00    -0.380 OA
ATOM     30  C   UNL     1      -5.902  -3.830  -1.162  0.00  0.00    +0.194 C 
ENDBRANCH  29   4
ENDBRANCH  28  29
ENDBRANCH   3  28
ENDBRANCH  25   3
ENDBRANCH  22  23
BRANCH  19  11
ATOM      5  N   UNL     1       2.954   0.894  -1.108  0.00  0.00    -0.288 NA
ATOM     11  C   UNL     1       2.775   2.166  -0.380  0.00  0.00    +0.146 C 
ATOM     12  C   UNL     1       3.921   1.159  -2.173  0.00  0.00    +0.085 C 
ATOM     13  C   UNL     1       3.065   3.259  -1.426  0.00  0.00    +0.030 C 
ATOM     16  C   UNL     1       3.456   2.506  -2.689  0.00  0.00    +0.017 C 
BRANCH   5  10
ATOM      2  O   UNL     1       2.440  -5.043   0.410  0.00  0.00    -0.276 OA
ATOM      6  N   UNL     1       2.899  -2.820   0.908  0.00  0.00    -0.302 N 
ATOM     10  C   UNL     1       3.375  -0.208  -0.246  0.00  0.00    +0.060 C 
ATOM     14  C   UNL     1       3.530  -1.492  -1.071  0.00  0.00    +0.038 C 
ATOM     15  C   UNL     1       2.355  -0.414   0.881  0.00  0.00    +0.038 C 
ATOM     17  C   UNL     1       3.876  -2.679  -0.173  0.00  0.00    +0.109 C 
ATOM     18  C   UNL     1       2.725  -1.623   1.741  0.00  0.00    +0.109 C 
ATOM     20  C   UNL     1       2.250  -4.039   1.102  0.00  0.00    +0.212 C 
ATOM     21  C   UNL     1       1.256  -4.103   2.234  0.00  0.00    +0.109 C 
ENDBRANCH   5  10
ENDBRANCH  19  11
TORSDOF 7
