MODEL 1
REMARK VINA RESULT:      -7.5      0.000      0.000
REMARK  Name = 71692924
REMARK  9 active torsions:
REMARK  status: ('A' for Active; 'I' for Inactive)
REMARK    1  A    between atoms: N_5  and  C_14
REMARK    2  A    between atoms: N_7  and  C_30
REMARK    3  A    between atoms: N_7  and  C_32
REMARK    4  A    between atoms: N_7  and  C_33
REMARK    5  A    between atoms: C_9  and  C_14
REMARK    6  A    between atoms: C_12  and  C_17
REMARK    7  A    between atoms: C_17  and  C_19
REMARK    8  A    between atoms: C_32  and  C_34
REMARK    9  A    between atoms: C_34  and  C_35
REMARK                            x       y       z     vdW  Elec       q    Type
REMARK                         _______ _______ _______ _____ _____    ______ ____
ROOT
ATOM      2  O   UNL     1      -8.805 -11.049  11.707  0.00  0.00    -0.274 OA
ATOM      3  O   UNL     1      -3.712 -10.477  13.083  0.00  0.00    -0.488 OA
ATOM      4  N   UNL     1      -7.075 -10.388  10.317  0.00  0.00    -0.300 N 
ATOM      6  N   UNL     1      -6.404  -9.388  13.259  0.00  0.00    -0.304 NA
ATOM     12  C   UNL     1      -4.796 -11.834   9.216  0.00  0.00    +0.008 C 
ATOM     13  C   UNL     1      -4.657 -10.653  10.223  0.00  0.00    +0.032 C 
ATOM     15  C   UNL     1      -6.188 -12.487   9.391  0.00  0.00    +0.023 C 
ATOM     16  C   UNL     1      -5.826  -9.661  10.067  0.00  0.00    +0.115 C 
ATOM     18  C   UNL     1      -7.328 -11.465   9.356  0.00  0.00    +0.108 C 
ATOM     20  C   UNL     1      -3.329  -9.947  10.163  0.00  0.00    -0.023 C 
ATOM     21  C   UNL     1      -7.865 -10.282  11.461  0.00  0.00    +0.229 C 
ATOM     22  C   UNL     1      -2.414  -9.792  11.134  0.00  0.00    +0.010 C 
ATOM     23  C   UNL     1      -7.588  -9.153  12.437  0.00  0.00    +0.178 C 
ATOM     24  C   UNL     1      -2.408 -10.203  12.584  0.00  0.00    +0.256 C 
ATOM     25  C   UNL     1      -6.389 -10.663  13.974  0.00  0.00    +0.120 C 
ATOM     26  C   UNL     1      -5.193 -10.775  14.903  0.00  0.00    +0.010 A 
ATOM     27  C   UNL     1      -3.863 -10.692  14.431  0.00  0.00    +0.125 A 
ATOM     28  C   UNL     1      -5.417 -10.995  16.272  0.00  0.00    +0.031 A 
ATOM     29  C   UNL     1      -2.798 -10.833  15.329  0.00  0.00    +0.048 A 
ATOM     30  C   UNL     1      -4.349 -11.127  17.157  0.00  0.00    +0.030 A 
ATOM     31  C   UNL     1      -3.043 -11.048  16.685  0.00  0.00    +0.027 A 
ATOM     41  H   UNL     1      -6.319  -8.622  13.928  0.00  0.00    +0.123 HD
ENDROOT
BRANCH  30   7
ATOM      7  N   UNL     1      -4.592 -11.346  18.529  0.00  0.00    -0.333 N 
ATOM     33  C   UNL     1      -3.739 -12.234  19.294  0.00  0.00    +0.129 C 
BRANCH   7  32
ATOM     32  C   UNL     1      -5.695 -10.681  19.194  0.00  0.00    +0.111 C 
BRANCH  32  34
ATOM     34  C   UNL     1      -6.870 -11.638  19.395  0.00  0.00    +0.074 C 
BRANCH  34  35
ATOM      8  N   UNL     1      -9.143 -11.186  20.145  0.00  0.00    -0.260 NA
ATOM     35  C   UNL     1      -8.212 -10.980  19.187  0.00  0.00    +0.043 A 
ATOM     36  C   UNL     1      -8.423 -10.212  18.053  0.00  0.00    +0.023 A 
ATOM     37  C   UNL     1      -9.670  -9.619  17.891  0.00  0.00    +0.003 A 
ATOM     38  C   UNL     1     -10.344 -10.594  19.954  0.00  0.00    +0.111 A 
ATOM     39  C   UNL     1     -10.654  -9.807  18.855  0.00  0.00    +0.020 A 
ENDBRANCH  34  35
ENDBRANCH  32  34
ENDBRANCH   7  32
ENDBRANCH  30   7
BRANCH  12  17
ATOM     17  C   UNL     1      -4.559 -11.456   7.749  0.00  0.00    +0.100 C 
BRANCH  17  19
ATOM      1  O   UNL     1      -3.745 -13.708   7.410  0.00  0.00    -0.276 OA
ATOM      5  N   UNL     1      -4.131 -12.340   5.570  0.00  0.00    -0.315 N 
ATOM     19  C   UNL     1      -4.100 -12.637   6.926  0.00  0.00    +0.213 C 
ATOM     40  H   UNL     1      -4.422 -11.414   5.272  0.00  0.00    +0.149 HD
BRANCH   5  14
ATOM     14  C   UNL     1      -3.742 -13.283   4.547  0.00  0.00    +0.107 C 
BRANCH  14   9
ATOM      9  C   UNL     1      -2.834 -12.649   3.548  0.00  0.00    +0.006 C 
ATOM     10  C   UNL     1      -2.977 -12.969   2.086  0.00  0.00    +0.005 C 
ATOM     11  C   UNL     1      -1.784 -13.470   2.851  0.00  0.00    +0.005 C 
ENDBRANCH  14   9
ENDBRANCH   5  14
ENDBRANCH  17  19
ENDBRANCH  12  17
TORSDOF 8
ENDMDL
MODEL 2
REMARK VINA RESULT:      -7.2     25.718     29.640
REMARK  Name = 71692924
REMARK  9 active torsions:
REMARK  status: ('A' for Active; 'I' for Inactive)
REMARK    1  A    between atoms: N_5  and  C_14
REMARK    2  A    between atoms: N_7  and  C_30
REMARK    3  A    between atoms: N_7  and  C_32
REMARK    4  A    between atoms: N_7  and  C_33
REMARK    5  A    between atoms: C_9  and  C_14
REMARK    6  A    between atoms: C_12  and  C_17
REMARK    7  A    between atoms: C_17  and  C_19
REMARK    8  A    between atoms: C_32  and  C_34
REMARK    9  A    between atoms: C_34  and  C_35
REMARK                            x       y       z     vdW  Elec       q    Type
REMARK                         _______ _______ _______ _____ _____    ______ ____
ROOT
ATOM      2  O   UNL     1      11.988   5.695  -0.024  0.00  0.00    -0.274 OA
ATOM      3  O   UNL     1      14.156   7.330   4.535  0.00  0.00    -0.488 OA
ATOM      4  N   UNL     1      11.090   5.429   2.093  0.00  0.00    -0.300 N 
ATOM      6  N   UNL     1      14.257   5.399   2.361  0.00  0.00    -0.304 NA
ATOM     12  C   UNL     1       9.952   7.336   3.982  0.00  0.00    +0.008 C 
ATOM     13  C   UNL     1      11.258   6.532   4.257  0.00  0.00    +0.032 C 
ATOM     15  C   UNL     1       9.744   7.456   2.454  0.00  0.00    +0.023 C 
ATOM     16  C   UNL     1      11.227   5.173   3.531  0.00  0.00    +0.115 C 
ATOM     18  C   UNL     1       9.841   6.107   1.736  0.00  0.00    +0.108 C 
ATOM     20  C   UNL     1      11.582   6.363   5.718  0.00  0.00    -0.023 C 
ATOM     21  C   UNL     1      12.098   5.291   1.140  0.00  0.00    +0.229 C 
ATOM     22  C   UNL     1      12.674   6.766   6.389  0.00  0.00    +0.010 C 
ATOM     23  C   UNL     1      13.379   4.578   1.532  0.00  0.00    +0.178 C 
ATOM     24  C   UNL     1      13.938   7.451   5.936  0.00  0.00    +0.256 C 
ATOM     25  C   UNL     1      14.582   6.712   1.808  0.00  0.00    +0.120 C 
ATOM     26  C   UNL     1      15.597   7.450   2.664  0.00  0.00    +0.010 A 
ATOM     27  C   UNL     1      15.355   7.758   4.022  0.00  0.00    +0.125 A 
ATOM     28  C   UNL     1      16.805   7.860   2.077  0.00  0.00    +0.031 A 
ATOM     29  C   UNL     1      16.315   8.467   4.754  0.00  0.00    +0.048 A 
ATOM     30  C   UNL     1      17.756   8.560   2.818  0.00  0.00    +0.030 A 
ATOM     31  C   UNL     1      17.510   8.863   4.153  0.00  0.00    +0.027 A 
ATOM     41  H   UNL     1      15.119   4.879   2.531  0.00  0.00    +0.123 HD
ENDROOT
BRANCH  30   7
ATOM      7  N   UNL     1      18.965   8.963   2.214  0.00  0.00    -0.333 N 
ATOM     33  C   UNL     1      19.066  10.255   1.565  0.00  0.00    +0.129 C 
BRANCH   7  32
ATOM     32  C   UNL     1      20.125   8.093   2.239  0.00  0.00    +0.111 C 
BRANCH  32  34
ATOM     34  C   UNL     1      21.277   8.743   3.005  0.00  0.00    +0.074 C 
BRANCH  34  35
ATOM      8  N   UNL     1      20.971  10.012   5.061  0.00  0.00    -0.260 NA
ATOM     35  C   UNL     1      21.046   8.787   4.497  0.00  0.00    +0.043 A 
ATOM     36  C   UNL     1      20.922   7.600   5.200  0.00  0.00    +0.023 A 
ATOM     37  C   UNL     1      20.708   7.675   6.571  0.00  0.00    +0.003 A 
ATOM     38  C   UNL     1      20.763  10.047   6.397  0.00  0.00    +0.111 A 
ATOM     39  C   UNL     1      20.625   8.918   7.190  0.00  0.00    +0.020 A 
ENDBRANCH  34  35
ENDBRANCH  32  34
ENDBRANCH   7  32
ENDBRANCH  30   7
BRANCH  12  17
ATOM     17  C   UNL     1       8.697   6.765   4.654  0.00  0.00    +0.100 C 
BRANCH  17  19
ATOM      1  O   UNL     1       8.036   8.391   6.318  0.00  0.00    -0.276 OA
ATOM      5  N   UNL     1       8.967   6.371   6.996  0.00  0.00    -0.315 N 
ATOM     19  C   UNL     1       8.516   7.291   6.059  0.00  0.00    +0.213 C 
ATOM     40  H   UNL     1       9.367   5.494   6.677  0.00  0.00    +0.149 HD
BRANCH   5  14
ATOM     14  C   UNL     1       8.919   6.608   8.420  0.00  0.00    +0.107 C 
BRANCH  14   9
ATOM      9  C   UNL     1       9.705   5.581   9.163  0.00  0.00    +0.006 C 
ATOM     10  C   UNL     1       9.590   4.128   8.793  0.00  0.00    +0.005 C 
ATOM     11  C   UNL     1       9.011   4.621  10.090  0.00  0.00    +0.005 C 
ENDBRANCH  14   9
ENDBRANCH   5  14
ENDBRANCH  17  19
ENDBRANCH  12  17
TORSDOF 8
ENDMDL
MODEL 3
REMARK VINA RESULT:      -7.1      5.743     13.455
REMARK  Name = 71692924
REMARK  9 active torsions:
REMARK  status: ('A' for Active; 'I' for Inactive)
REMARK    1  A    between atoms: N_5  and  C_14
REMARK    2  A    between atoms: N_7  and  C_30
REMARK    3  A    between atoms: N_7  and  C_32
REMARK    4  A    between atoms: N_7  and  C_33
REMARK    5  A    between atoms: C_9  and  C_14
REMARK    6  A    between atoms: C_12  and  C_17
REMARK    7  A    between atoms: C_17  and  C_19
REMARK    8  A    between atoms: C_32  and  C_34
REMARK    9  A    between atoms: C_34  and  C_35
REMARK                            x       y       z     vdW  Elec       q    Type
REMARK                         _______ _______ _______ _____ _____    ______ ____
ROOT
ATOM      2  O   UNL     1      -7.808 -10.682   2.026  0.00  0.00    -0.274 OA
ATOM      3  O   UNL     1      -4.165 -12.815   5.242  0.00  0.00    -0.488 OA
ATOM      4  N   UNL     1      -7.963 -10.889   4.327  0.00  0.00    -0.300 N 
ATOM      6  N   UNL     1      -6.217 -13.313   3.240  0.00  0.00    -0.304 NA
ATOM     12  C   UNL     1      -6.560  -9.553   6.505  0.00  0.00    +0.008 C 
ATOM     13  C   UNL     1      -6.434 -11.078   6.212  0.00  0.00    +0.032 C 
ATOM     15  C   UNL     1      -6.965  -8.819   5.205  0.00  0.00    +0.023 C 
ATOM     16  C   UNL     1      -7.728 -11.621   5.576  0.00  0.00    +0.115 C 
ATOM     18  C   UNL     1      -8.181  -9.453   4.523  0.00  0.00    +0.108 C 
ATOM     20  C   UNL     1      -6.023 -11.902   7.403  0.00  0.00    -0.023 C 
ATOM     21  C   UNL     1      -7.776 -11.391   3.040  0.00  0.00    +0.229 C 
ATOM     22  C   UNL     1      -4.941 -12.685   7.551  0.00  0.00    +0.010 C 
ATOM     23  C   UNL     1      -7.561 -12.883   2.863  0.00  0.00    +0.178 C 
ATOM     24  C   UNL     1      -3.827 -13.050   6.604  0.00  0.00    +0.256 C 
ATOM     25  C   UNL     1      -5.129 -12.585   2.593  0.00  0.00    +0.120 C 
ATOM     26  C   UNL     1      -3.771 -13.174   2.938  0.00  0.00    +0.010 A 
ATOM     27  C   UNL     1      -3.307 -13.266   4.269  0.00  0.00    +0.125 A 
ATOM     28  C   UNL     1      -2.942 -13.618   1.895  0.00  0.00    +0.031 A 
ATOM     29  C   UNL     1      -2.035 -13.791   4.526  0.00  0.00    +0.048 A 
ATOM     30  C   UNL     1      -1.680 -14.144   2.163  0.00  0.00    +0.030 A 
ATOM     31  C   UNL     1      -1.228 -14.229   3.475  0.00  0.00    +0.027 A 
ATOM     41  H   UNL     1      -6.129 -14.309   3.036  0.00  0.00    +0.123 HD
ENDROOT
BRANCH  30   7
ATOM      7  N   UNL     1      -0.860 -14.587   1.104  0.00  0.00    -0.333 N 
ATOM     33  C   UNL     1      -1.386 -14.672  -0.245  0.00  0.00    +0.129 C 
BRANCH   7  32
ATOM     32  C   UNL     1       0.520 -14.955   1.348  0.00  0.00    +0.111 C 
BRANCH  32  34
ATOM     34  C   UNL     1       1.469 -13.840   0.909  0.00  0.00    +0.074 C 
BRANCH  34  35
ATOM      8  N   UNL     1       3.318 -15.318   1.484  0.00  0.00    -0.260 NA
ATOM     35  C   UNL     1       2.883 -14.320   0.683  0.00  0.00    +0.043 A 
ATOM     36  C   UNL     1       3.649 -13.733  -0.311  0.00  0.00    +0.023 A 
ATOM     37  C   UNL     1       4.945 -14.199  -0.494  0.00  0.00    +0.003 A 
ATOM     38  C   UNL     1       4.585 -15.745   1.278  0.00  0.00    +0.111 A 
ATOM     39  C   UNL     1       5.431 -15.225   0.311  0.00  0.00    +0.020 A 
ENDBRANCH  34  35
ENDBRANCH  32  34
ENDBRANCH   7  32
ENDBRANCH  30   7
BRANCH  12  17
ATOM     17  C   UNL     1      -7.522  -9.198   7.645  0.00  0.00    +0.100 C 
BRANCH  17  19
ATOM      1  O   UNL     1      -7.335  -9.039  10.052  0.00  0.00    -0.276 OA
ATOM      5  N   UNL     1      -5.457  -8.675   8.730  0.00  0.00    -0.315 N 
ATOM     19  C   UNL     1      -6.795  -8.971   8.951  0.00  0.00    +0.213 C 
ATOM     40  H   UNL     1      -5.111  -8.623   7.777  0.00  0.00    +0.149 HD
BRANCH   5  14
ATOM     14  C   UNL     1      -4.521  -8.409   9.799  0.00  0.00    +0.107 C 
BRANCH  14   9
ATOM      9  C   UNL     1      -3.439  -9.434   9.832  0.00  0.00    +0.006 C 
ATOM     10  C   UNL     1      -3.337 -10.389  10.989  0.00  0.00    +0.005 C 
ATOM     11  C   UNL     1      -2.307  -9.308  10.815  0.00  0.00    +0.005 C 
ENDBRANCH  14   9
ENDBRANCH   5  14
ENDBRANCH  17  19
ENDBRANCH  12  17
TORSDOF 8
ENDMDL
MODEL 4
REMARK VINA RESULT:      -6.9     23.267     26.277
REMARK  Name = 71692924
REMARK  9 active torsions:
REMARK  status: ('A' for Active; 'I' for Inactive)
REMARK    1  A    between atoms: N_5  and  C_14
REMARK    2  A    between atoms: N_7  and  C_30
REMARK    3  A    between atoms: N_7  and  C_32
REMARK    4  A    between atoms: N_7  and  C_33
REMARK    5  A    between atoms: C_9  and  C_14
REMARK    6  A    between atoms: C_12  and  C_17
REMARK    7  A    between atoms: C_17  and  C_19
REMARK    8  A    between atoms: C_32  and  C_34
REMARK    9  A    between atoms: C_34  and  C_35
REMARK                            x       y       z     vdW  Elec       q    Type
REMARK                         _______ _______ _______ _____ _____    ______ ____
ROOT
ATOM      2  O   UNL     1       6.150   8.715  -1.528  0.00  0.00    -0.274 OA
ATOM      3  O   UNL     1       9.129   4.874  -3.656  0.00  0.00    -0.488 OA
ATOM      4  N   UNL     1       6.130   8.032  -3.739  0.00  0.00    -0.300 N 
ATOM      6  N   UNL     1       9.065   7.586  -2.603  0.00  0.00    -0.304 NA
ATOM     12  C   UNL     1       5.179   5.590  -5.017  0.00  0.00    +0.008 C 
ATOM     13  C   UNL     1       6.677   6.017  -4.993  0.00  0.00    +0.032 C 
ATOM     15  C   UNL     1       4.447   6.238  -3.818  0.00  0.00    +0.023 C 
ATOM     16  C   UNL     1       6.807   7.552  -4.949  0.00  0.00    +0.115 C 
ATOM     18  C   UNL     1       4.692   7.747  -3.723  0.00  0.00    +0.108 C 
ATOM     20  C   UNL     1       7.503   5.430  -6.106  0.00  0.00    -0.023 C 
ATOM     21  C   UNL     1       6.756   8.499  -2.585  0.00  0.00    +0.229 C 
ATOM     22  C   UNL     1       8.586   4.640  -6.023  0.00  0.00    +0.010 C 
ATOM     23  C   UNL     1       8.244   8.793  -2.631  0.00  0.00    +0.178 C 
ATOM     24  C   UNL     1       9.365   4.122  -4.841  0.00  0.00    +0.256 C 
ATOM     25  C   UNL     1       8.784   6.670  -1.499  0.00  0.00    +0.120 C 
ATOM     26  C   UNL     1       9.762   5.508  -1.467  0.00  0.00    +0.010 A 
ATOM     27  C   UNL     1       9.906   4.616  -2.554  0.00  0.00    +0.125 A 
ATOM     28  C   UNL     1      10.527   5.299  -0.308  0.00  0.00    +0.031 A 
ATOM     29  C   UNL     1      10.802   3.544  -2.457  0.00  0.00    +0.048 A 
ATOM     30  C   UNL     1      11.420   4.232  -0.226  0.00  0.00    +0.030 A 
ATOM     31  C   UNL     1      11.555   3.357  -1.298  0.00  0.00    +0.027 A 
ATOM     41  H   UNL     1      10.046   7.864  -2.573  0.00  0.00    +0.123 HD
ENDROOT
BRANCH  30   7
ATOM      7  N   UNL     1      12.182   4.039   0.945  0.00  0.00    -0.333 N 
ATOM     33  C   UNL     1      13.620   3.867   0.865  0.00  0.00    +0.129 C 
BRANCH   7  32
ATOM     32  C   UNL     1      11.540   4.017   2.244  0.00  0.00    +0.111 C 
BRANCH  32  34
ATOM     34  C   UNL     1      11.732   5.348   2.971  0.00  0.00    +0.074 C 
BRANCH  34  35
ATOM      8  N   UNL     1      10.208   5.156   4.861  0.00  0.00    -0.260 NA
ATOM     35  C   UNL     1      10.497   5.803   3.710  0.00  0.00    +0.043 A 
ATOM     36  C   UNL     1       9.737   6.837   3.189  0.00  0.00    +0.023 A 
ATOM     37  C   UNL     1       8.606   7.233   3.895  0.00  0.00    +0.003 A 
ATOM     38  C   UNL     1       9.100   5.568   5.520  0.00  0.00    +0.111 A 
ATOM     39  C   UNL     1       8.275   6.592   5.084  0.00  0.00    +0.020 A 
ENDBRANCH  34  35
ENDBRANCH  32  34
ENDBRANCH   7  32
ENDBRANCH  30   7
BRANCH  12  17
ATOM     17  C   UNL     1       4.446   5.903  -6.328  0.00  0.00    +0.100 C 
BRANCH  17  19
ATOM      1  O   UNL     1       2.074   5.522  -6.604  0.00  0.00    -0.276 OA
ATOM      5  N   UNL     1       3.522   3.706  -6.518  0.00  0.00    -0.315 N 
ATOM     19  C   UNL     1       3.205   5.057  -6.500  0.00  0.00    +0.213 C 
ATOM     40  H   UNL     1       4.490   3.423  -6.404  0.00  0.00    +0.149 HD
BRANCH   5  14
ATOM     14  C   UNL     1       2.531   2.665  -6.668  0.00  0.00    +0.107 C 
BRANCH  14   9
ATOM      9  C   UNL     1       2.128   2.112  -5.343  0.00  0.00    +0.006 C 
ATOM     10  C   UNL     1       1.593   0.711  -5.239  0.00  0.00    +0.005 C 
ATOM     11  C   UNL     1       0.676   1.883  -5.028  0.00  0.00    +0.005 C 
ENDBRANCH  14   9
ENDBRANCH   5  14
ENDBRANCH  17  19
ENDBRANCH  12  17
TORSDOF 8
ENDMDL
MODEL 5
REMARK VINA RESULT:      -6.9     23.443     27.627
REMARK  Name = 71692924
REMARK  9 active torsions:
REMARK  status: ('A' for Active; 'I' for Inactive)
REMARK    1  A    between atoms: N_5  and  C_14
REMARK    2  A    between atoms: N_7  and  C_30
REMARK    3  A    between atoms: N_7  and  C_32
REMARK    4  A    between atoms: N_7  and  C_33
REMARK    5  A    between atoms: C_9  and  C_14
REMARK    6  A    between atoms: C_12  and  C_17
REMARK    7  A    between atoms: C_17  and  C_19
REMARK    8  A    between atoms: C_32  and  C_34
REMARK    9  A    between atoms: C_34  and  C_35
REMARK                            x       y       z     vdW  Elec       q    Type
REMARK                         _______ _______ _______ _____ _____    ______ ____
ROOT
ATOM      2  O   UNL     1      17.593  -2.420  33.002  0.00  0.00    -0.274 OA
ATOM      3  O   UNL     1      14.738  -5.830  30.108  0.00  0.00    -0.488 OA
ATOM      4  N   UNL     1      18.305  -3.537  31.103  0.00  0.00    -0.300 N 
ATOM      6  N   UNL     1      16.188  -5.384  32.591  0.00  0.00    -0.304 NA
ATOM     12  C   UNL     1      17.580  -3.262  28.293  0.00  0.00    +0.008 C 
ATOM     13  C   UNL     1      17.286  -4.541  29.133  0.00  0.00    +0.032 C 
ATOM     15  C   UNL     1      17.695  -2.047  29.243  0.00  0.00    +0.023 C 
ATOM     16  C   UNL     1      18.342  -4.722  30.240  0.00  0.00    +0.115 C 
ATOM     18  C   UNL     1      18.658  -2.296  30.408  0.00  0.00    +0.108 C 
ATOM     20  C   UNL     1      17.132  -5.794  28.313  0.00  0.00    -0.023 C 
ATOM     21  C   UNL     1      17.770  -3.481  32.389  0.00  0.00    +0.229 C 
ATOM     22  C   UNL     1      16.073  -6.616  28.224  0.00  0.00    +0.010 C 
ATOM     23  C   UNL     1      17.420  -4.780  33.091  0.00  0.00    +0.178 C 
ATOM     24  C   UNL     1      14.736  -6.613  28.920  0.00  0.00    +0.256 C 
ATOM     25  C   UNL     1      15.022  -4.503  32.589  0.00  0.00    +0.120 C 
ATOM     26  C   UNL     1      13.758  -5.239  32.178  0.00  0.00    +0.010 A 
ATOM     27  C   UNL     1      13.637  -5.884  30.927  0.00  0.00    +0.125 A 
ATOM     28  C   UNL     1      12.667  -5.257  33.063  0.00  0.00    +0.031 A 
ATOM     29  C   UNL     1      12.437  -6.522  30.589  0.00  0.00    +0.048 A 
ATOM     30  C   UNL     1      11.481  -5.901  32.718  0.00  0.00    +0.030 A 
ATOM     31  C   UNL     1      11.366  -6.530  31.483  0.00  0.00    +0.027 A 
ATOM     41  H   UNL     1      15.986  -6.214  33.149  0.00  0.00    +0.123 HD
ENDROOT
BRANCH  30   7
ATOM      7  N   UNL     1      10.396  -5.910  33.619  0.00  0.00    -0.333 N 
ATOM     33  C   UNL     1       9.726  -4.674  33.975  0.00  0.00    +0.129 C 
BRANCH   7  32
ATOM     32  C   UNL     1       9.930  -7.156  34.195  0.00  0.00    +0.111 C 
BRANCH  32  34
ATOM     34  C   UNL     1       8.402  -7.210  34.218  0.00  0.00    +0.074 C 
BRANCH  34  35
ATOM      8  N   UNL     1       8.534  -8.866  32.437  0.00  0.00    -0.260 NA
ATOM     35  C   UNL     1       7.815  -7.865  32.991  0.00  0.00    +0.043 A 
ATOM     36  C   UNL     1       6.597  -7.422  32.502  0.00  0.00    +0.023 A 
ATOM     37  C   UNL     1       6.083  -8.047  31.372  0.00  0.00    +0.003 A 
ATOM     38  C   UNL     1       8.003  -9.451  31.338  0.00  0.00    +0.111 A 
ATOM     39  C   UNL     1       6.793  -9.082  30.773  0.00  0.00    +0.020 A 
ENDBRANCH  34  35
ENDBRANCH  32  34
ENDBRANCH   7  32
ENDBRANCH  30   7
BRANCH  12  17
ATOM     17  C   UNL     1      18.818  -3.360  27.392  0.00  0.00    +0.100 C 
BRANCH  17  19
ATOM      1  O   UNL     1      19.803  -1.617  26.035  0.00  0.00    -0.276 OA
ATOM      5  N   UNL     1      17.579  -2.206  25.705  0.00  0.00    -0.315 N 
ATOM     19  C   UNL     1      18.822  -2.299  26.316  0.00  0.00    +0.213 C 
ATOM     40  H   UNL     1      16.823  -2.804  26.025  0.00  0.00    +0.149 HD
BRANCH   5  14
ATOM     14  C   UNL     1      17.291  -1.272  24.640  0.00  0.00    +0.107 C 
BRANCH  14   9
ATOM      9  C   UNL     1      16.746  -1.974  23.443  0.00  0.00    +0.006 C 
ATOM     10  C   UNL     1      17.023  -3.437  23.232  0.00  0.00    +0.005 C 
ATOM     11  C   UNL     1      17.668  -2.414  22.339  0.00  0.00    +0.005 C 
ENDBRANCH  14   9
ENDBRANCH   5  14
ENDBRANCH  17  19
ENDBRANCH  12  17
TORSDOF 8
ENDMDL
MODEL 6
REMARK VINA RESULT:      -6.9     22.413     27.074
REMARK  Name = 71692924
REMARK  9 active torsions:
REMARK  status: ('A' for Active; 'I' for Inactive)
REMARK    1  A    between atoms: N_5  and  C_14
REMARK    2  A    between atoms: N_7  and  C_30
REMARK    3  A    between atoms: N_7  and  C_32
REMARK    4  A    between atoms: N_7  and  C_33
REMARK    5  A    between atoms: C_9  and  C_14
REMARK    6  A    between atoms: C_12  and  C_17
REMARK    7  A    between atoms: C_17  and  C_19
REMARK    8  A    between atoms: C_32  and  C_34
REMARK    9  A    between atoms: C_34  and  C_35
REMARK                            x       y       z     vdW  Elec       q    Type
REMARK                         _______ _______ _______ _____ _____    ______ ____
ROOT
ATOM      2  O   UNL     1     -10.033  -7.297  38.894  0.00  0.00    -0.274 OA
ATOM      3  O   UNL     1      -6.281 -11.031  38.517  0.00  0.00    -0.488 OA
ATOM      4  N   UNL     1      -8.124  -7.458  40.194  0.00  0.00    -0.300 N 
ATOM      6  N   UNL     1      -8.993 -10.400  39.361  0.00  0.00    -0.304 NA
ATOM     12  C   UNL     1      -5.305  -7.044  39.578  0.00  0.00    +0.008 C 
ATOM     13  C   UNL     1      -5.898  -8.424  39.990  0.00  0.00    +0.032 C 
ATOM     15  C   UNL     1      -6.425  -6.174  38.962  0.00  0.00    +0.023 C 
ATOM     16  C   UNL     1      -7.116  -8.241  40.916  0.00  0.00    +0.115 C 
ATOM     18  C   UNL     1      -7.675  -6.107  39.845  0.00  0.00    +0.108 C 
ATOM     20  C   UNL     1      -4.894  -9.373  40.588  0.00  0.00    -0.023 C 
ATOM     21  C   UNL     1      -9.308  -7.954  39.652  0.00  0.00    +0.229 C 
ATOM     22  C   UNL     1      -4.528 -10.592  40.157  0.00  0.00    +0.010 C 
ATOM     23  C   UNL     1      -9.755  -9.353  40.036  0.00  0.00    +0.178 C 
ATOM     24  C   UNL     1      -5.007 -11.436  39.003  0.00  0.00    +0.256 C 
ATOM     25  C   UNL     1      -8.940 -10.289  37.906  0.00  0.00    +0.120 C 
ATOM     26  C   UNL     1      -8.241 -11.480  37.273  0.00  0.00    +0.010 A 
ATOM     27  C   UNL     1      -6.906 -11.822  37.586  0.00  0.00    +0.125 A 
ATOM     28  C   UNL     1      -8.938 -12.249  36.327  0.00  0.00    +0.031 A 
ATOM     29  C   UNL     1      -6.303 -12.913  36.949  0.00  0.00    +0.048 A 
ATOM     30  C   UNL     1      -8.328 -13.337  35.704  0.00  0.00    +0.030 A 
ATOM     31  C   UNL     1      -7.014 -13.666  36.014  0.00  0.00    +0.027 A 
ATOM     41  H   UNL     1      -9.389 -11.304  39.619  0.00  0.00    +0.123 HD
ENDROOT
BRANCH  30   7
ATOM      7  N   UNL     1      -9.043 -14.100  34.758  0.00  0.00    -0.333 N 
ATOM     33  C   UNL     1      -8.448 -14.427  33.477  0.00  0.00    +0.129 C 
BRANCH   7  32
ATOM     32  C   UNL     1     -10.381 -14.573  35.055  0.00  0.00    +0.111 C 
BRANCH  32  34
ATOM     34  C   UNL     1     -11.188 -14.771  33.773  0.00  0.00    +0.074 C 
BRANCH  34  35
ATOM      8  N   UNL     1     -13.188 -14.011  32.608  0.00  0.00    -0.260 NA
ATOM     35  C   UNL     1     -12.356 -13.821  33.656  0.00  0.00    +0.043 A 
ATOM     36  C   UNL     1     -12.518 -12.824  34.604  0.00  0.00    +0.023 A 
ATOM     37  C   UNL     1     -13.603 -11.967  34.468  0.00  0.00    +0.003 A 
ATOM     38  C   UNL     1     -14.233 -13.158  32.508  0.00  0.00    +0.111 A 
ATOM     39  C   UNL     1     -14.483 -12.130  33.403  0.00  0.00    +0.020 A 
ENDBRANCH  34  35
ENDBRANCH  32  34
ENDBRANCH   7  32
ENDBRANCH  30   7
BRANCH  12  17
ATOM     17  C   UNL     1      -4.598  -6.289  40.711  0.00  0.00    +0.100 C 
BRANCH  17  19
ATOM      1  O   UNL     1      -2.840  -5.742  39.142  0.00  0.00    -0.276 OA
ATOM      5  N   UNL     1      -2.452  -5.512  41.422  0.00  0.00    -0.315 N 
ATOM     19  C   UNL     1      -3.218  -5.823  40.307  0.00  0.00    +0.213 C 
ATOM     40  H   UNL     1      -2.852  -5.633  42.348  0.00  0.00    +0.149 HD
BRANCH   5  14
ATOM     14  C   UNL     1      -1.088  -5.042  41.337  0.00  0.00    +0.107 C 
BRANCH  14   9
ATOM      9  C   UNL     1      -0.774  -4.100  42.449  0.00  0.00    +0.006 C 
ATOM     10  C   UNL     1      -1.623  -2.878  42.668  0.00  0.00    +0.005 C 
ATOM     11  C   UNL     1      -0.219  -2.734  42.150  0.00  0.00    +0.005 C 
ENDBRANCH  14   9
ENDBRANCH   5  14
ENDBRANCH  17  19
ENDBRANCH  12  17
TORSDOF 8
ENDMDL
MODEL 7
REMARK VINA RESULT:      -6.8      2.753     11.291
REMARK  Name = 71692924
REMARK  9 active torsions:
REMARK  status: ('A' for Active; 'I' for Inactive)
REMARK    1  A    between atoms: N_5  and  C_14
REMARK    2  A    between atoms: N_7  and  C_30
REMARK    3  A    between atoms: N_7  and  C_32
REMARK    4  A    between atoms: N_7  and  C_33
REMARK    5  A    between atoms: C_9  and  C_14
REMARK    6  A    between atoms: C_12  and  C_17
REMARK    7  A    between atoms: C_17  and  C_19
REMARK    8  A    between atoms: C_32  and  C_34
REMARK    9  A    between atoms: C_34  and  C_35
REMARK                            x       y       z     vdW  Elec       q    Type
REMARK                         _______ _______ _______ _____ _____    ______ ____
ROOT
ATOM      2  O   UNL     1      -5.264 -15.654  11.816  0.00  0.00    -0.274 OA
ATOM      3  O   UNL     1      -4.020 -10.837   9.969  0.00  0.00    -0.488 OA
ATOM      4  N   UNL     1      -3.673 -14.219  12.692  0.00  0.00    -0.300 N 
ATOM      6  N   UNL     1      -3.830 -13.711   9.558  0.00  0.00    -0.304 NA
ATOM     12  C   UNL     1      -3.904 -11.688  14.120  0.00  0.00    +0.008 C 
ATOM     13  C   UNL     1      -3.246 -11.822  12.714  0.00  0.00    +0.032 C 
ATOM     15  C   UNL     1      -4.904 -12.850  14.324  0.00  0.00    +0.023 C 
ATOM     16  C   UNL     1      -2.614 -13.216  12.537  0.00  0.00    +0.115 C 
ATOM     18  C   UNL     1      -4.287 -14.219  14.022  0.00  0.00    +0.108 C 
ATOM     20  C   UNL     1      -2.262 -10.730  12.388  0.00  0.00    -0.023 C 
ATOM     21  C   UNL     1      -4.252 -14.960  11.662  0.00  0.00    +0.229 C 
ATOM     22  C   UNL     1      -2.290  -9.848  11.375  0.00  0.00    +0.010 C 
ATOM     23  C   UNL     1      -3.591 -14.948  10.296  0.00  0.00    +0.178 C 
ATOM     24  C   UNL     1      -3.242  -9.673  10.220  0.00  0.00    +0.256 C 
ATOM     25  C   UNL     1      -5.235 -13.332   9.422  0.00  0.00    +0.120 C 
ATOM     26  C   UNL     1      -5.407 -12.110   8.536  0.00  0.00    +0.010 A 
ATOM     27  C   UNL     1      -4.799 -10.870   8.838  0.00  0.00    +0.125 A 
ATOM     28  C   UNL     1      -6.217 -12.211   7.394  0.00  0.00    +0.031 A 
ATOM     29  C   UNL     1      -5.017  -9.769   8.001  0.00  0.00    +0.048 A 
ATOM     30  C   UNL     1      -6.421 -11.109   6.565  0.00  0.00    +0.030 A 
ATOM     31  C   UNL     1      -5.824  -9.892   6.870  0.00  0.00    +0.027 A 
ATOM     41  H   UNL     1      -3.412 -13.803   8.632  0.00  0.00    +0.123 HD
ENDROOT
BRANCH  30   7
ATOM      7  N   UNL     1      -7.237 -11.229   5.421  0.00  0.00    -0.333 N 
ATOM     33  C   UNL     1      -8.673 -11.381   5.555  0.00  0.00    +0.129 C 
BRANCH   7  32
ATOM     32  C   UNL     1      -6.652 -11.194   4.094  0.00  0.00    +0.111 C 
BRANCH  32  34
ATOM     34  C   UNL     1      -6.313 -12.603   3.609  0.00  0.00    +0.074 C 
BRANCH  34  35
ATOM      8  N   UNL     1      -4.434 -12.780   2.070  0.00  0.00    -0.260 NA
ATOM     35  C   UNL     1      -4.838 -12.805   3.360  0.00  0.00    +0.043 A 
ATOM     36  C   UNL     1      -3.988 -12.999   4.436  0.00  0.00    +0.023 A 
ATOM     37  C   UNL     1      -2.635 -13.180   4.172  0.00  0.00    +0.003 A 
ATOM     38  C   UNL     1      -3.111 -12.961   1.852  0.00  0.00    +0.111 A 
ATOM     39  C   UNL     1      -2.179 -13.161   2.858  0.00  0.00    +0.020 A 
ENDBRANCH  34  35
ENDBRANCH  32  34
ENDBRANCH   7  32
ENDBRANCH  30   7
BRANCH  12  17
ATOM     17  C   UNL     1      -2.911 -11.620  15.287  0.00  0.00    +0.100 C 
BRANCH  17  19
ATOM      1  O   UNL     1      -3.904  -9.884  16.648  0.00  0.00    -0.276 OA
ATOM      5  N   UNL     1      -3.649 -12.022  17.525  0.00  0.00    -0.315 N 
ATOM     19  C   UNL     1      -3.542 -11.052  16.537  0.00  0.00    +0.213 C 
ATOM     40  H   UNL     1      -3.301 -12.958  17.340  0.00  0.00    +0.149 HD
BRANCH   5  14
ATOM     14  C   UNL     1      -4.214 -11.761  18.829  0.00  0.00    +0.107 C 
BRANCH  14   9
ATOM      9  C   UNL     1      -5.668 -11.448  18.732  0.00  0.00    +0.006 C 
ATOM     10  C   UNL     1      -6.278 -10.402  19.624  0.00  0.00    +0.005 C 
ATOM     11  C   UNL     1      -6.605 -11.854  19.836  0.00  0.00    +0.005 C 
ENDBRANCH  14   9
ENDBRANCH   5  14
ENDBRANCH  17  19
ENDBRANCH  12  17
TORSDOF 8
ENDMDL
MODEL 8
REMARK VINA RESULT:      -6.8      3.157     11.173
REMARK  Name = 71692924
REMARK  9 active torsions:
REMARK  status: ('A' for Active; 'I' for Inactive)
REMARK    1  A    between atoms: N_5  and  C_14
REMARK    2  A    between atoms: N_7  and  C_30
REMARK    3  A    between atoms: N_7  and  C_32
REMARK    4  A    between atoms: N_7  and  C_33
REMARK    5  A    between atoms: C_9  and  C_14
REMARK    6  A    between atoms: C_12  and  C_17
REMARK    7  A    between atoms: C_17  and  C_19
REMARK    8  A    between atoms: C_32  and  C_34
REMARK    9  A    between atoms: C_34  and  C_35
REMARK                            x       y       z     vdW  Elec       q    Type
REMARK                         _______ _______ _______ _____ _____    ______ ____
ROOT
ATOM      2  O   UNL     1      -4.542 -12.159  17.443  0.00  0.00    -0.274 OA
ATOM      3  O   UNL     1      -8.498  -9.727  14.877  0.00  0.00    -0.488 OA
ATOM      4  N   UNL     1      -6.304 -11.013  18.413  0.00  0.00    -0.300 N 
ATOM      6  N   UNL     1      -5.682  -9.660  15.605  0.00  0.00    -0.304 NA
ATOM     12  C   UNL     1      -9.149 -11.618  18.614  0.00  0.00    +0.008 C 
ATOM     13  C   UNL     1      -8.585 -10.405  17.816  0.00  0.00    +0.032 C 
ATOM     15  C   UNL     1      -8.059 -12.712  18.711  0.00  0.00    +0.023 C 
ATOM     16  C   UNL     1      -7.266  -9.907  18.438  0.00  0.00    +0.115 C 
ATOM     18  C   UNL     1      -6.719 -12.167  19.215  0.00  0.00    +0.108 C 
ATOM     20  C   UNL     1      -9.565  -9.277  17.637  0.00  0.00    -0.023 C 
ATOM     21  C   UNL     1      -5.212 -11.125  17.553  0.00  0.00    +0.229 C 
ATOM     22  C   UNL     1     -10.038  -8.747  16.496  0.00  0.00    +0.010 C 
ATOM     23  C   UNL     1      -4.798  -9.913  16.739  0.00  0.00    +0.178 C 
ATOM     24  C   UNL     1      -9.731  -9.038  15.049  0.00  0.00    +0.256 C 
ATOM     25  C   UNL     1      -5.886 -10.799  14.712  0.00  0.00    +0.120 C 
ATOM     26  C   UNL     1      -6.710 -10.420  13.493  0.00  0.00    +0.010 A 
ATOM     27  C   UNL     1      -8.018  -9.898  13.602  0.00  0.00    +0.125 A 
ATOM     28  C   UNL     1      -6.160 -10.620  12.216  0.00  0.00    +0.031 A 
ATOM     29  C   UNL     1      -8.743  -9.594  12.442  0.00  0.00    +0.048 A 
ATOM     30  C   UNL     1      -6.888 -10.308  11.070  0.00  0.00    +0.030 A 
ATOM     31  C   UNL     1      -8.176  -9.798  11.184  0.00  0.00    +0.027 A 
ATOM     41  H   UNL     1      -5.306  -8.874  15.073  0.00  0.00    +0.123 HD
ENDROOT
BRANCH  30   7
ATOM      7  N   UNL     1      -6.320 -10.514   9.795  0.00  0.00    -0.333 N 
ATOM     33  C   UNL     1      -6.203  -9.415   8.857  0.00  0.00    +0.129 C 
BRANCH   7  32
ATOM     32  C   UNL     1      -5.838 -11.826   9.409  0.00  0.00    +0.111 C 
BRANCH  32  34
ATOM     34  C   UNL     1      -4.334 -11.796   9.137  0.00  0.00    +0.074 C 
BRANCH  34  35
ATOM      8  N   UNL     1      -2.952 -10.489  10.659  0.00  0.00    -0.260 NA
ATOM     35  C   UNL     1      -3.506 -11.693  10.396  0.00  0.00    +0.043 A 
ATOM     36  C   UNL     1      -3.359 -12.809  11.204  0.00  0.00    +0.023 A 
ATOM     37  C   UNL     1      -2.592 -12.680  12.357  0.00  0.00    +0.003 A 
ATOM     38  C   UNL     1      -2.212 -10.402  11.788  0.00  0.00    +0.111 A 
ATOM     39  C   UNL     1      -2.005 -11.457  12.662  0.00  0.00    +0.020 A 
ENDBRANCH  34  35
ENDBRANCH  32  34
ENDBRANCH   7  32
ENDBRANCH  30   7
BRANCH  12  17
ATOM     17  C   UNL     1      -9.689 -11.272  20.007  0.00  0.00    +0.100 C 
BRANCH  17  19
ATOM      1  O   UNL     1     -11.485 -12.891  20.034  0.00  0.00    -0.276 OA
ATOM      5  N   UNL     1     -11.937 -10.672  20.555  0.00  0.00    -0.315 N 
ATOM     19  C   UNL     1     -11.117 -11.731  20.192  0.00  0.00    +0.213 C 
ATOM     40  H   UNL     1     -11.538  -9.742  20.641  0.00  0.00    +0.149 HD
BRANCH   5  14
ATOM     14  C   UNL     1     -13.354 -10.817  20.796  0.00  0.00    +0.107 C 
BRANCH  14   9
ATOM      9  C   UNL     1     -14.052  -9.502  20.712  0.00  0.00    +0.006 C 
ATOM     10  C   UNL     1     -15.500  -9.387  21.102  0.00  0.00    +0.005 C 
ATOM     11  C   UNL     1     -15.099  -9.267  19.658  0.00  0.00    +0.005 C 
ENDBRANCH  14   9
ENDBRANCH   5  14
ENDBRANCH  17  19
ENDBRANCH  12  17
TORSDOF 8
ENDMDL
MODEL 9
REMARK VINA RESULT:      -6.6      3.344     10.281
REMARK  Name = 71692924
REMARK  9 active torsions:
REMARK  status: ('A' for Active; 'I' for Inactive)
REMARK    1  A    between atoms: N_5  and  C_14
REMARK    2  A    between atoms: N_7  and  C_30
REMARK    3  A    between atoms: N_7  and  C_32
REMARK    4  A    between atoms: N_7  and  C_33
REMARK    5  A    between atoms: C_9  and  C_14
REMARK    6  A    between atoms: C_12  and  C_17
REMARK    7  A    between atoms: C_17  and  C_19
REMARK    8  A    between atoms: C_32  and  C_34
REMARK    9  A    between atoms: C_34  and  C_35
REMARK                            x       y       z     vdW  Elec       q    Type
REMARK                         _______ _______ _______ _____ _____    ______ ____
ROOT
ATOM      2  O   UNL     1      -5.314 -15.613  11.765  0.00  0.00    -0.274 OA
ATOM      3  O   UNL     1      -3.876 -10.803  10.047  0.00  0.00    -0.488 OA
ATOM      4  N   UNL     1      -3.686 -14.256  12.696  0.00  0.00    -0.300 N 
ATOM      6  N   UNL     1      -3.781 -13.672   9.573  0.00  0.00    -0.304 NA
ATOM     12  C   UNL     1      -3.848 -11.751  14.179  0.00  0.00    +0.008 C 
ATOM     13  C   UNL     1      -3.175 -11.876  12.779  0.00  0.00    +0.032 C 
ATOM     15  C   UNL     1      -4.891 -12.882  14.343  0.00  0.00    +0.023 C 
ATOM     16  C   UNL     1      -2.590 -13.287  12.578  0.00  0.00    +0.115 C 
ATOM     18  C   UNL     1      -4.319 -14.265  14.017  0.00  0.00    +0.108 C 
ATOM     20  C   UNL     1      -2.149 -10.813  12.492  0.00  0.00    -0.023 C 
ATOM     21  C   UNL     1      -4.276 -14.952  11.642  0.00  0.00    +0.229 C 
ATOM     22  C   UNL     1      -2.132  -9.907  11.499  0.00  0.00    +0.010 C 
ATOM     23  C   UNL     1      -3.596 -14.933  10.285  0.00  0.00    +0.178 C 
ATOM     24  C   UNL     1      -3.061  -9.673  10.336  0.00  0.00    +0.256 C 
ATOM     25  C   UNL     1      -5.169 -13.240   9.427  0.00  0.00    +0.120 C 
ATOM     26  C   UNL     1      -5.285 -11.993   8.567  0.00  0.00    +0.010 A 
ATOM     27  C   UNL     1      -4.639 -10.782   8.906  0.00  0.00    +0.125 A 
ATOM     28  C   UNL     1      -6.083 -12.039   7.412  0.00  0.00    +0.031 A 
ATOM     29  C   UNL     1      -4.806  -9.655   8.092  0.00  0.00    +0.048 A 
ATOM     30  C   UNL     1      -6.236 -10.912   6.606  0.00  0.00    +0.030 A 
ATOM     31  C   UNL     1      -5.600  -9.724   6.947  0.00  0.00    +0.027 A 
ATOM     41  H   UNL     1      -3.353 -13.757   8.650  0.00  0.00    +0.123 HD
ENDROOT
BRANCH  30   7
ATOM      7  N   UNL     1      -7.040 -10.977   5.449  0.00  0.00    -0.333 N 
ATOM     33  C   UNL     1      -6.486 -11.454   4.197  0.00  0.00    +0.129 C 
BRANCH   7  32
ATOM     32  C   UNL     1      -8.432 -10.575   5.497  0.00  0.00    +0.111 C 
BRANCH  32  34
ATOM     34  C   UNL     1      -8.631  -9.215   4.827  0.00  0.00    +0.074 C 
BRANCH  34  35
ATOM      8  N   UNL     1     -10.440  -7.875   5.757  0.00  0.00    -0.260 NA
ATOM     35  C   UNL     1      -9.117  -8.151   5.781  0.00  0.00    +0.043 A 
ATOM     36  C   UNL     1      -8.208  -7.522   6.617  0.00  0.00    +0.023 A 
ATOM     37  C   UNL     1      -8.689  -6.547   7.484  0.00  0.00    +0.003 A 
ATOM     38  C   UNL     1     -10.871  -6.921   6.613  0.00  0.00    +0.111 A 
ATOM     39  C   UNL     1     -10.044  -6.235   7.489  0.00  0.00    +0.020 A 
ENDBRANCH  34  35
ENDBRANCH  32  34
ENDBRANCH   7  32
ENDBRANCH  30   7
BRANCH  12  17
ATOM     17  C   UNL     1      -2.870 -11.745  15.360  0.00  0.00    +0.100 C 
BRANCH  17  19
ATOM      1  O   UNL     1      -3.718  -9.929  16.714  0.00  0.00    -0.276 OA
ATOM      5  N   UNL     1      -3.719 -12.091  17.568  0.00  0.00    -0.315 N 
ATOM     19  C   UNL     1      -3.479 -11.127  16.598  0.00  0.00    +0.213 C 
ATOM     40  H   UNL     1      -3.466 -13.056  17.381  0.00  0.00    +0.149 HD
BRANCH   5  14
ATOM     14  C   UNL     1      -4.295 -11.786  18.857  0.00  0.00    +0.107 C 
BRANCH  14   9
ATOM      9  C   UNL     1      -5.738 -11.430  18.730  0.00  0.00    +0.006 C 
ATOM     10  C   UNL     1      -6.333 -10.359  19.603  0.00  0.00    +0.005 C 
ATOM     11  C   UNL     1      -6.708 -11.799  19.819  0.00  0.00    +0.005 C 
ENDBRANCH  14   9
ENDBRANCH   5  14
ENDBRANCH  17  19
ENDBRANCH  12  17
TORSDOF 8
ENDMDL
MODEL 10
REMARK VINA RESULT:      -6.5     23.489     27.508
REMARK  Name = 71692924
REMARK  9 active torsions:
REMARK  status: ('A' for Active; 'I' for Inactive)
REMARK    1  A    between atoms: N_5  and  C_14
REMARK    2  A    between atoms: N_7  and  C_30
REMARK    3  A    between atoms: N_7  and  C_32
REMARK    4  A    between atoms: N_7  and  C_33
REMARK    5  A    between atoms: C_9  and  C_14
REMARK    6  A    between atoms: C_12  and  C_17
REMARK    7  A    between atoms: C_17  and  C_19
REMARK    8  A    between atoms: C_32  and  C_34
REMARK    9  A    between atoms: C_34  and  C_35
REMARK                            x       y       z     vdW  Elec       q    Type
REMARK                         _______ _______ _______ _____ _____    ______ ____
ROOT
ATOM      2  O   UNL     1      11.199   2.853  -3.058  0.00  0.00    -0.274 OA
ATOM      3  O   UNL     1       8.479   7.270  -1.938  0.00  0.00    -0.488 OA
ATOM      4  N   UNL     1      11.929   4.618  -1.750  0.00  0.00    -0.300 N 
ATOM      6  N   UNL     1       9.958   5.783  -3.955  0.00  0.00    -0.304 NA
ATOM     12  C   UNL     1      11.125   5.550   0.893  0.00  0.00    +0.008 C 
ATOM     13  C   UNL     1      10.925   6.384  -0.408  0.00  0.00    +0.032 C 
ATOM     15  C   UNL     1      11.191   4.048   0.527  0.00  0.00    +0.023 C 
ATOM     16  C   UNL     1      12.015   6.050  -1.445  0.00  0.00    +0.115 C 
ATOM     18  C   UNL     1      12.193   3.757  -0.594  0.00  0.00    +0.108 C 
ATOM     20  C   UNL     1      10.825   7.868  -0.179  0.00  0.00    -0.023 C 
ATOM     21  C   UNL     1      11.422   4.063  -2.924  0.00  0.00    +0.229 C 
ATOM     22  C   UNL     1       9.813   8.700  -0.480  0.00  0.00    +0.010 C 
ATOM     23  C   UNL     1      11.164   4.975  -4.109  0.00  0.00    +0.178 C 
ATOM     24  C   UNL     1       8.495   8.470  -1.174  0.00  0.00    +0.256 C 
ATOM     25  C   UNL     1       8.744   5.032  -3.647  0.00  0.00    +0.120 C 
ATOM     26  C   UNL     1       7.516   5.926  -3.629  0.00  0.00    +0.010 A 
ATOM     27  C   UNL     1       7.402   7.032  -2.756  0.00  0.00    +0.125 A 
ATOM     28  C   UNL     1       6.448   5.627  -4.492  0.00  0.00    +0.031 A 
ATOM     29  C   UNL     1       6.234   7.803  -2.762  0.00  0.00    +0.048 A 
ATOM     30  C   UNL     1       5.293   6.406  -4.493  0.00  0.00    +0.030 A 
ATOM     31  C   UNL     1       5.187   7.491  -3.629  0.00  0.00    +0.027 A 
ATOM     41  H   UNL     1       9.818   6.320  -4.811  0.00  0.00    +0.123 HD
ENDROOT
BRANCH  30   7
ATOM      7  N   UNL     1       4.232   6.093  -5.367  0.00  0.00    -0.333 N 
ATOM     33  C   UNL     1       3.936   6.948  -6.500  0.00  0.00    +0.129 C 
BRANCH   7  32
ATOM     32  C   UNL     1       3.427   4.906  -5.150  0.00  0.00    +0.111 C 
BRANCH  32  34
ATOM     34  C   UNL     1       3.111   4.210  -6.473  0.00  0.00    +0.074 C 
BRANCH  34  35
ATOM      8  N   UNL     1       1.171   2.898  -7.142  0.00  0.00    -0.260 NA
ATOM     35  C   UNL     1       2.230   2.996  -6.308  0.00  0.00    +0.043 A 
ATOM     36  C   UNL     1       2.540   2.059  -5.335  0.00  0.00    +0.023 A 
ATOM     37  C   UNL     1       1.710   0.952  -5.209  0.00  0.00    +0.003 A 
ATOM     38  C   UNL     1       0.385   1.808  -6.990  0.00  0.00    +0.111 A 
ATOM     39  C   UNL     1       0.610   0.815  -6.049  0.00  0.00    +0.020 A 
ENDBRANCH  34  35
ENDBRANCH  32  34
ENDBRANCH   7  32
ENDBRANCH  30   7
BRANCH  12  17
ATOM     17  C   UNL     1      12.345   5.955   1.730  0.00  0.00    +0.100 C 
BRANCH  17  19
ATOM      1  O   UNL     1      12.459   7.164   3.821  0.00  0.00    -0.276 OA
ATOM      5  N   UNL     1      11.035   5.337   3.631  0.00  0.00    -0.315 N 
ATOM     19  C   UNL     1      11.976   6.245   3.166  0.00  0.00    +0.213 C 
ATOM     40  H   UNL     1      10.712   4.598   3.014  0.00  0.00    +0.149 HD
BRANCH   5  14
ATOM     14  C   UNL     1      10.500   5.372   4.973  0.00  0.00    +0.107 C 
BRANCH  14   9
ATOM      9  C   UNL     1       9.036   5.652   4.961  0.00  0.00    +0.006 C 
ATOM     10  C   UNL     1       8.524   6.984   4.486  0.00  0.00    +0.005 C 
ATOM     11  C   UNL     1       8.442   6.624   5.943  0.00  0.00    +0.005 C 
ENDBRANCH  14   9
ENDBRANCH   5  14
ENDBRANCH  17  19
ENDBRANCH  12  17
TORSDOF 8
ENDMDL
