MODEL 1
REMARK VINA RESULT:      -6.7      0.000      0.000
REMARK  Name = 45784013
REMARK  5 active torsions:
REMARK  status: ('A' for Active; 'I' for Inactive)
REMARK    1  A    between atoms: N_5  and  C_14
REMARK    2  A    between atoms: C_6  and  C_10
REMARK    3  A    between atoms: C_14  and  C_19
REMARK    4  A    between atoms: C_14  and  C_20
REMARK    5  A    between atoms: C_17  and  C_21
REMARK                            x       y       z     vdW  Elec       q    Type
REMARK                         _______ _______ _______ _____ _____    ______ ____
ROOT
ATOM      1  O   UNL     1      -2.997  -8.978  10.092  0.00  0.00    -0.253 OA
ATOM      2  N   UNL     1      -2.903 -10.946  11.290  0.00  0.00    -0.285 N 
ATOM      5  N   UNL     1      -4.271 -10.771   9.398  0.00  0.00    -0.297 N 
ATOM      6  C   UNL     1      -1.991 -11.476  13.421  0.00  0.00    +0.074 C 
ATOM      7  C   UNL     1      -2.318 -12.774  12.668  0.00  0.00    +0.032 C 
ATOM      8  C   UNL     1      -1.958 -10.448  12.283  0.00  0.00    +0.120 C 
ATOM      9  C   UNL     1      -3.271 -12.333  11.564  0.00  0.00    +0.110 C 
ATOM     11  C   UNL     1      -3.364 -10.146  10.246  0.00  0.00    +0.302 C 
ATOM     23  H   UNL     1      -4.616 -11.697   9.627  0.00  0.00    +0.150 HD
ENDROOT
BRANCH   6  10
ATOM      3  N   UNL     1      -2.795 -11.744  15.791  0.00  0.00    -0.342 N 
ATOM      4  N   UNL     1      -4.078 -10.497  14.474  0.00  0.00    -0.232 NA
ATOM     10  C   UNL     1      -2.981 -11.217  14.544  0.00  0.00    +0.113 A 
ATOM     12  C   UNL     1      -3.841 -11.338  16.578  0.00  0.00    +0.066 A 
ATOM     13  C   UNL     1      -4.628 -10.561  15.733  0.00  0.00    +0.089 A 
ATOM     15  C   UNL     1      -4.157 -11.577  17.916  0.00  0.00    +0.031 A 
ATOM     16  C   UNL     1      -5.805  -9.979  16.235  0.00  0.00    +0.030 A 
ATOM     17  C   UNL     1      -5.332 -10.990  18.400  0.00  0.00    -0.048 A 
ATOM     18  C   UNL     1      -6.142 -10.205  17.576  0.00  0.00    +0.005 A 
ATOM     21  C   UNL     1      -5.724 -11.207  19.824  0.00  0.00    +0.044 C 
ATOM     22  H   UNL     1      -2.024 -12.331  16.083  0.00  0.00    +0.167 HD
ENDBRANCH   6  10
BRANCH   5  14
ATOM     14  C   UNL     1      -4.858 -10.098   8.262  0.00  0.00    +0.068 C 
ATOM     19  C   UNL     1      -6.203  -9.495   8.642  0.00  0.00    +0.027 C 
ATOM     20  C   UNL     1      -4.995 -11.056   7.085  0.00  0.00    +0.027 C 
ENDBRANCH   5  14
TORSDOF 2
ENDMDL
MODEL 2
REMARK VINA RESULT:      -6.5     26.744     28.295
REMARK  Name = 45784013
REMARK  5 active torsions:
REMARK  status: ('A' for Active; 'I' for Inactive)
REMARK    1  A    between atoms: N_5  and  C_14
REMARK    2  A    between atoms: C_6  and  C_10
REMARK    3  A    between atoms: C_14  and  C_19
REMARK    4  A    between atoms: C_14  and  C_20
REMARK    5  A    between atoms: C_17  and  C_21
REMARK                            x       y       z     vdW  Elec       q    Type
REMARK                         _______ _______ _______ _____ _____    ______ ____
ROOT
ATOM      1  O   UNL     1      11.352  12.081  21.339  0.00  0.00    -0.253 OA
ATOM      2  N   UNL     1      11.321   9.826  21.821  0.00  0.00    -0.285 N 
ATOM      5  N   UNL     1      11.406  11.408  23.544  0.00  0.00    -0.297 N 
ATOM      6  C   UNL     1      11.609   7.898  20.459  0.00  0.00    +0.074 C 
ATOM      7  C   UNL     1      11.049   7.479  21.825  0.00  0.00    +0.032 C 
ATOM      8  C   UNL     1      11.282   9.396  20.428  0.00  0.00    +0.120 C 
ATOM      9  C   UNL     1      11.324   8.678  22.724  0.00  0.00    +0.110 C 
ATOM     11  C   UNL     1      11.358  11.173  22.175  0.00  0.00    +0.302 C 
ATOM     23  H   UNL     1      11.511  10.627  24.183  0.00  0.00    +0.150 HD
ENDROOT
BRANCH   6  10
ATOM      3  N   UNL     1      13.964   7.723  21.330  0.00  0.00    -0.342 N 
ATOM      4  N   UNL     1      13.644   6.974  19.263  0.00  0.00    -0.232 NA
ATOM     10  C   UNL     1      13.073   7.518  20.314  0.00  0.00    +0.113 A 
ATOM     12  C   UNL     1      15.192   7.283  20.906  0.00  0.00    +0.066 A 
ATOM     13  C   UNL     1      14.966   6.821  19.613  0.00  0.00    +0.089 A 
ATOM     15  C   UNL     1      16.442   7.251  21.524  0.00  0.00    +0.031 A 
ATOM     16  C   UNL     1      16.039   6.291  18.877  0.00  0.00    +0.030 A 
ATOM     17  C   UNL     1      17.500   6.721  20.777  0.00  0.00    -0.048 A 
ATOM     18  C   UNL     1      17.304   6.249  19.477  0.00  0.00    +0.005 A 
ATOM     21  C   UNL     1      18.864   6.659  21.383  0.00  0.00    +0.044 C 
ATOM     22  H   UNL     1      13.758   8.129  22.234  0.00  0.00    +0.167 HD
ENDBRANCH   6  10
BRANCH   5  14
ATOM     14  C   UNL     1      11.452  12.741  24.100  0.00  0.00    +0.068 C 
ATOM     19  C   UNL     1      12.882  13.114  24.464  0.00  0.00    +0.027 C 
ATOM     20  C   UNL     1      10.529  12.849  25.308  0.00  0.00    +0.027 C 
ENDBRANCH   5  14
TORSDOF 2
ENDMDL
MODEL 3
REMARK VINA RESULT:      -6.4      3.789      7.579
REMARK  Name = 45784013
REMARK  5 active torsions:
REMARK  status: ('A' for Active; 'I' for Inactive)
REMARK    1  A    between atoms: N_5  and  C_14
REMARK    2  A    between atoms: C_6  and  C_10
REMARK    3  A    between atoms: C_14  and  C_19
REMARK    4  A    between atoms: C_14  and  C_20
REMARK    5  A    between atoms: C_17  and  C_21
REMARK                            x       y       z     vdW  Elec       q    Type
REMARK                         _______ _______ _______ _____ _____    ______ ____
ROOT
ATOM      1  O   UNL     1      -9.456 -11.877  17.122  0.00  0.00    -0.253 OA
ATOM      2  N   UNL     1      -7.565 -11.360  18.337  0.00  0.00    -0.285 N 
ATOM      5  N   UNL     1      -9.344  -9.844  18.205  0.00  0.00    -0.297 N 
ATOM      6  C   UNL     1      -5.417 -12.372  18.456  0.00  0.00    +0.074 C 
ATOM      7  C   UNL     1      -5.574 -11.372  19.610  0.00  0.00    +0.032 C 
ATOM      8  C   UNL     1      -6.874 -12.609  18.039  0.00  0.00    +0.120 C 
ATOM      9  C   UNL     1      -6.747 -10.497  19.185  0.00  0.00    +0.110 C 
ATOM     11  C   UNL     1      -8.836 -11.084  17.837  0.00  0.00    +0.302 C 
ATOM     23  H   UNL     1      -8.754  -9.190  18.708  0.00  0.00    +0.150 HD
ENDROOT
BRANCH   6  10
ATOM      3  N   UNL     1      -4.792 -11.939  16.056  0.00  0.00    -0.342 N 
ATOM      4  N   UNL     1      -3.316 -11.262  17.573  0.00  0.00    -0.232 NA
ATOM     10  C   UNL     1      -4.479 -11.845  17.383  0.00  0.00    +0.113 A 
ATOM     12  C   UNL     1      -3.763 -11.382  15.342  0.00  0.00    +0.066 A 
ATOM     13  C   UNL     1      -2.855 -10.967  16.311  0.00  0.00    +0.089 A 
ATOM     15  C   UNL     1      -3.556 -11.210  13.973  0.00  0.00    +0.031 A 
ATOM     16  C   UNL     1      -1.662 -10.341  15.909  0.00  0.00    +0.030 A 
ATOM     17  C   UNL     1      -2.364 -10.586  13.590  0.00  0.00    -0.048 A 
ATOM     18  C   UNL     1      -1.432 -10.158  14.539  0.00  0.00    +0.005 A 
ATOM     21  C   UNL     1      -2.084 -10.372  12.138  0.00  0.00    +0.044 C 
ATOM     22  H   UNL     1      -5.632 -12.349  15.668  0.00  0.00    +0.167 HD
ENDBRANCH   6  10
BRANCH   5  14
ATOM     14  C   UNL     1     -10.645  -9.383  17.779  0.00  0.00    +0.068 C 
ATOM     19  C   UNL     1     -10.573  -7.927  17.339  0.00  0.00    +0.027 C 
ATOM     20  C   UNL     1     -11.670  -9.573  18.890  0.00  0.00    +0.027 C 
ENDBRANCH   5  14
TORSDOF 2
ENDMDL
MODEL 4
REMARK VINA RESULT:      -6.2      2.219      7.294
REMARK  Name = 45784013
REMARK  5 active torsions:
REMARK  status: ('A' for Active; 'I' for Inactive)
REMARK    1  A    between atoms: N_5  and  C_14
REMARK    2  A    between atoms: C_6  and  C_10
REMARK    3  A    between atoms: C_14  and  C_19
REMARK    4  A    between atoms: C_14  and  C_20
REMARK    5  A    between atoms: C_17  and  C_21
REMARK                            x       y       z     vdW  Elec       q    Type
REMARK                         _______ _______ _______ _____ _____    ______ ____
ROOT
ATOM      1  O   UNL     1      -5.212 -13.261  16.387  0.00  0.00    -0.253 OA
ATOM      2  N   UNL     1      -3.465 -11.933  15.676  0.00  0.00    -0.285 N 
ATOM      5  N   UNL     1      -4.964 -11.158  17.299  0.00  0.00    -0.297 N 
ATOM      6  C   UNL     1      -1.960 -12.120  13.845  0.00  0.00    +0.074 C 
ATOM      7  C   UNL     1      -1.447 -11.051  14.821  0.00  0.00    +0.032 C 
ATOM      8  C   UNL     1      -2.944 -12.905  14.722  0.00  0.00    +0.120 C 
ATOM      9  C   UNL     1      -2.664 -10.712  15.674  0.00  0.00    +0.110 C 
ATOM     11  C   UNL     1      -4.593 -12.195  16.452  0.00  0.00    +0.302 C 
ATOM     23  H   UNL     1      -4.484 -10.266  17.240  0.00  0.00    +0.150 HD
ENDROOT
BRANCH   6  10
ATOM      3  N   UNL     1      -3.162 -12.254  11.638  0.00  0.00    -0.342 N 
ATOM      4  N   UNL     1      -2.478 -10.228  12.241  0.00  0.00    -0.232 NA
ATOM     10  C   UNL     1      -2.524 -11.497  12.579  0.00  0.00    +0.113 A 
ATOM     12  C   UNL     1      -3.554 -11.419  10.624  0.00  0.00    +0.066 A 
ATOM     13  C   UNL     1      -3.116 -10.160  11.023  0.00  0.00    +0.089 A 
ATOM     15  C   UNL     1      -4.234 -11.650   9.428  0.00  0.00    +0.031 A 
ATOM     16  C   UNL     1      -3.361  -9.053  10.194  0.00  0.00    +0.030 A 
ATOM     17  C   UNL     1      -4.471 -10.537   8.613  0.00  0.00    -0.048 A 
ATOM     18  C   UNL     1      -4.043  -9.261   8.987  0.00  0.00    +0.005 A 
ATOM     21  C   UNL     1      -5.195 -10.718   7.319  0.00  0.00    +0.044 C 
ATOM     22  H   UNL     1      -3.317 -13.253  11.678  0.00  0.00    +0.167 HD
ENDBRANCH   6  10
BRANCH   5  14
ATOM     14  C   UNL     1      -6.109 -11.246  18.176  0.00  0.00    +0.068 C 
ATOM     19  C   UNL     1      -7.024 -10.047  17.974  0.00  0.00    +0.027 C 
ATOM     20  C   UNL     1      -5.663 -11.361  19.628  0.00  0.00    +0.027 C 
ENDBRANCH   5  14
TORSDOF 2
ENDMDL
MODEL 5
REMARK VINA RESULT:      -6.1      2.996      7.241
REMARK  Name = 45784013
REMARK  5 active torsions:
REMARK  status: ('A' for Active; 'I' for Inactive)
REMARK    1  A    between atoms: N_5  and  C_14
REMARK    2  A    between atoms: C_6  and  C_10
REMARK    3  A    between atoms: C_14  and  C_19
REMARK    4  A    between atoms: C_14  and  C_20
REMARK    5  A    between atoms: C_17  and  C_21
REMARK                            x       y       z     vdW  Elec       q    Type
REMARK                         _______ _______ _______ _____ _____    ______ ____
ROOT
ATOM      1  O   UNL     1      -8.388 -11.936  16.385  0.00  0.00    -0.253 OA
ATOM      2  N   UNL     1      -6.260 -11.125  16.751  0.00  0.00    -0.285 N 
ATOM      5  N   UNL     1      -8.135  -9.855  17.347  0.00  0.00    -0.297 N 
ATOM      6  C   UNL     1      -4.124 -11.850  15.999  0.00  0.00    +0.074 C 
ATOM      7  C   UNL     1      -3.947 -10.823  17.127  0.00  0.00    +0.032 C 
ATOM      8  C   UNL     1      -5.581 -12.289  16.195  0.00  0.00    +0.120 C 
ATOM      9  C   UNL     1      -5.300 -10.126  17.210  0.00  0.00    +0.110 C 
ATOM     11  C   UNL     1      -7.650 -11.037  16.799  0.00  0.00    +0.302 C 
ATOM     23  H   UNL     1      -7.489  -9.108  17.578  0.00  0.00    +0.150 HD
ENDROOT
BRANCH   6  10
ATOM      3  N   UNL     1      -4.735 -10.877  13.760  0.00  0.00    -0.342 N 
ATOM      4  N   UNL     1      -2.559 -11.049  14.174  0.00  0.00    -0.232 NA
ATOM     10  C   UNL     1      -3.767 -11.259  14.646  0.00  0.00    +0.113 A 
ATOM     12  C   UNL     1      -4.110 -10.388  12.642  0.00  0.00    +0.066 A 
ATOM     13  C   UNL     1      -2.753 -10.506  12.925  0.00  0.00    +0.089 A 
ATOM     15  C   UNL     1      -4.601  -9.868  11.444  0.00  0.00    +0.031 A 
ATOM     16  C   UNL     1      -1.813 -10.085  11.968  0.00  0.00    +0.030 A 
ATOM     17  C   UNL     1      -3.652  -9.453  10.502  0.00  0.00    -0.048 A 
ATOM     18  C   UNL     1      -2.283  -9.560  10.757  0.00  0.00    +0.005 A 
ATOM     21  C   UNL     1      -4.115  -8.887   9.200  0.00  0.00    +0.044 C 
ATOM     22  H   UNL     1      -5.735 -10.944  13.900  0.00  0.00    +0.167 HD
ENDBRANCH   6  10
BRANCH   5  14
ATOM     14  C   UNL     1      -9.548  -9.584  17.476  0.00  0.00    +0.068 C 
ATOM     19  C   UNL     1      -9.813  -8.089  17.367  0.00  0.00    +0.027 C 
ATOM     20  C   UNL     1     -10.082 -10.145  18.789  0.00  0.00    +0.027 C 
ENDBRANCH   5  14
TORSDOF 2
ENDMDL
MODEL 6
REMARK VINA RESULT:      -5.9     23.627     25.932
REMARK  Name = 45784013
REMARK  5 active torsions:
REMARK  status: ('A' for Active; 'I' for Inactive)
REMARK    1  A    between atoms: N_5  and  C_14
REMARK    2  A    between atoms: C_6  and  C_10
REMARK    3  A    between atoms: C_14  and  C_19
REMARK    4  A    between atoms: C_14  and  C_20
REMARK    5  A    between atoms: C_17  and  C_21
REMARK                            x       y       z     vdW  Elec       q    Type
REMARK                         _______ _______ _______ _____ _____    ______ ____
ROOT
ATOM      1  O   UNL     1       8.725   4.633  -5.808  0.00  0.00    -0.253 OA
ATOM      2  N   UNL     1       7.109   5.739  -4.588  0.00  0.00    -0.285 N 
ATOM      5  N   UNL     1       8.910   4.700  -3.510  0.00  0.00    -0.297 N 
ATOM      6  C   UNL     1       4.969   6.592  -5.177  0.00  0.00    +0.074 C 
ATOM      7  C   UNL     1       5.380   7.145  -3.805  0.00  0.00    +0.032 C 
ATOM      8  C   UNL     1       6.315   6.127  -5.748  0.00  0.00    +0.120 C 
ATOM      9  C   UNL     1       6.501   6.218  -3.350  0.00  0.00    +0.110 C 
ATOM     11  C   UNL     1       8.283   4.998  -4.715  0.00  0.00    +0.302 C 
ATOM     23  H   UNL     1       8.453   4.936  -2.636  0.00  0.00    +0.150 HD
ENDROOT
BRANCH   6  10
ATOM      3  N   UNL     1       4.051   4.279  -5.557  0.00  0.00    -0.342 N 
ATOM      4  N   UNL     1       2.711   5.682  -4.474  0.00  0.00    -0.232 NA
ATOM     10  C   UNL     1       3.883   5.537  -5.051  0.00  0.00    +0.113 A 
ATOM     12  C   UNL     1       2.912   3.565  -5.291  0.00  0.00    +0.066 A 
ATOM     13  C   UNL     1       2.091   4.462  -4.615  0.00  0.00    +0.089 A 
ATOM     15  C   UNL     1       2.541   2.250  -5.575  0.00  0.00    +0.031 A 
ATOM     16  C   UNL     1       0.820   4.040  -4.188  0.00  0.00    +0.030 A 
ATOM     17  C   UNL     1       1.273   1.846  -5.143  0.00  0.00    -0.048 A 
ATOM     18  C   UNL     1       0.426   2.724  -4.462  0.00  0.00    +0.005 A 
ATOM     21  C   UNL     1       0.817   0.450  -5.416  0.00  0.00    +0.044 C 
ATOM     22  H   UNL     1       4.868   3.935  -6.044  0.00  0.00    +0.167 HD
ENDBRANCH   6  10
BRANCH   5  14
ATOM     14  C   UNL     1      10.135   3.938  -3.442  0.00  0.00    +0.068 C 
ATOM     19  C   UNL     1       9.838   2.448  -3.540  0.00  0.00    +0.027 C 
ATOM     20  C   UNL     1      10.900   4.267  -2.166  0.00  0.00    +0.027 C 
ENDBRANCH   5  14
TORSDOF 2
ENDMDL
MODEL 7
REMARK VINA RESULT:      -5.8     23.585     27.461
REMARK  Name = 45784013
REMARK  5 active torsions:
REMARK  status: ('A' for Active; 'I' for Inactive)
REMARK    1  A    between atoms: N_5  and  C_14
REMARK    2  A    between atoms: C_6  and  C_10
REMARK    3  A    between atoms: C_14  and  C_19
REMARK    4  A    between atoms: C_14  and  C_20
REMARK    5  A    between atoms: C_17  and  C_21
REMARK                            x       y       z     vdW  Elec       q    Type
REMARK                         _______ _______ _______ _____ _____    ______ ____
ROOT
ATOM      1  O   UNL     1     -14.764   8.739  32.655  0.00  0.00    -0.253 OA
ATOM      2  N   UNL     1     -14.684   6.737  33.797  0.00  0.00    -0.285 N 
ATOM      5  N   UNL     1     -12.785   8.099  33.650  0.00  0.00    -0.297 N 
ATOM      6  C   UNL     1     -16.185   4.896  33.900  0.00  0.00    +0.074 C 
ATOM      7  C   UNL     1     -15.139   4.765  35.016  0.00  0.00    +0.032 C 
ATOM      8  C   UNL     1     -16.073   6.381  33.533  0.00  0.00    +0.120 C 
ATOM      9  C   UNL     1     -14.019   5.705  34.587  0.00  0.00    +0.110 C 
ATOM     11  C   UNL     1     -14.124   7.920  33.320  0.00  0.00    +0.302 C 
ATOM     23  H   UNL     1     -12.278   7.350  34.110  0.00  0.00    +0.150 HD
ENDROOT
BRANCH   6  10
ATOM      3  N   UNL     1     -15.075   2.850  32.942  0.00  0.00    -0.342 N 
ATOM      4  N   UNL     1     -16.486   3.904  31.588  0.00  0.00    -0.232 NA
ATOM     10  C   UNL     1     -15.938   3.897  32.782  0.00  0.00    +0.113 A 
ATOM     12  C   UNL     1     -15.064   2.134  31.774  0.00  0.00    +0.066 A 
ATOM     13  C   UNL     1     -15.952   2.811  30.944  0.00  0.00    +0.089 A 
ATOM     15  C   UNL     1     -14.374   0.986  31.384  0.00  0.00    +0.031 A 
ATOM     16  C   UNL     1     -16.179   2.329  29.644  0.00  0.00    +0.030 A 
ATOM     17  C   UNL     1     -14.611   0.519  30.086  0.00  0.00    -0.048 A 
ATOM     18  C   UNL     1     -15.497   1.177  29.230  0.00  0.00    +0.005 A 
ATOM     21  C   UNL     1     -13.904  -0.707  29.609  0.00  0.00    +0.044 C 
ATOM     22  H   UNL     1     -14.537   2.641  33.773  0.00  0.00    +0.167 HD
ENDBRANCH   6  10
BRANCH   5  14
ATOM     14  C   UNL     1     -12.035   9.263  33.241  0.00  0.00    +0.068 C 
ATOM     19  C   UNL     1     -11.195   8.947  32.011  0.00  0.00    +0.027 C 
ATOM     20  C   UNL     1     -11.168   9.772  34.386  0.00  0.00    +0.027 C 
ENDBRANCH   5  14
TORSDOF 2
ENDMDL
MODEL 8
REMARK VINA RESULT:      -5.7     23.023     25.501
REMARK  Name = 45784013
REMARK  5 active torsions:
REMARK  status: ('A' for Active; 'I' for Inactive)
REMARK    1  A    between atoms: N_5  and  C_14
REMARK    2  A    between atoms: C_6  and  C_10
REMARK    3  A    between atoms: C_14  and  C_19
REMARK    4  A    between atoms: C_14  and  C_20
REMARK    5  A    between atoms: C_17  and  C_21
REMARK                            x       y       z     vdW  Elec       q    Type
REMARK                         _______ _______ _______ _____ _____    ______ ____
ROOT
ATOM      1  O   UNL     1       8.772  10.402   6.857  0.00  0.00    -0.253 OA
ATOM      2  N   UNL     1       9.274   8.187   7.260  0.00  0.00    -0.285 N 
ATOM      5  N   UNL     1      10.301   9.884   8.505  0.00  0.00    -0.297 N 
ATOM      6  C   UNL     1       8.797   6.196   6.051  0.00  0.00    +0.074 C 
ATOM      7  C   UNL     1       9.295   5.833   7.457  0.00  0.00    +0.032 C 
ATOM      8  C   UNL     1       8.387   7.663   6.228  0.00  0.00    +0.120 C 
ATOM      9  C   UNL     1       9.969   7.106   7.953  0.00  0.00    +0.110 C 
ATOM     11  C   UNL     1       9.403   9.554   7.496  0.00  0.00    +0.302 C 
ATOM     23  H   UNL     1      10.867   9.157   8.928  0.00  0.00    +0.150 HD
ENDROOT
BRANCH   6  10
ATOM      3  N   UNL     1       9.916   4.693   4.370  0.00  0.00    -0.342 N 
ATOM      4  N   UNL     1      10.778   6.732   4.563  0.00  0.00    -0.232 NA
ATOM     10  C   UNL     1       9.850   5.907   4.994  0.00  0.00    +0.113 A 
ATOM     12  C   UNL     1      10.956   4.736   3.478  0.00  0.00    +0.066 A 
ATOM     13  C   UNL     1      11.478   6.018   3.617  0.00  0.00    +0.089 A 
ATOM     15  C   UNL     1      11.469   3.792   2.588  0.00  0.00    +0.031 A 
ATOM     16  C   UNL     1      12.578   6.400   2.830  0.00  0.00    +0.030 A 
ATOM     17  C   UNL     1      12.564   4.188   1.812  0.00  0.00    -0.048 A 
ATOM     18  C   UNL     1      13.111   5.468   1.929  0.00  0.00    +0.005 A 
ATOM     21  C   UNL     1      13.158   3.223   0.839  0.00  0.00    +0.044 C 
ATOM     22  H   UNL     1       9.308   3.901   4.536  0.00  0.00    +0.167 HD
ENDBRANCH   6  10
BRANCH   5  14
ATOM     14  C   UNL     1      10.567  11.251   8.888  0.00  0.00    +0.068 C 
ATOM     19  C   UNL     1      12.018  11.406   9.324  0.00  0.00    +0.027 C 
ATOM     20  C   UNL     1       9.610  11.695   9.987  0.00  0.00    +0.027 C 
ENDBRANCH   5  14
TORSDOF 2
ENDMDL
MODEL 9
REMARK VINA RESULT:      -5.5     29.659     31.447
REMARK  Name = 45784013
REMARK  5 active torsions:
REMARK  status: ('A' for Active; 'I' for Inactive)
REMARK    1  A    between atoms: N_5  and  C_14
REMARK    2  A    between atoms: C_6  and  C_10
REMARK    3  A    between atoms: C_14  and  C_19
REMARK    4  A    between atoms: C_14  and  C_20
REMARK    5  A    between atoms: C_17  and  C_21
REMARK                            x       y       z     vdW  Elec       q    Type
REMARK                         _______ _______ _______ _____ _____    ______ ____
ROOT
ATOM      1  O   UNL     1      22.289   2.872  24.141  0.00  0.00    -0.253 OA
ATOM      2  N   UNL     1      22.575   4.601  22.642  0.00  0.00    -0.285 N 
ATOM      5  N   UNL     1      23.254   4.835  24.870  0.00  0.00    -0.297 N 
ATOM      6  C   UNL     1      21.733   4.969  20.449  0.00  0.00    +0.074 C 
ATOM      7  C   UNL     1      22.860   5.971  20.738  0.00  0.00    +0.032 C 
ATOM      8  C   UNL     1      21.984   3.893  21.513  0.00  0.00    +0.120 C 
ATOM      9  C   UNL     1      23.002   5.943  22.255  0.00  0.00    +0.110 C 
ATOM     11  C   UNL     1      22.679   4.018  23.903  0.00  0.00    +0.302 C 
ATOM     23  H   UNL     1      23.464   5.802  24.649  0.00  0.00    +0.150 HD
ENDROOT
BRANCH   6  10
ATOM      3  N   UNL     1      19.354   5.209  19.663  0.00  0.00    -0.342 N 
ATOM      4  N   UNL     1      20.007   6.659  21.214  0.00  0.00    -0.232 NA
ATOM     10  C   UNL     1      20.370   5.640  20.468  0.00  0.00    +0.113 A 
ATOM     12  C   UNL     1      18.262   6.002  19.904  0.00  0.00    +0.066 A 
ATOM     13  C   UNL     1      18.695   6.899  20.876  0.00  0.00    +0.089 A 
ATOM     15  C   UNL     1      16.973   6.011  19.372  0.00  0.00    +0.031 A 
ATOM     16  C   UNL     1      17.802   7.871  21.358  0.00  0.00    +0.030 A 
ATOM     17  C   UNL     1      16.096   6.985  19.862  0.00  0.00    -0.048 A 
ATOM     18  C   UNL     1      16.501   7.900  20.838  0.00  0.00    +0.005 A 
ATOM     21  C   UNL     1      14.700   7.046  19.333  0.00  0.00    +0.044 C 
ATOM     22  H   UNL     1      19.398   4.442  19.003  0.00  0.00    +0.167 HD
ENDBRANCH   6  10
BRANCH   5  14
ATOM     14  C   UNL     1      23.442   4.404  26.236  0.00  0.00    +0.068 C 
ATOM     19  C   UNL     1      22.374   5.010  27.135  0.00  0.00    +0.027 C 
ATOM     20  C   UNL     1      24.841   4.763  26.723  0.00  0.00    +0.027 C 
ENDBRANCH   5  14
TORSDOF 2
ENDMDL
MODEL 10
REMARK VINA RESULT:      -5.4      5.545      8.261
REMARK  Name = 45784013
REMARK  5 active torsions:
REMARK  status: ('A' for Active; 'I' for Inactive)
REMARK    1  A    between atoms: N_5  and  C_14
REMARK    2  A    between atoms: C_6  and  C_10
REMARK    3  A    between atoms: C_14  and  C_19
REMARK    4  A    between atoms: C_14  and  C_20
REMARK    5  A    between atoms: C_17  and  C_21
REMARK                            x       y       z     vdW  Elec       q    Type
REMARK                         _______ _______ _______ _____ _____    ______ ____
ROOT
ATOM      1  O   UNL     1     -11.760  -9.958  15.367  0.00  0.00    -0.253 OA
ATOM      2  N   UNL     1     -11.044 -10.188  17.548  0.00  0.00    -0.285 N 
ATOM      5  N   UNL     1     -11.774  -8.112  16.749  0.00  0.00    -0.297 N 
ATOM      6  C   UNL     1      -9.896 -11.938  18.676  0.00  0.00    +0.074 C 
ATOM      7  C   UNL     1     -10.451 -10.945  19.706  0.00  0.00    +0.032 C 
ATOM      8  C   UNL     1     -10.732 -11.608  17.433  0.00  0.00    +0.120 C 
ATOM      9  C   UNL     1     -10.753  -9.693  18.891  0.00  0.00    +0.110 C 
ATOM     11  C   UNL     1     -11.544  -9.455  16.473  0.00  0.00    +0.302 C 
ATOM     23  H   UNL     1     -11.485  -7.726  17.642  0.00  0.00    +0.150 HD
ENDROOT
BRANCH   6  10
ATOM      3  N   UNL     1      -7.817 -11.376  17.373  0.00  0.00    -0.342 N 
ATOM      4  N   UNL     1      -7.488 -12.086  19.452  0.00  0.00    -0.232 NA
ATOM     10  C   UNL     1      -8.388 -11.812  18.535  0.00  0.00    +0.113 A 
ATOM     12  C   UNL     1      -6.457 -11.369  17.551  0.00  0.00    +0.066 A 
ATOM     13  C   UNL     1      -6.277 -11.815  18.856  0.00  0.00    +0.089 A 
ATOM     15  C   UNL     1      -5.402 -11.020  16.708  0.00  0.00    +0.031 A 
ATOM     16  C   UNL     1      -4.974 -11.927  19.369  0.00  0.00    +0.030 A 
ATOM     17  C   UNL     1      -4.111 -11.137  17.234  0.00  0.00    -0.048 A 
ATOM     18  C   UNL     1      -3.898 -11.583  18.540  0.00  0.00    +0.005 A 
ATOM     21  C   UNL     1      -2.939 -10.777  16.381  0.00  0.00    +0.044 C 
ATOM     22  H   UNL     1      -8.307 -11.109  16.529  0.00  0.00    +0.167 HD
ENDBRANCH   6  10
BRANCH   5  14
ATOM     14  C   UNL     1     -12.288  -7.195  15.758  0.00  0.00    +0.068 C 
ATOM     19  C   UNL     1     -11.474  -5.908  15.754  0.00  0.00    +0.027 C 
ATOM     20  C   UNL     1     -13.765  -6.913  16.004  0.00  0.00    +0.027 C 
ENDBRANCH   5  14
TORSDOF 2
ENDMDL
