MODEL 1
REMARK VINA RESULT:      -7.8      0.000      0.000
REMARK  Name = 7134300
REMARK  7 active torsions:
REMARK  status: ('A' for Active; 'I' for Inactive)
REMARK    1  A    between atoms: N_7  and  C_12
REMARK    2  A    between atoms: N_8  and  C_20
REMARK    3  A    between atoms: C_13  and  C_17
REMARK    4  A    between atoms: C_18  and  C_21
REMARK    5  A    between atoms: C_19  and  C_22
REMARK    6  A    between atoms: C_20  and  C_23
REMARK    7  A    between atoms: C_20  and  C_25
REMARK                            x       y       z     vdW  Elec       q    Type
REMARK                         _______ _______ _______ _____ _____    ______ ____
ROOT
ATOM      2  O   UNL     1      11.080   7.907  20.385  0.00  0.00    -0.267 OA
ATOM      6  N   UNL     1      13.347   8.358  20.168  0.00  0.00    -0.283 N 
ATOM     12  C   UNL     1      16.075   7.921  21.133  0.00  0.00    +0.077 C 
ATOM     13  C   UNL     1      13.579   8.180  21.606  0.00  0.00    +0.164 C 
ATOM     14  C   UNL     1      14.868   7.430  21.936  0.00  0.00    +0.054 C 
ATOM     15  C   UNL     1      15.741   7.924  19.643  0.00  0.00    +0.041 C 
ATOM     16  C   UNL     1      14.504   8.768  19.354  0.00  0.00    +0.111 C 
ATOM     18  C   UNL     1      12.026   8.254  19.675  0.00  0.00    +0.283 C 
ENDROOT
BRANCH  18  21
ATOM      3  O   UNL     1      10.587   8.276  17.736  0.00  0.00    -0.458 OA
ATOM     21  C   UNL     1      11.801   8.575  18.270  0.00  0.00    +0.189 A 
ATOM     24  C   UNL     1      12.615   9.153  17.324  0.00  0.00    +0.054 A 
ATOM     26  C   UNL     1      11.854   9.214  16.132  0.00  0.00    +0.042 A 
ATOM     27  C   UNL     1      10.628   8.668  16.435  0.00  0.00    +0.196 A 
ENDBRANCH  18  21
BRANCH  13  17
ATOM      1  O   UNL     1      14.568  10.220  22.359  0.00  0.00    -0.274 OA
ATOM      8  N   UNL     1      12.271   9.930  22.593  0.00  0.00    -0.303 N 
ATOM     17  C   UNL     1      13.548   9.552  22.214  0.00  0.00    +0.234 C 
ATOM     32  H   UNL     1      11.489   9.313  22.392  0.00  0.00    +0.149 HD
BRANCH   8  20
ATOM     20  C   UNL     1      11.975  11.196  23.224  0.00  0.00    +0.156 C 
ATOM     23  C   UNL     1      11.032  11.012  24.403  0.00  0.00    +0.038 C 
BRANCH  20  25
ATOM      5  O   UNL     1      11.710  12.130  20.998  0.00  0.00    -0.274 OA
ATOM     10  N   UNL     1      10.358  12.908  22.684  0.00  0.00    -0.328 N 
ATOM     25  C   UNL     1      11.368  12.117  22.178  0.00  0.00    +0.231 C 
ATOM     33  H   UNL     1       9.859  13.560  22.088  0.00  0.00    +0.145 HD
ATOM     34  H   UNL     1      10.071  12.871  23.657  0.00  0.00    +0.145 HD
ENDBRANCH  20  25
ENDBRANCH   8  20
ENDBRANCH  13  17
BRANCH  12   7
ATOM      4  O   UNL     1      18.807   8.798  21.237  0.00  0.00    -0.268 OA
ATOM      7  N   UNL     1      17.233   7.102  21.396  0.00  0.00    -0.307 N 
ATOM     19  C   UNL     1      18.520   7.618  21.427  0.00  0.00    +0.264 C 
ATOM     31  H   UNL     1      17.093   6.117  21.606  0.00  0.00    +0.149 HD
BRANCH  19  22
ATOM      9  N   UNL     1      19.980   5.862  20.651  0.00  0.00    -0.247 NA
ATOM     11  N   UNL     1      21.188   5.654  23.173  0.00  0.00    -0.259 NA
ATOM     22  C   UNL     1      19.608   6.640  21.687  0.00  0.00    +0.143 A 
ATOM     28  C   UNL     1      20.201   6.538  22.926  0.00  0.00    +0.143 A 
ATOM     29  C   UNL     1      20.966   4.979  20.899  0.00  0.00    +0.131 A 
ATOM     30  C   UNL     1      21.560   4.877  22.138  0.00  0.00    +0.130 A 
ENDBRANCH  19  22
ENDBRANCH  12   7
TORSDOF 6
ENDMDL
MODEL 2
REMARK VINA RESULT:      -7.8      1.793      4.350
REMARK  Name = 7134300
REMARK  7 active torsions:
REMARK  status: ('A' for Active; 'I' for Inactive)
REMARK    1  A    between atoms: N_7  and  C_12
REMARK    2  A    between atoms: N_8  and  C_20
REMARK    3  A    between atoms: C_13  and  C_17
REMARK    4  A    between atoms: C_18  and  C_21
REMARK    5  A    between atoms: C_19  and  C_22
REMARK    6  A    between atoms: C_20  and  C_23
REMARK    7  A    between atoms: C_20  and  C_25
REMARK                            x       y       z     vdW  Elec       q    Type
REMARK                         _______ _______ _______ _____ _____    ______ ____
ROOT
ATOM      2  O   UNL     1      13.300  11.406  20.135  0.00  0.00    -0.267 OA
ATOM      6  N   UNL     1      14.031   9.299  20.780  0.00  0.00    -0.283 N 
ATOM     12  C   UNL     1      16.210   7.350  20.901  0.00  0.00    +0.077 C 
ATOM     13  C   UNL     1      14.995   9.232  19.676  0.00  0.00    +0.164 C 
ATOM     14  C   UNL     1      16.341   8.626  20.067  0.00  0.00    +0.054 C 
ATOM     15  C   UNL     1      15.290   7.602  22.094  0.00  0.00    +0.041 C 
ATOM     16  C   UNL     1      13.925   8.110  21.643  0.00  0.00    +0.111 C 
ATOM     18  C   UNL     1      13.183  10.427  20.875  0.00  0.00    +0.283 C 
ENDROOT
BRANCH  18  21
ATOM      3  O   UNL     1      12.267  11.245  22.953  0.00  0.00    -0.458 OA
ATOM     21  C   UNL     1      12.138  10.404  21.893  0.00  0.00    +0.189 A 
ATOM     24  C   UNL     1      10.985   9.663  22.002  0.00  0.00    +0.054 A 
ATOM     26  C   UNL     1      10.364  10.074  23.205  0.00  0.00    +0.042 A 
ATOM     27  C   UNL     1      11.183  11.037  23.747  0.00  0.00    +0.196 A 
ENDBRANCH  18  21
BRANCH  13  17
ATOM      1  O   UNL     1      14.747   7.375  18.195  0.00  0.00    -0.274 OA
ATOM      8  N   UNL     1      13.233   9.137  18.053  0.00  0.00    -0.303 N 
ATOM     17  C   UNL     1      14.326   8.465  18.573  0.00  0.00    +0.234 C 
ATOM     32  H   UNL     1      12.948  10.020  18.468  0.00  0.00    +0.149 HD
BRANCH   8  20
ATOM     20  C   UNL     1      12.431   8.622  16.967  0.00  0.00    +0.156 C 
ATOM     23  C   UNL     1      12.478   9.551  15.764  0.00  0.00    +0.038 C 
BRANCH  20  25
ATOM      5  O   UNL     1      10.693   8.468  18.657  0.00  0.00    -0.274 OA
ATOM     10  N   UNL     1      10.091   8.321  16.445  0.00  0.00    -0.328 N 
ATOM     25  C   UNL     1      11.006   8.452  17.469  0.00  0.00    +0.231 C 
ATOM     33  H   UNL     1       9.102   8.213  16.642  0.00  0.00    +0.145 HD
ATOM     34  H   UNL     1      10.361   8.332  15.467  0.00  0.00    +0.145 HD
ENDBRANCH  20  25
ENDBRANCH   8  20
ENDBRANCH  13  17
BRANCH  12   7
ATOM      4  O   UNL     1      18.154   5.937  19.329  0.00  0.00    -0.268 OA
ATOM      7  N   UNL     1      17.505   6.890  21.341  0.00  0.00    -0.307 N 
ATOM     19  C   UNL     1      18.380   6.213  20.505  0.00  0.00    +0.264 C 
ATOM     31  H   UNL     1      17.800   7.108  22.290  0.00  0.00    +0.149 HD
BRANCH  19  22
ATOM      9  N   UNL     1      20.422   4.935  20.396  0.00  0.00    -0.247 NA
ATOM     11  N   UNL     1      21.217   5.854  22.923  0.00  0.00    -0.259 NA
ATOM     22  C   UNL     1      19.664   5.784  21.117  0.00  0.00    +0.143 A 
ATOM     28  C   UNL     1      20.055   6.236  22.358  0.00  0.00    +0.143 A 
ATOM     29  C   UNL     1      21.585   4.553  20.961  0.00  0.00    +0.131 A 
ATOM     30  C   UNL     1      21.975   5.004  22.203  0.00  0.00    +0.130 A 
ENDBRANCH  19  22
ENDBRANCH  12   7
TORSDOF 6
ENDMDL
MODEL 3
REMARK VINA RESULT:      -7.7      2.603      3.362
REMARK  Name = 7134300
REMARK  7 active torsions:
REMARK  status: ('A' for Active; 'I' for Inactive)
REMARK    1  A    between atoms: N_7  and  C_12
REMARK    2  A    between atoms: N_8  and  C_20
REMARK    3  A    between atoms: C_13  and  C_17
REMARK    4  A    between atoms: C_18  and  C_21
REMARK    5  A    between atoms: C_19  and  C_22
REMARK    6  A    between atoms: C_20  and  C_23
REMARK    7  A    between atoms: C_20  and  C_25
REMARK                            x       y       z     vdW  Elec       q    Type
REMARK                         _______ _______ _______ _____ _____    ______ ____
ROOT
ATOM      2  O   UNL     1      13.286   8.168  17.677  0.00  0.00    -0.267 OA
ATOM      6  N   UNL     1      14.955   8.386  19.276  0.00  0.00    -0.283 N 
ATOM     12  C   UNL     1      17.103   7.132  20.817  0.00  0.00    +0.077 C 
ATOM     13  C   UNL     1      14.813   6.987  19.697  0.00  0.00    +0.164 C 
ATOM     14  C   UNL     1      16.142   6.289  19.977  0.00  0.00    +0.054 C 
ATOM     15  C   UNL     1      17.267   8.514  20.188  0.00  0.00    +0.041 C 
ATOM     16  C   UNL     1      15.920   9.211  20.023  0.00  0.00    +0.111 C 
ATOM     18  C   UNL     1      14.083   8.888  18.283  0.00  0.00    +0.283 C 
ENDROOT
BRANCH  18  21
ATOM      3  O   UNL     1      14.976  10.717  16.986  0.00  0.00    -0.458 OA
ATOM     21  C   UNL     1      14.147  10.315  17.984  0.00  0.00    +0.189 A 
ATOM     24  C   UNL     1      13.501  11.394  18.541  0.00  0.00    +0.054 A 
ATOM     26  C   UNL     1      13.962  12.533  17.840  0.00  0.00    +0.042 A 
ATOM     27  C   UNL     1      14.858  12.069  16.904  0.00  0.00    +0.196 A 
ENDBRANCH  18  21
BRANCH  13  17
ATOM      1  O   UNL     1      14.307   7.353  22.003  0.00  0.00    -0.274 OA
ATOM      8  N   UNL     1      12.638   6.538  20.600  0.00  0.00    -0.303 N 
ATOM     17  C   UNL     1      13.911   6.994  20.897  0.00  0.00    +0.234 C 
ATOM     32  H   UNL     1      12.406   6.301  19.640  0.00  0.00    +0.149 HD
BRANCH   8  20
ATOM     20  C   UNL     1      11.588   6.425  21.586  0.00  0.00    +0.156 C 
ATOM     23  C   UNL     1      10.913   5.065  21.513  0.00  0.00    +0.038 C 
BRANCH  20  25
ATOM      5  O   UNL     1      10.522   8.188  20.300  0.00  0.00    -0.274 OA
ATOM     10  N   UNL     1       9.728   7.732  22.407  0.00  0.00    -0.328 N 
ATOM     25  C   UNL     1      10.587   7.545  21.345  0.00  0.00    +0.231 C 
ATOM     33  H   UNL     1       9.003   8.440  22.370  0.00  0.00    +0.145 HD
ATOM     34  H   UNL     1       9.780   7.178  23.255  0.00  0.00    +0.145 HD
ENDBRANCH  20  25
ENDBRANCH   8  20
ENDBRANCH  13  17
BRANCH  12   7
ATOM      4  O   UNL     1      19.179   7.779  22.692  0.00  0.00    -0.268 OA
ATOM      7  N   UNL     1      18.381   6.475  20.949  0.00  0.00    -0.307 N 
ATOM     19  C   UNL     1      19.324   6.860  21.890  0.00  0.00    +0.264 C 
ATOM     31  H   UNL     1      18.578   5.675  20.353  0.00  0.00    +0.149 HD
BRANCH  19  22
ATOM      9  N   UNL     1      21.081   5.712  23.078  0.00  0.00    -0.247 NA
ATOM     11  N   UNL     1      22.413   5.120  20.683  0.00  0.00    -0.259 NA
ATOM     22  C   UNL     1      20.600   6.099  21.881  0.00  0.00    +0.143 A 
ATOM     28  C   UNL     1      21.255   5.809  20.704  0.00  0.00    +0.143 A 
ATOM     29  C   UNL     1      22.239   5.023  23.057  0.00  0.00    +0.131 A 
ATOM     30  C   UNL     1      22.893   4.732  21.880  0.00  0.00    +0.130 A 
ENDBRANCH  19  22
ENDBRANCH  12   7
TORSDOF 6
ENDMDL
MODEL 4
REMARK VINA RESULT:      -7.1      1.654      1.990
REMARK  Name = 7134300
REMARK  7 active torsions:
REMARK  status: ('A' for Active; 'I' for Inactive)
REMARK    1  A    between atoms: N_7  and  C_12
REMARK    2  A    between atoms: N_8  and  C_20
REMARK    3  A    between atoms: C_13  and  C_17
REMARK    4  A    between atoms: C_18  and  C_21
REMARK    5  A    between atoms: C_19  and  C_22
REMARK    6  A    between atoms: C_20  and  C_23
REMARK    7  A    between atoms: C_20  and  C_25
REMARK                            x       y       z     vdW  Elec       q    Type
REMARK                         _______ _______ _______ _____ _____    ______ ____
ROOT
ATOM      2  O   UNL     1      10.772   8.047  19.743  0.00  0.00    -0.267 OA
ATOM      6  N   UNL     1      12.908   8.943  19.899  0.00  0.00    -0.283 N 
ATOM     12  C   UNL     1      15.448   9.083  21.346  0.00  0.00    +0.077 C 
ATOM     13  C   UNL     1      12.906   8.840  21.363  0.00  0.00    +0.164 C 
ATOM     14  C   UNL     1      14.236   8.372  21.951  0.00  0.00    +0.054 C 
ATOM     15  C   UNL     1      15.395   8.993  19.822  0.00  0.00    +0.041 C 
ATOM     16  C   UNL     1      14.090   9.565  19.278  0.00  0.00    +0.111 C 
ATOM     18  C   UNL     1      11.744   8.566  19.190  0.00  0.00    +0.283 C 
ENDROOT
BRANCH  18  21
ATOM      3  O   UNL     1      12.896   9.102  17.137  0.00  0.00    -0.458 OA
ATOM     21  C   UNL     1      11.719   8.812  17.752  0.00  0.00    +0.189 A 
ATOM     24  C   UNL     1      10.687   8.809  16.844  0.00  0.00    +0.054 A 
ATOM     26  C   UNL     1      11.265   9.116  15.589  0.00  0.00    +0.042 A 
ATOM     27  C   UNL     1      12.610   9.286  15.820  0.00  0.00    +0.196 A 
ENDBRANCH  18  21
BRANCH  13  17
ATOM      1  O   UNL     1      11.904  11.001  21.181  0.00  0.00    -0.274 OA
ATOM      8  N   UNL     1      12.887  10.382  23.198  0.00  0.00    -0.303 N 
ATOM     17  C   UNL     1      12.497  10.187  21.884  0.00  0.00    +0.234 C 
ATOM     32  H   UNL     1      13.342   9.625  23.700  0.00  0.00    +0.149 HD
BRANCH   8  20
ATOM     20  C   UNL     1      12.634  11.605  23.925  0.00  0.00    +0.156 C 
ATOM     23  C   UNL     1      13.709  11.851  24.972  0.00  0.00    +0.038 C 
BRANCH  20  25
ATOM      5  O   UNL     1      11.060  10.997  25.672  0.00  0.00    -0.274 OA
ATOM     10  N   UNL     1      10.266  12.069  23.802  0.00  0.00    -0.328 N 
ATOM     25  C   UNL     1      11.260  11.500  24.568  0.00  0.00    +0.231 C 
ATOM     33  H   UNL     1       9.303  12.078  24.121  0.00  0.00    +0.145 HD
ATOM     34  H   UNL     1      10.450  12.500  22.901  0.00  0.00    +0.145 HD
ENDBRANCH  20  25
ENDBRANCH   8  20
ENDBRANCH  13  17
BRANCH  12   7
ATOM      4  O   UNL     1      18.066  10.247  21.171  0.00  0.00    -0.268 OA
ATOM      7  N   UNL     1      16.677   8.519  21.849  0.00  0.00    -0.307 N 
ATOM     19  C   UNL     1      17.900   9.160  21.718  0.00  0.00    +0.264 C 
ATOM     31  H   UNL     1      16.635   7.638  22.354  0.00  0.00    +0.149 HD
BRANCH  19  22
ATOM      9  N   UNL     1      19.132   7.111  22.033  0.00  0.00    -0.247 NA
ATOM     11  N   UNL     1      21.126   8.449  23.482  0.00  0.00    -0.259 NA
ATOM     22  C   UNL     1      19.076   8.437  22.267  0.00  0.00    +0.143 A 
ATOM     28  C   UNL     1      20.055   9.094  22.979  0.00  0.00    +0.143 A 
ATOM     29  C   UNL     1      20.203   6.466  22.537  0.00  0.00    +0.131 A 
ATOM     30  C   UNL     1      21.182   7.123  23.249  0.00  0.00    +0.130 A 
ENDBRANCH  19  22
ENDBRANCH  12   7
TORSDOF 6
ENDMDL
MODEL 5
REMARK VINA RESULT:      -6.7      2.220      5.091
REMARK  Name = 7134300
REMARK  7 active torsions:
REMARK  status: ('A' for Active; 'I' for Inactive)
REMARK    1  A    between atoms: N_7  and  C_12
REMARK    2  A    between atoms: N_8  and  C_20
REMARK    3  A    between atoms: C_13  and  C_17
REMARK    4  A    between atoms: C_18  and  C_21
REMARK    5  A    between atoms: C_19  and  C_22
REMARK    6  A    between atoms: C_20  and  C_23
REMARK    7  A    between atoms: C_20  and  C_25
REMARK                            x       y       z     vdW  Elec       q    Type
REMARK                         _______ _______ _______ _____ _____    ______ ____
ROOT
ATOM      2  O   UNL     1      13.341  13.079  21.035  0.00  0.00    -0.267 OA
ATOM      6  N   UNL     1      13.866  10.846  21.394  0.00  0.00    -0.283 N 
ATOM     12  C   UNL     1      15.751   8.641  21.013  0.00  0.00    +0.077 C 
ATOM     13  C   UNL     1      14.633  10.767  20.146  0.00  0.00    +0.164 C 
ATOM     14  C   UNL     1      15.928   9.965  20.266  0.00  0.00    +0.054 C 
ATOM     15  C   UNL     1      15.065   8.889  22.355  0.00  0.00    +0.041 C 
ATOM     16  C   UNL     1      13.730   9.602  22.171  0.00  0.00    +0.111 C 
ATOM     18  C   UNL     1      13.204  12.055  21.709  0.00  0.00    +0.283 C 
ENDROOT
BRANCH  18  21
ATOM      3  O   UNL     1      12.896  12.324  24.088  0.00  0.00    -0.458 OA
ATOM     21  C   UNL     1      12.333  12.065  22.879  0.00  0.00    +0.189 A 
ATOM     24  C   UNL     1      10.980  11.853  23.011  0.00  0.00    +0.054 A 
ATOM     26  C   UNL     1      10.693  11.991  24.390  0.00  0.00    +0.042 A 
ATOM     27  C   UNL     1      11.891  12.277  25.003  0.00  0.00    +0.196 A 
ENDBRANCH  18  21
BRANCH  13  17
ATOM      1  O   UNL     1      12.486  10.222  19.251  0.00  0.00    -0.274 OA
ATOM      8  N   UNL     1      14.390   9.643  18.043  0.00  0.00    -0.303 N 
ATOM     17  C   UNL     1      13.706  10.197  19.112  0.00  0.00    +0.234 C 
ATOM     32  H   UNL     1      15.403   9.710  18.011  0.00  0.00    +0.149 HD
BRANCH   8  20
ATOM     20  C   UNL     1      13.729   9.009  16.925  0.00  0.00    +0.156 C 
ATOM     23  C   UNL     1      14.169   7.560  16.780  0.00  0.00    +0.038 C 
BRANCH  20  25
ATOM      5  O   UNL     1      14.889   9.460  14.838  0.00  0.00    -0.274 OA
ATOM     10  N   UNL     1      13.270  10.933  15.536  0.00  0.00    -0.328 N 
ATOM     25  C   UNL     1      14.051   9.804  15.669  0.00  0.00    +0.231 C 
ATOM     33  H   UNL     1      13.374  11.546  14.736  0.00  0.00    +0.145 HD
ATOM     34  H   UNL     1      12.566  11.193  16.220  0.00  0.00    +0.145 HD
ENDBRANCH  20  25
ENDBRANCH   8  20
ENDBRANCH  13  17
BRANCH  12   7
ATOM      4  O   UNL     1      16.726   6.349  19.584  0.00  0.00    -0.268 OA
ATOM      7  N   UNL     1      17.022   7.985  21.201  0.00  0.00    -0.307 N 
ATOM     19  C   UNL     1      17.408   6.878  20.458  0.00  0.00    +0.264 C 
ATOM     31  H   UNL     1      17.674   8.375  21.877  0.00  0.00    +0.149 HD
BRANCH  19  22
ATOM      9  N   UNL     1      19.175   5.302  20.003  0.00  0.00    -0.247 NA
ATOM     11  N   UNL     1      20.685   6.260  22.161  0.00  0.00    -0.259 NA
ATOM     22  C   UNL     1      18.737   6.303  20.790  0.00  0.00    +0.143 A 
ATOM     28  C   UNL     1      19.479   6.774  21.851  0.00  0.00    +0.143 A 
ATOM     29  C   UNL     1      20.381   4.788  20.313  0.00  0.00    +0.131 A 
ATOM     30  C   UNL     1      21.123   5.259  21.374  0.00  0.00    +0.130 A 
ENDBRANCH  19  22
ENDBRANCH  12   7
TORSDOF 6
ENDMDL
MODEL 6
REMARK VINA RESULT:      -6.7     14.705     18.772
REMARK  Name = 7134300
REMARK  7 active torsions:
REMARK  status: ('A' for Active; 'I' for Inactive)
REMARK    1  A    between atoms: N_7  and  C_12
REMARK    2  A    between atoms: N_8  and  C_20
REMARK    3  A    between atoms: C_13  and  C_17
REMARK    4  A    between atoms: C_18  and  C_21
REMARK    5  A    between atoms: C_19  and  C_22
REMARK    6  A    between atoms: C_20  and  C_23
REMARK    7  A    between atoms: C_20  and  C_25
REMARK                            x       y       z     vdW  Elec       q    Type
REMARK                         _______ _______ _______ _____ _____    ______ ____
ROOT
ATOM      2  O   UNL     1      12.374   6.932   7.334  0.00  0.00    -0.267 OA
ATOM      6  N   UNL     1      11.056   6.249   5.549  0.00  0.00    -0.283 N 
ATOM     12  C   UNL     1      10.871   5.574   2.708  0.00  0.00    +0.077 C 
ATOM     13  C   UNL     1      11.886   6.979   4.583  0.00  0.00    +0.164 C 
ATOM     14  C   UNL     1      12.135   6.217   3.283  0.00  0.00    +0.054 C 
ATOM     15  C   UNL     1      10.183   4.732   3.780  0.00  0.00    +0.041 C 
ATOM     16  C   UNL     1       9.865   5.563   5.018  0.00  0.00    +0.111 C 
ATOM     18  C   UNL     1      11.368   6.349   6.924  0.00  0.00    +0.283 C 
ENDROOT
BRANCH  18  21
ATOM      3  O   UNL     1      10.606   4.413   8.148  0.00  0.00    -0.458 OA
ATOM     21  C   UNL     1      10.446   5.734   7.873  0.00  0.00    +0.189 A 
ATOM     24  C   UNL     1       9.389   6.251   8.585  0.00  0.00    +0.054 A 
ATOM     26  C   UNL     1       8.866   5.179   9.348  0.00  0.00    +0.042 A 
ATOM     27  C   UNL     1       9.640   4.083   9.046  0.00  0.00    +0.196 A 
ENDBRANCH  18  21
BRANCH  13  17
ATOM      1  O   UNL     1      11.353   8.924   3.303  0.00  0.00    -0.274 OA
ATOM      8  N   UNL     1      10.444   8.695   5.434  0.00  0.00    -0.303 N 
ATOM     17  C   UNL     1      11.206   8.296   4.348  0.00  0.00    +0.234 C 
ATOM     32  H   UNL     1      10.361   8.079   6.237  0.00  0.00    +0.149 HD
BRANCH   8  20
ATOM     20  C   UNL     1       9.708   9.938   5.469  0.00  0.00    +0.156 C 
ATOM     23  C   UNL     1       9.518  10.421   6.898  0.00  0.00    +0.038 C 
BRANCH  20  25
ATOM      5  O   UNL     1       8.037  10.258   3.735  0.00  0.00    -0.274 OA
ATOM     10  N   UNL     1       7.575   8.800   5.449  0.00  0.00    -0.328 N 
ATOM     25  C   UNL     1       8.367   9.714   4.787  0.00  0.00    +0.231 C 
ATOM     33  H   UNL     1       6.659   8.550   5.093  0.00  0.00    +0.145 HD
ATOM     34  H   UNL     1       7.871   8.342   6.306  0.00  0.00    +0.145 HD
ENDBRANCH  20  25
ENDBRANCH   8  20
ENDBRANCH  13  17
BRANCH  12   7
ATOM      4  O   UNL     1       9.994   6.034   0.012  0.00  0.00    -0.268 OA
ATOM      7  N   UNL     1      11.186   4.772   1.550  0.00  0.00    -0.307 N 
ATOM     19  C   UNL     1      10.714   5.075   0.281  0.00  0.00    +0.264 C 
ATOM     31  H   UNL     1      11.809   3.977   1.666  0.00  0.00    +0.149 HD
BRANCH  19  22
ATOM      9  N   UNL     1      10.261   4.031  -1.845  0.00  0.00    -0.247 NA
ATOM     11  N   UNL     1      12.643   2.557  -1.709  0.00  0.00    -0.259 NA
ATOM     22  C   UNL     1      11.106   4.136  -0.801  0.00  0.00    +0.143 A 
ATOM     28  C   UNL     1      12.277   3.412  -0.734  0.00  0.00    +0.143 A 
ATOM     29  C   UNL     1      10.628   3.176  -2.820  0.00  0.00    +0.131 A 
ATOM     30  C   UNL     1      11.798   2.452  -2.753  0.00  0.00    +0.130 A 
ENDBRANCH  19  22
ENDBRANCH  12   7
TORSDOF 6
ENDMDL
MODEL 7
REMARK VINA RESULT:      -6.7     27.509     30.324
REMARK  Name = 7134300
REMARK  7 active torsions:
REMARK  status: ('A' for Active; 'I' for Inactive)
REMARK    1  A    between atoms: N_7  and  C_12
REMARK    2  A    between atoms: N_8  and  C_20
REMARK    3  A    between atoms: C_13  and  C_17
REMARK    4  A    between atoms: C_18  and  C_21
REMARK    5  A    between atoms: C_19  and  C_22
REMARK    6  A    between atoms: C_20  and  C_23
REMARK    7  A    between atoms: C_20  and  C_25
REMARK                            x       y       z     vdW  Elec       q    Type
REMARK                         _______ _______ _______ _____ _____    ______ ____
ROOT
ATOM      2  O   UNL     1      -2.606 -10.709  16.698  0.00  0.00    -0.267 OA
ATOM      6  N   UNL     1      -4.718 -10.928  15.759  0.00  0.00    -0.283 N 
ATOM     12  C   UNL     1      -7.483  -9.982  15.607  0.00  0.00    +0.077 C 
ATOM     13  C   UNL     1      -5.371 -10.425  16.973  0.00  0.00    +0.164 C 
ATOM     14  C   UNL     1      -6.538  -9.477  16.700  0.00  0.00    +0.054 C 
ATOM     15  C   UNL     1      -6.685 -10.336  14.354  0.00  0.00    +0.041 C 
ATOM     16  C   UNL     1      -5.599 -11.362  14.661  0.00  0.00    +0.111 C 
ATOM     18  C   UNL     1      -3.313 -11.085  15.760  0.00  0.00    +0.283 C 
ENDROOT
BRANCH  18  21
ATOM      3  O   UNL     1      -2.527 -13.066  14.627  0.00  0.00    -0.458 OA
ATOM     21  C   UNL     1      -2.703 -11.719  14.596  0.00  0.00    +0.189 A 
ATOM     24  C   UNL     1      -2.244 -11.199  13.409  0.00  0.00    +0.054 A 
ATOM     26  C   UNL     1      -1.756 -12.296  12.660  0.00  0.00    +0.042 A 
ATOM     27  C   UNL     1      -1.950 -13.409  13.445  0.00  0.00    +0.196 A 
ENDBRANCH  18  21
BRANCH  13  17
ATOM      1  O   UNL     1      -5.026 -12.567  17.974  0.00  0.00    -0.274 OA
ATOM      8  N   UNL     1      -7.114 -11.556  18.169  0.00  0.00    -0.303 N 
ATOM     17  C   UNL     1      -5.793 -11.632  17.760  0.00  0.00    +0.234 C 
ATOM     32  H   UNL     1      -7.650 -10.717  17.969  0.00  0.00    +0.149 HD
BRANCH   8  20
ATOM     20  C   UNL     1      -7.769 -12.601  18.922  0.00  0.00    +0.156 C 
ATOM     23  C   UNL     1      -8.238 -13.722  18.008  0.00  0.00    +0.038 C 
BRANCH  20  25
ATOM      5  O   UNL     1      -9.716 -12.626  20.376  0.00  0.00    -0.274 OA
ATOM     10  N   UNL     1      -9.012 -10.615  19.516  0.00  0.00    -0.328 N 
ATOM     25  C   UNL     1      -8.940 -11.983  19.672  0.00  0.00    +0.231 C 
ATOM     33  H   UNL     1      -9.740 -10.077  19.974  0.00  0.00    +0.145 HD
ATOM     34  H   UNL     1      -8.350 -10.095  18.949  0.00  0.00    +0.145 HD
ENDBRANCH  20  25
ENDBRANCH   8  20
ENDBRANCH  13  17
BRANCH  12   7
ATOM      4  O   UNL     1     -10.082  -9.771  16.809  0.00  0.00    -0.268 OA
ATOM      7  N   UNL     1      -8.493  -8.995  15.308  0.00  0.00    -0.307 N 
ATOM     19  C   UNL     1      -9.725  -8.973  15.945  0.00  0.00    +0.264 C 
ATOM     31  H   UNL     1      -8.275  -8.267  14.633  0.00  0.00    +0.149 HD
BRANCH  19  22
ATOM      9  N   UNL     1     -10.678  -6.777  16.236  0.00  0.00    -0.247 NA
ATOM     11  N   UNL     1     -12.337  -7.122  14.002  0.00  0.00    -0.259 NA
ATOM     22  C   UNL     1     -10.665  -7.910  15.507  0.00  0.00    +0.143 A 
ATOM     28  C   UNL     1     -11.481  -8.080  14.409  0.00  0.00    +0.143 A 
ATOM     29  C   UNL     1     -11.534  -5.820  15.829  0.00  0.00    +0.131 A 
ATOM     30  C   UNL     1     -12.350  -5.990  14.731  0.00  0.00    +0.130 A 
ENDBRANCH  19  22
ENDBRANCH  12   7
TORSDOF 6
ENDMDL
MODEL 8
REMARK VINA RESULT:      -6.7      2.023      7.910
REMARK  Name = 7134300
REMARK  7 active torsions:
REMARK  status: ('A' for Active; 'I' for Inactive)
REMARK    1  A    between atoms: N_7  and  C_12
REMARK    2  A    between atoms: N_8  and  C_20
REMARK    3  A    between atoms: C_13  and  C_17
REMARK    4  A    between atoms: C_18  and  C_21
REMARK    5  A    between atoms: C_19  and  C_22
REMARK    6  A    between atoms: C_20  and  C_23
REMARK    7  A    between atoms: C_20  and  C_25
REMARK                            x       y       z     vdW  Elec       q    Type
REMARK                         _______ _______ _______ _____ _____    ______ ____
ROOT
ATOM      2  O   UNL     1      16.667   5.886  21.301  0.00  0.00    -0.267 OA
ATOM      6  N   UNL     1      16.128   8.143  21.235  0.00  0.00    -0.283 N 
ATOM     12  C   UNL     1      14.184  10.254  21.806  0.00  0.00    +0.077 C 
ATOM     13  C   UNL     1      14.696   7.855  21.097  0.00  0.00    +0.164 C 
ATOM     14  C   UNL     1      13.798   8.778  21.919  0.00  0.00    +0.054 C 
ATOM     15  C   UNL     1      15.670  10.427  22.111  0.00  0.00    +0.041 C 
ATOM     16  C   UNL     1      16.528   9.561  21.195  0.00  0.00    +0.111 C 
ATOM     18  C   UNL     1      17.038   7.062  21.269  0.00  0.00    +0.283 C 
ENDROOT
BRANCH  18  21
ATOM      3  O   UNL     1      18.903   8.345  22.107  0.00  0.00    -0.458 OA
ATOM     21  C   UNL     1      18.463   7.376  21.261  0.00  0.00    +0.189 A 
ATOM     24  C   UNL     1      19.507   6.861  20.531  0.00  0.00    +0.054 A 
ATOM     26  C   UNL     1      20.665   7.556  20.954  0.00  0.00    +0.042 A 
ATOM     27  C   UNL     1      20.245   8.448  21.913  0.00  0.00    +0.196 A 
ENDBRANCH  18  21
BRANCH  13  17
ATOM      1  O   UNL     1      15.203   7.575  18.780  0.00  0.00    -0.274 OA
ATOM      8  N   UNL     1      13.124   8.432  19.382  0.00  0.00    -0.303 N 
ATOM     17  C   UNL     1      14.388   7.923  19.630  0.00  0.00    +0.234 C 
ATOM     32  H   UNL     1      12.515   8.655  20.163  0.00  0.00    +0.149 HD
BRANCH   8  20
ATOM     20  C   UNL     1      12.595   8.621  18.050  0.00  0.00    +0.156 C 
ATOM     23  C   UNL     1      12.961   9.993  17.506  0.00  0.00    +0.038 C 
BRANCH  20  25
ATOM      5  O   UNL     1      10.447   8.369  19.158  0.00  0.00    -0.274 OA
ATOM     10  N   UNL     1      10.501   8.418  16.861  0.00  0.00    -0.328 N 
ATOM     25  C   UNL     1      11.086   8.443  18.110  0.00  0.00    +0.231 C 
ATOM     33  H   UNL     1       9.497   8.316  16.759  0.00  0.00    +0.145 HD
ATOM     34  H   UNL     1      11.039   8.502  16.005  0.00  0.00    +0.145 HD
ENDBRANCH  20  25
ENDBRANCH   8  20
ENDBRANCH  13  17
BRANCH  12   7
ATOM      4  O   UNL     1      11.860  11.786  21.099  0.00  0.00    -0.268 OA
ATOM      7  N   UNL     1      13.382  11.063  22.693  0.00  0.00    -0.307 N 
ATOM     19  C   UNL     1      12.271  11.771  22.257  0.00  0.00    +0.264 C 
ATOM     31  H   UNL     1      13.621  11.081  23.681  0.00  0.00    +0.149 HD
BRANCH  19  22
ATOM      9  N   UNL     1      11.471  13.900  23.057  0.00  0.00    -0.247 NA
ATOM     11  N   UNL     1      10.402  12.713  25.362  0.00  0.00    -0.259 NA
ATOM     22  C   UNL     1      11.567  12.576  23.288  0.00  0.00    +0.143 A 
ATOM     28  C   UNL     1      11.042  11.992  24.420  0.00  0.00    +0.143 A 
ATOM     29  C   UNL     1      10.831  14.620  23.999  0.00  0.00    +0.131 A 
ATOM     30  C   UNL     1      10.305  14.036  25.132  0.00  0.00    +0.130 A 
ENDBRANCH  19  22
ENDBRANCH  12   7
TORSDOF 6
ENDMDL
MODEL 9
REMARK VINA RESULT:      -6.5     27.797     30.583
REMARK  Name = 7134300
REMARK  7 active torsions:
REMARK  status: ('A' for Active; 'I' for Inactive)
REMARK    1  A    between atoms: N_7  and  C_12
REMARK    2  A    between atoms: N_8  and  C_20
REMARK    3  A    between atoms: C_13  and  C_17
REMARK    4  A    between atoms: C_18  and  C_21
REMARK    5  A    between atoms: C_19  and  C_22
REMARK    6  A    between atoms: C_20  and  C_23
REMARK    7  A    between atoms: C_20  and  C_25
REMARK                            x       y       z     vdW  Elec       q    Type
REMARK                         _______ _______ _______ _____ _____    ______ ____
ROOT
ATOM      2  O   UNL     1      -9.907 -12.820  18.676  0.00  0.00    -0.267 OA
ATOM      6  N   UNL     1      -9.283 -10.896  17.537  0.00  0.00    -0.283 N 
ATOM     12  C   UNL     1      -7.949  -9.695  15.226  0.00  0.00    +0.077 C 
ATOM     13  C   UNL     1      -8.088 -11.543  16.982  0.00  0.00    +0.164 C 
ATOM     14  C   UNL     1      -7.817 -11.190  15.521  0.00  0.00    +0.054 C 
ATOM     15  C   UNL     1      -9.296  -9.183  15.732  0.00  0.00    +0.041 C 
ATOM     16  C   UNL     1      -9.475  -9.470  17.218  0.00  0.00    +0.111 C 
ATOM     18  C   UNL     1     -10.097 -11.626  18.433  0.00  0.00    +0.283 C 
ENDROOT
BRANCH  18  21
ATOM      3  O   UNL     1     -10.940 -10.298  20.263  0.00  0.00    -0.458 OA
ATOM     21  C   UNL     1     -11.195 -10.917  19.081  0.00  0.00    +0.189 A 
ATOM     24  C   UNL     1     -12.508 -10.739  18.715  0.00  0.00    +0.054 A 
ATOM     26  C   UNL     1     -13.100  -9.959  19.738  0.00  0.00    +0.042 A 
ATOM     27  C   UNL     1     -12.105  -9.718  20.657  0.00  0.00    +0.196 A 
ENDBRANCH  18  21
BRANCH  13  17
ATOM      1  O   UNL     1      -7.127 -10.650  18.978  0.00  0.00    -0.274 OA
ATOM      8  N   UNL     1      -5.716 -11.449  17.308  0.00  0.00    -0.303 N 
ATOM     17  C   UNL     1      -6.945 -11.167  17.879  0.00  0.00    +0.234 C 
ATOM     32  H   UNL     1      -5.680 -11.914  16.406  0.00  0.00    +0.149 HD
BRANCH   8  20
ATOM     20  C   UNL     1      -4.457 -11.161  17.958  0.00  0.00    +0.156 C 
ATOM     23  C   UNL     1      -3.361 -10.901  16.937  0.00  0.00    +0.038 C 
BRANCH  20  25
ATOM      5  O   UNL     1      -3.572 -12.227  19.954  0.00  0.00    -0.274 OA
ATOM     10  N   UNL     1      -4.482 -13.551  18.312  0.00  0.00    -0.328 N 
ATOM     25  C   UNL     1      -4.103 -12.340  18.851  0.00  0.00    +0.231 C 
ATOM     33  H   UNL     1      -4.315 -14.418  18.812  0.00  0.00    +0.145 HD
ATOM     34  H   UNL     1      -4.940 -13.628  17.409  0.00  0.00    +0.145 HD
ENDBRANCH  20  25
ENDBRANCH   8  20
ENDBRANCH  13  17
BRANCH  12   7
ATOM      4  O   UNL     1      -5.506  -9.758  13.718  0.00  0.00    -0.268 OA
ATOM      7  N   UNL     1      -7.800  -9.436  13.814  0.00  0.00    -0.307 N 
ATOM     19  C   UNL     1      -6.573  -9.491  13.170  0.00  0.00    +0.264 C 
ATOM     31  H   UNL     1      -8.636  -9.244  13.266  0.00  0.00    +0.149 HD
BRANCH  19  22
ATOM      9  N   UNL     1      -7.757  -9.334  11.075  0.00  0.00    -0.247 NA
ATOM     11  N   UNL     1      -5.448  -8.448   9.754  0.00  0.00    -0.259 NA
ATOM     22  C   UNL     1      -6.584  -9.174  11.719  0.00  0.00    +0.143 A 
ATOM     28  C   UNL     1      -5.450  -8.738  11.070  0.00  0.00    +0.143 A 
ATOM     29  C   UNL     1      -7.755  -9.044   9.759  0.00  0.00    +0.131 A 
ATOM     30  C   UNL     1      -6.620  -8.608   9.111  0.00  0.00    +0.130 A 
ENDBRANCH  19  22
ENDBRANCH  12   7
TORSDOF 6
ENDMDL
MODEL 10
REMARK VINA RESULT:      -6.4     31.184     32.805
REMARK  Name = 7134300
REMARK  7 active torsions:
REMARK  status: ('A' for Active; 'I' for Inactive)
REMARK    1  A    between atoms: N_7  and  C_12
REMARK    2  A    between atoms: N_8  and  C_20
REMARK    3  A    between atoms: C_13  and  C_17
REMARK    4  A    between atoms: C_18  and  C_21
REMARK    5  A    between atoms: C_19  and  C_22
REMARK    6  A    between atoms: C_20  and  C_23
REMARK    7  A    between atoms: C_20  and  C_25
REMARK                            x       y       z     vdW  Elec       q    Type
REMARK                         _______ _______ _______ _____ _____    ______ ____
ROOT
ATOM      2  O   UNL     1     -12.006  -2.936  12.665  0.00  0.00    -0.267 OA
ATOM      6  N   UNL     1     -12.119  -4.629  11.081  0.00  0.00    -0.283 N 
ATOM     12  C   UNL     1     -11.205  -5.701   8.516  0.00  0.00    +0.077 C 
ATOM     13  C   UNL     1     -11.810  -3.702   9.986  0.00  0.00    +0.164 C 
ATOM     14  C   UNL     1     -10.850  -4.275   8.944  0.00  0.00    +0.054 C 
ATOM     15  C   UNL     1     -11.360  -6.589   9.749  0.00  0.00    +0.041 C 
ATOM     16  C   UNL     1     -12.402  -6.026  10.709  0.00  0.00    +0.111 C 
ATOM     18  C   UNL     1     -12.252  -4.112  12.390  0.00  0.00    +0.283 C 
ENDROOT
BRANCH  18  21
ATOM      3  O   UNL     1     -14.030  -5.293  13.517  0.00  0.00    -0.458 OA
ATOM     21  C   UNL     1     -12.700  -5.026  13.435  0.00  0.00    +0.189 A 
ATOM     24  C   UNL     1     -12.009  -5.710  14.407  0.00  0.00    +0.054 A 
ATOM     26  C   UNL     1     -12.976  -6.446  15.134  0.00  0.00    +0.042 A 
ATOM     27  C   UNL     1     -14.189  -6.158  14.555  0.00  0.00    +0.196 A 
ENDBRANCH  18  21
BRANCH  13  17
ATOM      1  O   UNL     1     -13.220  -2.943   8.214  0.00  0.00    -0.274 OA
ATOM      8  N   UNL     1     -14.161  -3.360  10.301  0.00  0.00    -0.303 N 
ATOM     17  C   UNL     1     -13.125  -3.299   9.385  0.00  0.00    +0.234 C 
ATOM     32  H   UNL     1     -13.977  -3.706  11.238  0.00  0.00    +0.149 HD
BRANCH   8  20
ATOM     20  C   UNL     1     -15.523  -3.001   9.980  0.00  0.00    +0.156 C 
ATOM     23  C   UNL     1     -15.952  -1.752  10.734  0.00  0.00    +0.038 C 
BRANCH  20  25
ATOM      5  O   UNL     1     -17.450  -4.457   9.713  0.00  0.00    -0.274 OA
ATOM     10  N   UNL     1     -15.930  -4.937  11.367  0.00  0.00    -0.328 N 
ATOM     25  C   UNL     1     -16.420  -4.181  10.324  0.00  0.00    +0.231 C 
ATOM     33  H   UNL     1     -16.426  -5.761  11.689  0.00  0.00    +0.145 HD
ATOM     34  H   UNL     1     -15.066  -4.709  11.848  0.00  0.00    +0.145 HD
ENDBRANCH  20  25
ENDBRANCH   8  20
ENDBRANCH  13  17
BRANCH  12   7
ATOM      4  O   UNL     1     -11.668  -7.096   6.049  0.00  0.00    -0.268 OA
ATOM      7  N   UNL     1     -10.202  -6.233   7.625  0.00  0.00    -0.307 N 
ATOM     19  C   UNL     1     -10.524  -6.895   6.449  0.00  0.00    +0.264 C 
ATOM     31  H   UNL     1      -9.222  -6.080   7.852  0.00  0.00    +0.149 HD
BRANCH  19  22
ATOM      9  N   UNL     1      -8.327  -7.885   6.350  0.00  0.00    -0.247 NA
ATOM     11  N   UNL     1      -8.358  -7.846   3.546  0.00  0.00    -0.259 NA
ATOM     22  C   UNL     1      -9.377  -7.405   5.655  0.00  0.00    +0.143 A 
ATOM     28  C   UNL     1      -9.393  -7.386   4.277  0.00  0.00    +0.143 A 
ATOM     29  C   UNL     1      -7.293  -8.344   5.618  0.00  0.00    +0.131 A 
ATOM     30  C   UNL     1      -7.308  -8.325   4.241  0.00  0.00    +0.130 A 
ENDBRANCH  19  22
ENDBRANCH  12   7
TORSDOF 6
ENDMDL
