REMARK  Name = 7135392
REMARK  7 active torsions:
REMARK  status: ('A' for Active; 'I' for Inactive)
REMARK    1  A    between atoms: O_2  and  C_20
REMARK    2  A    between atoms: O_2  and  C_24
REMARK    3  A    between atoms: C_4  and  C_5
REMARK    4  A    between atoms: C_5  and  C_11
REMARK    5  A    between atoms: C_5  and  C_12
REMARK    6  A    between atoms: C_15  and  C_22
REMARK    7  A    between atoms: C_16  and  C_23
REMARK                            x       y       z     vdW  Elec       q    Type
REMARK                         _______ _______ _______ _____ _____    ______ ____
ROOT
ATOM      4  C   UNL     1      -0.609  -2.215  -0.909  0.00  0.00    +0.005 C 
ATOM      6  C   UNL     1       0.364  -3.217  -0.279  0.00  0.00    +0.009 C 
ATOM      7  C   UNL     1       0.178  -1.080  -1.582  0.00  0.00    +0.040 C 
ATOM      8  C   UNL     1       1.265  -2.571   0.773  0.00  0.00    +0.036 C 
ATOM      9  C   UNL     1       1.306  -0.528  -0.744  0.00  0.00    -0.037 A 
ATOM     10  C   UNL     1       1.844  -1.250   0.337  0.00  0.00    -0.041 A 
ATOM     15  C   UNL     1       1.869   0.709  -1.094  0.00  0.00    -0.005 A 
ATOM     16  C   UNL     1       2.910  -0.702   1.068  0.00  0.00    -0.044 A 
ATOM     20  C   UNL     1       2.934   1.238  -0.365  0.00  0.00    +0.124 A 
ATOM     21  C   UNL     1       3.453   0.533   0.717  0.00  0.00    +0.049 A 
ATOM     22  C   UNL     1       1.333   1.496  -2.251  0.00  0.00    +0.048 C 
ATOM     23  C   UNL     1       3.507  -1.420   2.237  0.00  0.00    +0.044 C 
ENDROOT
BRANCH  20   2
ATOM      2  O   UNL     1       3.479   2.442  -0.695  0.00  0.00    -0.495 OA
ATOM     24  C   UNL     1       4.565   2.903   0.106  0.00  0.00    +0.277 C 
ENDBRANCH  20   2
BRANCH   4   5
ATOM      5  C   UNL     1      -1.628  -1.679   0.101  0.00  0.00    +0.075 C 
ATOM     12  C   UNL     1      -2.426  -2.807   0.735  0.00  0.00    +0.017 C 
BRANCH   5  11
ATOM      1  O   UNL     1      -2.845  -0.913  -1.781  0.00  0.00    -0.275 OA
ATOM      3  N   UNL     1      -3.082   0.317   0.176  0.00  0.00    -0.301 N 
ATOM     11  C   UNL     1      -2.572  -0.730  -0.592  0.00  0.00    +0.219 C 
ATOM     13  C   UNL     1      -4.003   1.282  -0.428  0.00  0.00    +0.108 C 
ATOM     14  C   UNL     1      -2.811   0.534   1.602  0.00  0.00    +0.108 C 
ATOM     17  C   UNL     1      -3.507   2.711  -0.225  0.00  0.00    +0.019 C 
ATOM     18  C   UNL     1      -2.292   1.950   1.845  0.00  0.00    +0.019 C 
ATOM     19  C   UNL     1      -3.234   2.996   1.251  0.00  0.00    +0.003 C 
ENDBRANCH   5  11
ENDBRANCH   4   5
TORSDOF 3
