MODEL 1
REMARK VINA RESULT:      -7.7      0.000      0.000
REMARK  Name = 7664150
REMARK  5 active torsions:
REMARK  status: ('A' for Active; 'I' for Inactive)
REMARK    1  A    between atoms: N_8  and  C_22
REMARK    2  A    between atoms: N_9  and  C_20
REMARK    3  A    between atoms: C_23  and  C_26
REMARK    4  A    between atoms: C_29  and  C_32
REMARK    5  A    between atoms: C_32  and  C_36
REMARK                            x       y       z     vdW  Elec       q    Type
REMARK                         _______ _______ _______ _____ _____    ______ ____
ROOT
ATOM      2  O   UNL     1      12.992   6.545   3.664  0.00  0.00    -0.266 OA
ATOM      3  O   UNL     1      11.246   9.853   0.015  0.00  0.00    -0.252 OA
ATOM      6  N   UNL     1      11.742   7.840  -1.014  0.00  0.00    -0.284 N 
ATOM      7  N   UNL     1      12.646   5.986   1.421  0.00  0.00    -0.310 N 
ATOM      8  N   UNL     1       9.512   8.398  -0.484  0.00  0.00    -0.269 N 
ATOM     10  C   UNL     1      14.031   6.984  -0.486  0.00  0.00    +0.027 C 
ATOM     11  C   UNL     1      12.225   5.397  -0.993  0.00  0.00    +0.054 C 
ATOM     12  C   UNL     1      13.706   5.688  -1.217  0.00  0.00    +0.018 C 
ATOM     13  C   UNL     1      13.178   8.138  -1.038  0.00  0.00    +0.114 C 
ATOM     14  C   UNL     1      13.816   6.777   1.018  0.00  0.00    +0.130 C 
ATOM     15  C   UNL     1      11.371   6.536  -1.591  0.00  0.00    +0.119 C 
ATOM     16  C   UNL     1      11.913   5.249   0.485  0.00  0.00    +0.027 A 
ATOM     17  C   UNL     1      10.918   4.442   0.891  0.00  0.00    +0.024 A 
ATOM     18  C   UNL     1      12.365   5.929   2.801  0.00  0.00    +0.273 A 
ATOM     19  C   UNL     1      10.851   8.780  -0.450  0.00  0.00    +0.306 C 
ATOM     20  C   UNL     1      11.233   5.037   3.209  0.00  0.00    +0.099 A 
ATOM     21  C   UNL     1      10.573   4.336   2.280  0.00  0.00    +0.030 A 
ATOM     37  H   UNL     1       9.208   7.773  -1.222  0.00  0.00    +0.156 HD
ENDROOT
BRANCH   8  22
ATOM     22  C   UNL     1       8.476   8.828   0.383  0.00  0.00    +0.035 A 
ATOM     24  C   UNL     1       7.347   9.451  -0.142  0.00  0.00    +0.024 A 
ATOM     25  C   UNL     1       8.594   8.626   1.756  0.00  0.00    +0.024 A 
ATOM     27  C   UNL     1       6.329   9.875   0.711  0.00  0.00    +0.013 A 
ATOM     28  C   UNL     1       7.575   9.050   2.609  0.00  0.00    +0.013 A 
ATOM     29  C   UNL     1       6.442   9.674   2.087  0.00  0.00    +0.017 A 
BRANCH  29  32
ATOM      5  O   UNL     1       4.178  10.017   2.654  0.00  0.00    -0.292 OA
ATOM     32  C   UNL     1       5.380  10.114   2.976  0.00  0.00    +0.160 C 
ATOM     36  C   UNL     1       5.717  10.710   4.339  0.00  0.00    +0.091 C 
ENDBRANCH  29  32
ENDBRANCH   8  22
BRANCH  20   9
ATOM      4  O   UNL     1       9.218   6.553   4.547  0.00  0.00    -0.270 OA
ATOM      9  N   UNL     1      10.919   4.966   4.533  0.00  0.00    -0.277 N 
ATOM     23  C   UNL     1       9.924   5.732   5.127  0.00  0.00    +0.248 C 
ATOM     38  H   UNL     1      11.560   4.421   5.099  0.00  0.00    +0.155 HD
BRANCH  23  26
ATOM      1  F   UNL     1       9.124   4.853  10.583  0.00  0.00    -0.205 F 
ATOM     26  C   UNL     1       9.712   5.498   6.579  0.00  0.00    +0.037 A 
ATOM     30  C   UNL     1       9.243   6.535   7.358  0.00  0.00    +0.016 A 
ATOM     31  C   UNL     1       9.990   4.252   7.101  0.00  0.00    +0.016 A 
ATOM     33  C   UNL     1       9.043   6.315   8.722  0.00  0.00    +0.039 A 
ATOM     34  C   UNL     1       9.789   4.031   8.464  0.00  0.00    +0.039 A 
ATOM     35  C   UNL     1       9.315   5.064   9.274  0.00  0.00    +0.123 A 
ENDBRANCH  23  26
ENDBRANCH  20   9
TORSDOF 4
ENDMDL
MODEL 2
REMARK VINA RESULT:      -7.7      4.653      8.461
REMARK  Name = 7664150
REMARK  5 active torsions:
REMARK  status: ('A' for Active; 'I' for Inactive)
REMARK    1  A    between atoms: N_8  and  C_22
REMARK    2  A    between atoms: N_9  and  C_20
REMARK    3  A    between atoms: C_23  and  C_26
REMARK    4  A    between atoms: C_29  and  C_32
REMARK    5  A    between atoms: C_32  and  C_36
REMARK                            x       y       z     vdW  Elec       q    Type
REMARK                         _______ _______ _______ _____ _____    ______ ____
ROOT
ATOM      2  O   UNL     1      14.207   6.204   7.345  0.00  0.00    -0.266 OA
ATOM      3  O   UNL     1      10.168   3.952   4.913  0.00  0.00    -0.252 OA
ATOM      6  N   UNL     1       9.502   6.051   5.625  0.00  0.00    -0.284 N 
ATOM      7  N   UNL     1      12.155   7.245   6.939  0.00  0.00    -0.310 N 
ATOM      8  N   UNL     1      10.117   5.687   3.376  0.00  0.00    -0.269 N 
ATOM     10  C   UNL     1       9.974   6.484   8.042  0.00  0.00    +0.027 C 
ATOM     11  C   UNL     1       9.947   8.358   6.453  0.00  0.00    +0.054 C 
ATOM     12  C   UNL     1       9.537   7.932   7.860  0.00  0.00    +0.018 C 
ATOM     13  C   UNL     1       9.291   5.584   6.998  0.00  0.00    +0.114 C 
ATOM     14  C   UNL     1      11.502   6.409   7.955  0.00  0.00    +0.130 C 
ATOM     15  C   UNL     1       9.222   7.482   5.408  0.00  0.00    +0.119 C 
ATOM     16  C   UNL     1      11.448   8.242   6.261  0.00  0.00    +0.027 A 
ATOM     17  C   UNL     1      12.089   9.071   5.420  0.00  0.00    +0.024 A 
ATOM     18  C   UNL     1      13.540   7.057   6.758  0.00  0.00    +0.273 A 
ATOM     19  C   UNL     1       9.955   5.138   4.647  0.00  0.00    +0.306 C 
ATOM     20  C   UNL     1      14.212   7.984   5.794  0.00  0.00    +0.099 A 
ATOM     21  C   UNL     1      13.499   8.937   5.183  0.00  0.00    +0.030 A 
ATOM     37  H   UNL     1       9.543   6.482   3.119  0.00  0.00    +0.156 HD
ENDROOT
BRANCH   8  22
ATOM     22  C   UNL     1      10.976   5.227   2.348  0.00  0.00    +0.035 A 
ATOM     24  C   UNL     1      12.350   5.420   2.454  0.00  0.00    +0.024 A 
ATOM     25  C   UNL     1      10.440   4.583   1.235  0.00  0.00    +0.024 A 
ATOM     27  C   UNL     1      13.195   4.967   1.441  0.00  0.00    +0.013 A 
ATOM     28  C   UNL     1      11.285   4.130   0.222  0.00  0.00    +0.013 A 
ATOM     29  C   UNL     1      12.663   4.322   0.325  0.00  0.00    +0.017 A 
BRANCH  29  32
ATOM      5  O   UNL     1      14.783   3.953  -0.641  0.00  0.00    -0.292 OA
ATOM     32  C   UNL     1      13.543   3.848  -0.730  0.00  0.00    +0.160 C 
ATOM     36  C   UNL     1      12.962   3.204  -1.984  0.00  0.00    +0.091 C 
ENDBRANCH  29  32
ENDBRANCH   8  22
BRANCH  20   9
ATOM      4  O   UNL     1      16.238   9.938   6.268  0.00  0.00    -0.270 OA
ATOM      9  N   UNL     1      15.549   7.826   5.579  0.00  0.00    -0.277 N 
ATOM     23  C   UNL     1      16.488   8.818   5.830  0.00  0.00    +0.248 C 
ATOM     38  H   UNL     1      15.808   6.983   5.080  0.00  0.00    +0.155 HD
BRANCH  23  26
ATOM      1  F   UNL     1      21.799   7.438   4.798  0.00  0.00    -0.205 F 
ATOM     26  C   UNL     1      17.901   8.451   5.555  0.00  0.00    +0.037 A 
ATOM     30  C   UNL     1      18.813   8.495   6.588  0.00  0.00    +0.016 A 
ATOM     31  C   UNL     1      18.256   8.078   4.275  0.00  0.00    +0.016 A 
ATOM     33  C   UNL     1      20.140   8.150   6.331  0.00  0.00    +0.039 A 
ATOM     34  C   UNL     1      19.582   7.733   4.017  0.00  0.00    +0.039 A 
ATOM     35  C   UNL     1      20.525   7.768   5.046  0.00  0.00    +0.123 A 
ENDBRANCH  23  26
ENDBRANCH  20   9
TORSDOF 4
ENDMDL
MODEL 3
REMARK VINA RESULT:      -7.3     25.033     29.003
REMARK  Name = 7664150
REMARK  5 active torsions:
REMARK  status: ('A' for Active; 'I' for Inactive)
REMARK    1  A    between atoms: N_8  and  C_22
REMARK    2  A    between atoms: N_9  and  C_20
REMARK    3  A    between atoms: C_23  and  C_26
REMARK    4  A    between atoms: C_29  and  C_32
REMARK    5  A    between atoms: C_32  and  C_36
REMARK                            x       y       z     vdW  Elec       q    Type
REMARK                         _______ _______ _______ _____ _____    ______ ____
ROOT
ATOM      2  O   UNL     1      -7.755 -12.235  14.754  0.00  0.00    -0.266 OA
ATOM      3  O   UNL     1     -12.307 -11.211  17.107  0.00  0.00    -0.252 OA
ATOM      6  N   UNL     1     -10.670 -11.363  18.737  0.00  0.00    -0.284 N 
ATOM      7  N   UNL     1      -8.008 -11.852  17.046  0.00  0.00    -0.310 N 
ATOM      8  N   UNL     1     -11.422  -9.256  17.984  0.00  0.00    -0.269 N 
ATOM     10  C   UNL     1      -9.295 -13.445  18.582  0.00  0.00    +0.027 C 
ATOM     11  C   UNL     1      -8.302 -11.396  19.507  0.00  0.00    +0.054 C 
ATOM     12  C   UNL     1      -8.378 -12.911  19.676  0.00  0.00    +0.018 C 
ATOM     13  C   UNL     1     -10.698 -12.829  18.712  0.00  0.00    +0.114 C 
ATOM     14  C   UNL     1      -8.663 -13.156  17.216  0.00  0.00    +0.130 C 
ATOM     15  C   UNL     1      -9.706 -10.778  19.685  0.00  0.00    +0.119 C 
ATOM     16  C   UNL     1      -7.751 -11.023  18.142  0.00  0.00    +0.027 A 
ATOM     17  C   UNL     1      -7.049  -9.889  17.981  0.00  0.00    +0.024 A 
ATOM     18  C   UNL     1      -7.567 -11.530  15.746  0.00  0.00    +0.273 A 
ATOM     19  C   UNL     1     -11.526 -10.642  17.875  0.00  0.00    +0.306 C 
ATOM     20  C   UNL     1      -6.812 -10.245  15.605  0.00  0.00    +0.099 A 
ATOM     21  C   UNL     1      -6.572  -9.494  16.686  0.00  0.00    +0.030 A 
ATOM     37  H   UNL     1     -11.128  -8.865  18.872  0.00  0.00    +0.156 HD
ENDROOT
BRANCH   8  22
ATOM     22  C   UNL     1     -11.733  -8.293  16.993  0.00  0.00    +0.035 A 
ATOM     24  C   UNL     1     -10.749  -7.416  16.545  0.00  0.00    +0.024 A 
ATOM     25  C   UNL     1     -13.023  -8.229  16.471  0.00  0.00    +0.024 A 
ATOM     27  C   UNL     1     -11.056  -6.468  15.570  0.00  0.00    +0.013 A 
ATOM     28  C   UNL     1     -13.330  -7.281  15.496  0.00  0.00    +0.013 A 
ATOM     29  C   UNL     1     -12.346  -6.400  15.044  0.00  0.00    +0.017 A 
BRANCH  29  32
ATOM      5  O   UNL     1     -11.777  -4.728  13.481  0.00  0.00    -0.292 OA
ATOM     32  C   UNL     1     -12.666  -5.413  14.026  0.00  0.00    +0.160 C 
ATOM     36  C   UNL     1     -14.112  -5.192  13.598  0.00  0.00    +0.091 C 
ENDBRANCH  29  32
ENDBRANCH   8  22
BRANCH  20   9
ATOM      4  O   UNL     1      -4.359 -11.039  14.380  0.00  0.00    -0.270 OA
ATOM      9  N   UNL     1      -6.381  -9.888  14.362  0.00  0.00    -0.277 N 
ATOM     23  C   UNL     1      -5.174 -10.309  13.820  0.00  0.00    +0.248 C 
ATOM     38  H   UNL     1      -6.931  -9.169  13.905  0.00  0.00    +0.155 HD
BRANCH  23  26
ATOM      1  F   UNL     1      -4.096  -8.525   8.640  0.00  0.00    -0.205 F 
ATOM     26  C   UNL     1      -4.887  -9.835  12.441  0.00  0.00    +0.037 A 
ATOM     30  C   UNL     1      -5.814  -9.036  11.807  0.00  0.00    +0.016 A 
ATOM     31  C   UNL     1      -3.703 -10.209  11.841  0.00  0.00    +0.016 A 
ATOM     33  C   UNL     1      -5.546  -8.589  10.512  0.00  0.00    +0.039 A 
ATOM     34  C   UNL     1      -3.433  -9.763  10.547  0.00  0.00    +0.039 A 
ATOM     35  C   UNL     1      -4.355  -8.952   9.882  0.00  0.00    +0.123 A 
ENDBRANCH  23  26
ENDBRANCH  20   9
TORSDOF 4
ENDMDL
MODEL 4
REMARK VINA RESULT:      -7.2     24.255     28.350
REMARK  Name = 7664150
REMARK  5 active torsions:
REMARK  status: ('A' for Active; 'I' for Inactive)
REMARK    1  A    between atoms: N_8  and  C_22
REMARK    2  A    between atoms: N_9  and  C_20
REMARK    3  A    between atoms: C_23  and  C_26
REMARK    4  A    between atoms: C_29  and  C_32
REMARK    5  A    between atoms: C_32  and  C_36
REMARK                            x       y       z     vdW  Elec       q    Type
REMARK                         _______ _______ _______ _____ _____    ______ ____
ROOT
ATOM      2  O   UNL     1      -8.726  -8.287  17.263  0.00  0.00    -0.266 OA
ATOM      3  O   UNL     1      -3.867 -10.152  16.797  0.00  0.00    -0.252 OA
ATOM      6  N   UNL     1      -5.227 -11.864  17.556  0.00  0.00    -0.284 N 
ATOM      7  N   UNL     1      -8.119 -10.515  17.624  0.00  0.00    -0.310 N 
ATOM      8  N   UNL     1      -4.614 -11.739  15.281  0.00  0.00    -0.269 N 
ATOM     10  C   UNL     1      -6.599 -11.241  19.551  0.00  0.00    +0.027 C 
ATOM     11  C   UNL     1      -7.446 -12.919  17.968  0.00  0.00    +0.054 C 
ATOM     12  C   UNL     1      -7.336 -12.571  19.450  0.00  0.00    +0.018 C 
ATOM     13  C   UNL     1      -5.196 -11.359  18.933  0.00  0.00    +0.114 C 
ATOM     14  C   UNL     1      -7.439 -10.152  18.875  0.00  0.00    +0.130 C 
ATOM     15  C   UNL     1      -6.035 -13.082  17.363  0.00  0.00    +0.119 C 
ATOM     16  C   UNL     1      -8.205 -11.847  17.208  0.00  0.00    +0.027 A 
ATOM     17  C   UNL     1      -8.930 -12.170  16.123  0.00  0.00    +0.024 A 
ATOM     18  C   UNL     1      -8.760  -9.471  16.926  0.00  0.00    +0.273 A 
ATOM     19  C   UNL     1      -4.521 -11.169  16.550  0.00  0.00    +0.306 C 
ATOM     20  C   UNL     1      -9.535  -9.870  15.709  0.00  0.00    +0.099 A 
ATOM     21  C   UNL     1      -9.606 -11.159  15.360  0.00  0.00    +0.030 A 
ATOM     37  H   UNL     1      -4.767 -12.739  15.213  0.00  0.00    +0.156 HD
ENDROOT
BRANCH   8  22
ATOM     22  C   UNL     1      -4.467 -11.082  14.035  0.00  0.00    +0.035 A 
ATOM     24  C   UNL     1      -5.560 -10.443  13.454  0.00  0.00    +0.024 A 
ATOM     25  C   UNL     1      -3.230 -11.079  13.396  0.00  0.00    +0.024 A 
ATOM     27  C   UNL     1      -5.415  -9.797  12.227  0.00  0.00    +0.013 A 
ATOM     28  C   UNL     1      -3.085 -10.433  12.168  0.00  0.00    +0.013 A 
ATOM     29  C   UNL     1      -4.177  -9.791  11.584  0.00  0.00    +0.017 A 
BRANCH  29  32
ATOM      5  O   UNL     1      -2.935  -9.110   9.698  0.00  0.00    -0.292 OA
ATOM     32  C   UNL     1      -4.025  -9.117  10.305  0.00  0.00    +0.160 C 
ATOM     36  C   UNL     1      -5.209  -8.395   9.671  0.00  0.00    +0.091 C 
ENDBRANCH  29  32
ENDBRANCH   8  22
BRANCH  20   9
ATOM      4  O   UNL     1     -12.172  -8.875  16.157  0.00  0.00    -0.270 OA
ATOM      9  N   UNL     1     -10.157  -8.888  14.996  0.00  0.00    -0.277 N 
ATOM     23  C   UNL     1     -11.446  -8.446  15.264  0.00  0.00    +0.248 C 
ATOM     38  H   UNL     1      -9.674  -8.596  14.153  0.00  0.00    +0.155 HD
BRANCH  23  26
ATOM      1  F   UNL     1     -13.326  -4.333  11.990  0.00  0.00    -0.205 F 
ATOM     26  C   UNL     1     -11.946  -7.352  14.393  0.00  0.00    +0.037 A 
ATOM     30  C   UNL     1     -12.318  -7.649  13.099  0.00  0.00    +0.016 A 
ATOM     31  C   UNL     1     -12.021  -6.073  14.906  0.00  0.00    +0.016 A 
ATOM     33  C   UNL     1     -12.789  -6.621  12.280  0.00  0.00    +0.039 A 
ATOM     34  C   UNL     1     -12.491  -5.045  14.088  0.00  0.00    +0.039 A 
ATOM     35  C   UNL     1     -12.875  -5.320  12.775  0.00  0.00    +0.123 A 
ENDBRANCH  23  26
ENDBRANCH  20   9
TORSDOF 4
ENDMDL
MODEL 5
REMARK VINA RESULT:      -7.1      4.323      8.905
REMARK  Name = 7664150
REMARK  5 active torsions:
REMARK  status: ('A' for Active; 'I' for Inactive)
REMARK    1  A    between atoms: N_8  and  C_22
REMARK    2  A    between atoms: N_9  and  C_20
REMARK    3  A    between atoms: C_23  and  C_26
REMARK    4  A    between atoms: C_29  and  C_32
REMARK    5  A    between atoms: C_32  and  C_36
REMARK                            x       y       z     vdW  Elec       q    Type
REMARK                         _______ _______ _______ _____ _____    ______ ____
ROOT
ATOM      2  O   UNL     1      10.226   7.230   1.020  0.00  0.00    -0.266 OA
ATOM      3  O   UNL     1      11.808   9.678   5.356  0.00  0.00    -0.252 OA
ATOM      6  N   UNL     1      10.483   7.887   5.981  0.00  0.00    -0.284 N 
ATOM      7  N   UNL     1       9.770   6.505   3.194  0.00  0.00    -0.310 N 
ATOM      8  N   UNL     1      12.835   7.733   6.088  0.00  0.00    -0.269 N 
ATOM     10  C   UNL     1       8.277   7.817   4.807  0.00  0.00    +0.027 C 
ATOM     11  C   UNL     1       9.328   5.723   5.549  0.00  0.00    +0.054 C 
ATOM     12  C   UNL     1       7.995   6.458   5.434  0.00  0.00    +0.018 C 
ATOM     13  C   UNL     1       9.248   8.622   5.687  0.00  0.00    +0.114 C 
ATOM     14  C   UNL     1       8.821   7.609   3.389  0.00  0.00    +0.130 C 
ATOM     15  C   UNL     1      10.282   6.512   6.471  0.00  0.00    +0.119 C 
ATOM     16  C   UNL     1       9.971   5.541   4.186  0.00  0.00    +0.027 A 
ATOM     17  C   UNL     1      10.755   4.477   3.945  0.00  0.00    +0.024 A 
ATOM     18  C   UNL     1      10.385   6.415   1.929  0.00  0.00    +0.273 A 
ATOM     19  C   UNL     1      11.729   8.519   5.771  0.00  0.00    +0.306 C 
ATOM     20  C   UNL     1      11.272   5.228   1.709  0.00  0.00    +0.099 A 
ATOM     21  C   UNL     1      11.418   4.320   2.681  0.00  0.00    +0.030 A 
ATOM     37  H   UNL     1      12.728   7.017   6.797  0.00  0.00    +0.156 HD
ENDROOT
BRANCH   8  22
ATOM     22  C   UNL     1      14.145   7.847   5.561  0.00  0.00    +0.035 A 
ATOM     24  C   UNL     1      15.147   8.447   6.319  0.00  0.00    +0.024 A 
ATOM     25  C   UNL     1      14.424   7.359   4.287  0.00  0.00    +0.024 A 
ATOM     27  C   UNL     1      16.437   8.559   5.801  0.00  0.00    +0.013 A 
ATOM     28  C   UNL     1      15.714   7.471   3.768  0.00  0.00    +0.013 A 
ATOM     29  C   UNL     1      16.720   8.071   4.525  0.00  0.00    +0.017 A 
BRANCH  29  32
ATOM      5  O   UNL     1      18.270   8.242   2.754  0.00  0.00    -0.292 OA
ATOM     32  C   UNL     1      18.065   8.186   3.984  0.00  0.00    +0.160 C 
ATOM     36  C   UNL     1      19.267   8.244   4.919  0.00  0.00    +0.091 C 
ENDBRANCH  29  32
ENDBRANCH   8  22
BRANCH  20   9
ATOM      4  O   UNL     1      10.238   3.918  -0.606  0.00  0.00    -0.270 OA
ATOM      9  N   UNL     1      11.898   5.111   0.504  0.00  0.00    -0.277 N 
ATOM     23  C   UNL     1      11.341   4.459  -0.588  0.00  0.00    +0.248 C 
ATOM     38  H   UNL     1      12.869   5.402   0.493  0.00  0.00    +0.155 HD
BRANCH  23  26
ATOM      1  F   UNL     1      14.437   4.443  -5.235  0.00  0.00    -0.205 F 
ATOM     26  C   UNL     1      12.165   4.455  -1.824  0.00  0.00    +0.037 A 
ATOM     30  C   UNL     1      12.162   3.330  -2.622  0.00  0.00    +0.016 A 
ATOM     31  C   UNL     1      12.908   5.575  -2.134  0.00  0.00    +0.016 A 
ATOM     33  C   UNL     1      12.935   3.326  -3.784  0.00  0.00    +0.039 A 
ATOM     34  C   UNL     1      13.681   5.572  -3.295  0.00  0.00    +0.039 A 
ATOM     35  C   UNL     1      13.694   4.446  -4.121  0.00  0.00    +0.123 A 
ENDBRANCH  23  26
ENDBRANCH  20   9
TORSDOF 4
ENDMDL
MODEL 6
REMARK VINA RESULT:      -6.9      3.486      6.890
REMARK  Name = 7664150
REMARK  5 active torsions:
REMARK  status: ('A' for Active; 'I' for Inactive)
REMARK    1  A    between atoms: N_8  and  C_22
REMARK    2  A    between atoms: N_9  and  C_20
REMARK    3  A    between atoms: C_23  and  C_26
REMARK    4  A    between atoms: C_29  and  C_32
REMARK    5  A    between atoms: C_32  and  C_36
REMARK                            x       y       z     vdW  Elec       q    Type
REMARK                         _______ _______ _______ _____ _____    ______ ____
ROOT
ATOM      2  O   UNL     1      10.622   4.725   3.541  0.00  0.00    -0.266 OA
ATOM      3  O   UNL     1       7.648   7.928   6.404  0.00  0.00    -0.252 OA
ATOM      6  N   UNL     1       9.852   8.599   6.626  0.00  0.00    -0.284 N 
ATOM      7  N   UNL     1      11.417   6.592   4.701  0.00  0.00    -0.310 N 
ATOM      8  N   UNL     1       8.392   9.740   5.163  0.00  0.00    -0.269 N 
ATOM     10  C   UNL     1      11.404   6.744   7.256  0.00  0.00    +0.027 C 
ATOM     11  C   UNL     1      12.243   8.633   5.927  0.00  0.00    +0.054 C 
ATOM     12  C   UNL     1      12.589   7.682   7.070  0.00  0.00    +0.018 C 
ATOM     13  C   UNL     1      10.137   7.544   7.603  0.00  0.00    +0.114 C 
ATOM     14  C   UNL     1      11.226   5.905   5.985  0.00  0.00    +0.130 C 
ATOM     15  C   UNL     1      10.998   9.467   6.300  0.00  0.00    +0.119 C 
ATOM     16  C   UNL     1      11.978   7.871   4.641  0.00  0.00    +0.027 A 
ATOM     17  C   UNL     1      12.251   8.434   3.452  0.00  0.00    +0.024 A 
ATOM     18  C   UNL     1      11.101   5.860   3.538  0.00  0.00    +0.273 A 
ATOM     19  C   UNL     1       8.554   8.699   6.076  0.00  0.00    +0.306 C 
ATOM     20  C   UNL     1      11.397   6.533   2.234  0.00  0.00    +0.099 A 
ATOM     21  C   UNL     1      11.953   7.750   2.226  0.00  0.00    +0.030 A 
ATOM     37  H   UNL     1       8.981  10.560   5.260  0.00  0.00    +0.156 HD
ENDROOT
BRANCH   8  22
ATOM     22  C   UNL     1       7.444   9.818   4.114  0.00  0.00    +0.035 A 
ATOM     24  C   UNL     1       6.182  10.352   4.359  0.00  0.00    +0.024 A 
ATOM     25  C   UNL     1       7.779   9.361   2.842  0.00  0.00    +0.024 A 
ATOM     27  C   UNL     1       5.248  10.429   3.326  0.00  0.00    +0.013 A 
ATOM     28  C   UNL     1       6.845   9.438   1.809  0.00  0.00    +0.013 A 
ATOM     29  C   UNL     1       5.580   9.972   2.051  0.00  0.00    +0.017 A 
BRANCH  29  32
ATOM      5  O   UNL     1       3.891  11.063   0.817  0.00  0.00    -0.292 OA
ATOM     32  C   UNL     1       4.607  10.053   0.973  0.00  0.00    +0.160 C 
ATOM     36  C   UNL     1       4.441   8.893  -0.001  0.00  0.00    +0.091 C 
ENDBRANCH  29  32
ENDBRANCH   8  22
BRANCH  20   9
ATOM      4  O   UNL     1      13.144   4.818   0.768  0.00  0.00    -0.270 OA
ATOM      9  N   UNL     1      11.092   5.865   1.085  0.00  0.00    -0.277 N 
ATOM     23  C   UNL     1      11.989   5.043   0.416  0.00  0.00    +0.248 C 
ATOM     38  H   UNL     1      10.208   6.122   0.659  0.00  0.00    +0.155 HD
BRANCH  23  26
ATOM      1  F   UNL     1      10.025   2.554  -4.180  0.00  0.00    -0.205 F 
ATOM     26  C   UNL     1      11.466   4.381  -0.807  0.00  0.00    +0.037 A 
ATOM     30  C   UNL     1      12.085   3.235  -1.259  0.00  0.00    +0.016 A 
ATOM     31  C   UNL     1      10.380   4.934  -1.452  0.00  0.00    +0.016 A 
ATOM     33  C   UNL     1      11.595   2.612  -2.408  0.00  0.00    +0.039 A 
ATOM     34  C   UNL     1       9.888   4.313  -2.600  0.00  0.00    +0.039 A 
ATOM     35  C   UNL     1      10.496   3.151  -3.078  0.00  0.00    +0.123 A 
ENDBRANCH  23  26
ENDBRANCH  20   9
TORSDOF 4
ENDMDL
MODEL 7
REMARK VINA RESULT:      -6.9      3.388      5.364
REMARK  Name = 7664150
REMARK  5 active torsions:
REMARK  status: ('A' for Active; 'I' for Inactive)
REMARK    1  A    between atoms: N_8  and  C_22
REMARK    2  A    between atoms: N_9  and  C_20
REMARK    3  A    between atoms: C_23  and  C_26
REMARK    4  A    between atoms: C_29  and  C_32
REMARK    5  A    between atoms: C_32  and  C_36
REMARK                            x       y       z     vdW  Elec       q    Type
REMARK                         _______ _______ _______ _____ _____    ______ ____
ROOT
ATOM      2  O   UNL     1      12.159   7.830   2.294  0.00  0.00    -0.266 OA
ATOM      3  O   UNL     1      13.011   5.831  -2.458  0.00  0.00    -0.252 OA
ATOM      6  N   UNL     1      13.526   4.209  -0.890  0.00  0.00    -0.284 N 
ATOM      7  N   UNL     1      12.801   5.622   1.879  0.00  0.00    -0.310 N 
ATOM      8  N   UNL     1      11.466   4.155  -2.038  0.00  0.00    -0.269 N 
ATOM     10  C   UNL     1      15.083   5.004   0.898  0.00  0.00    +0.027 C 
ATOM     11  C   UNL     1      13.454   3.235   1.402  0.00  0.00    +0.054 C 
ATOM     12  C   UNL     1      14.892   3.687   1.639  0.00  0.00    +0.018 C 
ATOM     13  C   UNL     1      14.833   4.812  -0.608  0.00  0.00    +0.114 C 
ATOM     14  C   UNL     1      14.153   6.060   1.507  0.00  0.00    +0.130 C 
ATOM     15  C   UNL     1      13.222   2.998  -0.106  0.00  0.00    +0.119 C 
ATOM     16  C   UNL     1      12.464   4.265   1.914  0.00  0.00    +0.027 A 
ATOM     17  C   UNL     1      11.259   3.881   2.367  0.00  0.00    +0.024 A 
ATOM     18  C   UNL     1      11.902   6.626   2.291  0.00  0.00    +0.273 A 
ATOM     19  C   UNL     1      12.679   4.813  -1.844  0.00  0.00    +0.306 C 
ATOM     20  C   UNL     1      10.561   6.157   2.765  0.00  0.00    +0.099 A 
ATOM     21  C   UNL     1      10.290   4.847   2.800  0.00  0.00    +0.030 A 
ATOM     37  H   UNL     1      11.428   3.157  -1.867  0.00  0.00    +0.156 HD
ENDROOT
BRANCH   8  22
ATOM     22  C   UNL     1      10.252   4.717  -2.506  0.00  0.00    +0.035 A 
ATOM     24  C   UNL     1       9.590   5.672  -1.741  0.00  0.00    +0.024 A 
ATOM     25  C   UNL     1       9.728   4.309  -3.730  0.00  0.00    +0.024 A 
ATOM     27  C   UNL     1       8.395   6.224  -2.202  0.00  0.00    +0.013 A 
ATOM     28  C   UNL     1       8.533   4.861  -4.191  0.00  0.00    +0.013 A 
ATOM     29  C   UNL     1       7.867   5.819  -3.427  0.00  0.00    +0.017 A 
BRANCH  29  32
ATOM      5  O   UNL     1       6.344   6.420  -5.126  0.00  0.00    -0.292 OA
ATOM     32  C   UNL     1       6.622   6.395  -3.909  0.00  0.00    +0.160 C 
ATOM     36  C   UNL     1       5.618   6.987  -2.927  0.00  0.00    +0.091 C 
ENDBRANCH  29  32
ENDBRANCH   8  22
BRANCH  20   9
ATOM      4  O   UNL     1       9.023   7.838   1.046  0.00  0.00    -0.270 OA
ATOM      9  N   UNL     1       9.656   7.097   3.159  0.00  0.00    -0.277 N 
ATOM     23  C   UNL     1       8.936   7.887   2.271  0.00  0.00    +0.248 C 
ATOM     38  H   UNL     1       9.644   7.294   4.153  0.00  0.00    +0.155 HD
BRANCH  23  26
ATOM      1  F   UNL     1       5.341  11.473   4.590  0.00  0.00    -0.205 F 
ATOM     26  C   UNL     1       7.979   8.841   2.888  0.00  0.00    +0.037 A 
ATOM     30  C   UNL     1       8.037   9.054   4.249  0.00  0.00    +0.016 A 
ATOM     31  C   UNL     1       7.064   9.482   2.080  0.00  0.00    +0.016 A 
ATOM     33  C   UNL     1       7.138   9.950   4.829  0.00  0.00    +0.039 A 
ATOM     34  C   UNL     1       6.165  10.379   2.659  0.00  0.00    +0.039 A 
ATOM     35  C   UNL     1       6.203  10.613   4.034  0.00  0.00    +0.123 A 
ENDBRANCH  23  26
ENDBRANCH  20   9
TORSDOF 4
ENDMDL
MODEL 8
REMARK VINA RESULT:      -6.8     16.324     19.151
REMARK  Name = 7664150
REMARK  5 active torsions:
REMARK  status: ('A' for Active; 'I' for Inactive)
REMARK    1  A    between atoms: N_8  and  C_22
REMARK    2  A    between atoms: N_9  and  C_20
REMARK    3  A    between atoms: C_23  and  C_26
REMARK    4  A    between atoms: C_29  and  C_32
REMARK    5  A    between atoms: C_32  and  C_36
REMARK                            x       y       z     vdW  Elec       q    Type
REMARK                         _______ _______ _______ _____ _____    ______ ____
ROOT
ATOM      2  O   UNL     1      20.208  -9.853   2.700  0.00  0.00    -0.266 OA
ATOM      3  O   UNL     1      19.773  -4.746   1.685  0.00  0.00    -0.252 OA
ATOM      6  N   UNL     1      22.007  -5.328   1.517  0.00  0.00    -0.284 N 
ATOM      7  N   UNL     1      21.977  -8.475   2.043  0.00  0.00    -0.310 N 
ATOM      8  N   UNL     1      20.683  -5.080  -0.420  0.00  0.00    -0.269 N 
ATOM     10  C   UNL     1      22.869  -6.573   3.506  0.00  0.00    +0.027 C 
ATOM     11  C   UNL     1      23.860  -6.977   1.294  0.00  0.00    +0.054 C 
ATOM     12  C   UNL     1      24.184  -6.812   2.776  0.00  0.00    +0.018 C 
ATOM     13  C   UNL     1      22.184  -5.304   2.973  0.00  0.00    +0.114 C 
ATOM     14  C   UNL     1      21.981  -7.814   3.354  0.00  0.00    +0.130 C 
ATOM     15  C   UNL     1      23.216  -5.682   0.753  0.00  0.00    +0.119 C 
ATOM     16  C   UNL     1      22.921  -8.147   1.065  0.00  0.00    +0.027 A 
ATOM     17  C   UNL     1      22.974  -8.843  -0.083  0.00  0.00    +0.024 A 
ATOM     18  C   UNL     1      21.046  -9.518   1.862  0.00  0.00    +0.273 A 
ATOM     19  C   UNL     1      20.737  -5.034   0.971  0.00  0.00    +0.306 C 
ATOM     20  C   UNL     1      21.121 -10.251   0.558  0.00  0.00    +0.099 A 
ATOM     21  C   UNL     1      22.054  -9.915  -0.340  0.00  0.00    +0.030 A 
ATOM     37  H   UNL     1      21.531  -4.885  -0.942  0.00  0.00    +0.156 HD
ENDROOT
BRANCH   8  22
ATOM     22  C   UNL     1      19.543  -5.323  -1.225  0.00  0.00    +0.035 A 
ATOM     24  C   UNL     1      19.240  -6.622  -1.624  0.00  0.00    +0.024 A 
ATOM     25  C   UNL     1      18.731  -4.261  -1.614  0.00  0.00    +0.024 A 
ATOM     27  C   UNL     1      18.118  -6.862  -2.416  0.00  0.00    +0.013 A 
ATOM     28  C   UNL     1      17.608  -4.500  -2.407  0.00  0.00    +0.013 A 
ATOM     29  C   UNL     1      17.302  -5.801  -2.808  0.00  0.00    +0.017 A 
BRANCH  29  32
ATOM      5  O   UNL     1      16.073  -7.029  -4.404  0.00  0.00    -0.292 OA
ATOM     32  C   UNL     1      16.131  -6.050  -3.633  0.00  0.00    +0.160 C 
ATOM     36  C   UNL     1      14.934  -5.108  -3.572  0.00  0.00    +0.091 C 
ENDBRANCH  29  32
ENDBRANCH   8  22
BRANCH  20   9
ATOM      4  O   UNL     1      18.517  -9.971  -0.577  0.00  0.00    -0.270 OA
ATOM      9  N   UNL     1      20.227 -11.256   0.337  0.00  0.00    -0.277 N 
ATOM     23  C   UNL     1      18.971 -11.056  -0.221  0.00  0.00    +0.248 C 
ATOM     38  H   UNL     1      20.476 -12.151   0.743  0.00  0.00    +0.155 HD
BRANCH  23  26
ATOM      1  F   UNL     1      15.870 -15.646  -0.917  0.00  0.00    -0.205 F 
ATOM     26  C   UNL     1      18.147 -12.278  -0.405  0.00  0.00    +0.037 A 
ATOM     30  C   UNL     1      16.886 -12.320   0.152  0.00  0.00    +0.016 A 
ATOM     31  C   UNL     1      18.667 -13.330  -1.129  0.00  0.00    +0.016 A 
ATOM     33  C   UNL     1      16.110 -13.467  -0.022  0.00  0.00    +0.039 A 
ATOM     34  C   UNL     1      17.893 -14.477  -1.304  0.00  0.00    +0.039 A 
ATOM     35  C   UNL     1      16.613 -14.545  -0.750  0.00  0.00    +0.123 A 
ENDBRANCH  23  26
ENDBRANCH  20   9
TORSDOF 4
ENDMDL
MODEL 9
REMARK VINA RESULT:      -6.8     26.360     30.520
REMARK  Name = 7664150
REMARK  5 active torsions:
REMARK  status: ('A' for Active; 'I' for Inactive)
REMARK    1  A    between atoms: N_8  and  C_22
REMARK    2  A    between atoms: N_9  and  C_20
REMARK    3  A    between atoms: C_23  and  C_26
REMARK    4  A    between atoms: C_29  and  C_32
REMARK    5  A    between atoms: C_32  and  C_36
REMARK                            x       y       z     vdW  Elec       q    Type
REMARK                         _______ _______ _______ _____ _____    ______ ____
ROOT
ATOM      2  O   UNL     1      -7.420 -14.010  16.386  0.00  0.00    -0.266 OA
ATOM      3  O   UNL     1     -12.373 -12.632  17.320  0.00  0.00    -0.252 OA
ATOM      6  N   UNL     1     -11.424 -13.310  19.318  0.00  0.00    -0.284 N 
ATOM      7  N   UNL     1      -8.407 -13.960  18.504  0.00  0.00    -0.310 N 
ATOM      8  N   UNL     1     -11.649 -11.016  18.815  0.00  0.00    -0.269 N 
ATOM     10  C   UNL     1     -10.302 -15.540  19.187  0.00  0.00    +0.027 C 
ATOM     11  C   UNL     1      -9.483 -13.859  20.780  0.00  0.00    +0.054 C 
ATOM     12  C   UNL     1      -9.769 -15.347  20.601  0.00  0.00    +0.018 C 
ATOM     13  C   UNL     1     -11.592 -14.729  18.986  0.00  0.00    +0.114 C 
ATOM     14  C   UNL     1      -9.211 -15.147  18.184  0.00  0.00    +0.130 C 
ATOM     15  C   UNL     1     -10.791 -13.052  20.624  0.00  0.00    +0.119 C 
ATOM     16  C   UNL     1      -8.461 -13.371  19.770  0.00  0.00    +0.027 A 
ATOM     17  C   UNL     1      -7.633 -12.358  20.079  0.00  0.00    +0.024 A 
ATOM     18  C   UNL     1      -7.515 -13.513  17.509  0.00  0.00    +0.273 A 
ATOM     19  C   UNL     1     -11.851 -12.329  18.396  0.00  0.00    +0.306 C 
ATOM     20  C   UNL     1      -6.628 -12.366  17.884  0.00  0.00    +0.099 A 
ATOM     21  C   UNL     1      -6.700 -11.847  19.115  0.00  0.00    +0.030 A 
ATOM     37  H   UNL     1     -11.641 -10.825  19.811  0.00  0.00    +0.156 HD
ENDROOT
BRANCH   8  22
ATOM     22  C   UNL     1     -11.498  -9.869  17.997  0.00  0.00    +0.035 A 
ATOM     24  C   UNL     1     -10.235  -9.316  17.805  0.00  0.00    +0.024 A 
ATOM     25  C   UNL     1     -12.614  -9.301  17.389  0.00  0.00    +0.024 A 
ATOM     27  C   UNL     1     -10.087  -8.187  17.000  0.00  0.00    +0.013 A 
ATOM     28  C   UNL     1     -12.466  -8.172  16.584  0.00  0.00    +0.013 A 
ATOM     29  C   UNL     1     -11.202  -7.615  16.389  0.00  0.00    +0.017 A 
BRANCH  29  32
ATOM      5  O   UNL     1      -9.933  -5.911  15.364  0.00  0.00    -0.292 OA
ATOM     32  C   UNL     1     -11.048  -6.439  15.548  0.00  0.00    +0.160 C 
ATOM     36  C   UNL     1     -12.262  -5.819  14.865  0.00  0.00    +0.091 C 
ENDBRANCH  29  32
ENDBRANCH   8  22
BRANCH  20   9
ATOM      4  O   UNL     1      -3.840 -11.885  18.257  0.00  0.00    -0.270 OA
ATOM      9  N   UNL     1      -5.761 -11.893  16.945  0.00  0.00    -0.277 N 
ATOM     23  C   UNL     1      -4.411 -11.679  17.188  0.00  0.00    +0.248 C 
ATOM     38  H   UNL     1      -6.192 -11.561  16.089  0.00  0.00    +0.155 HD
BRANCH  23  26
ATOM      1  F   UNL     1      -1.439  -9.806  12.848  0.00  0.00    -0.205 F 
ATOM     26  C   UNL     1      -3.619 -11.181  16.033  0.00  0.00    +0.037 A 
ATOM     30  C   UNL     1      -4.222 -11.111  14.795  0.00  0.00    +0.016 A 
ATOM     31  C   UNL     1      -2.308 -10.805  16.237  0.00  0.00    +0.016 A 
ATOM     33  C   UNL     1      -3.480 -10.643  13.710  0.00  0.00    +0.039 A 
ATOM     34  C   UNL     1      -1.565 -10.336  15.153  0.00  0.00    +0.039 A 
ATOM     35  C   UNL     1      -2.152 -10.255  13.889  0.00  0.00    +0.123 A 
ENDBRANCH  23  26
ENDBRANCH  20   9
TORSDOF 4
ENDMDL
MODEL 10
REMARK VINA RESULT:      -6.7     33.203     36.009
REMARK  Name = 7664150
REMARK  5 active torsions:
REMARK  status: ('A' for Active; 'I' for Inactive)
REMARK    1  A    between atoms: N_8  and  C_22
REMARK    2  A    between atoms: N_9  and  C_20
REMARK    3  A    between atoms: C_23  and  C_26
REMARK    4  A    between atoms: C_29  and  C_32
REMARK    5  A    between atoms: C_32  and  C_36
REMARK                            x       y       z     vdW  Elec       q    Type
REMARK                         _______ _______ _______ _____ _____    ______ ____
ROOT
ATOM      2  O   UNL     1       9.236 -10.797  31.831  0.00  0.00    -0.266 OA
ATOM      3  O   UNL     1       7.791  -9.995  36.788  0.00  0.00    -0.252 OA
ATOM      6  N   UNL     1       7.859  -7.945  35.715  0.00  0.00    -0.284 N 
ATOM      7  N   UNL     1       8.626  -8.723  32.716  0.00  0.00    -0.310 N 
ATOM      8  N   UNL     1       5.803  -9.050  36.062  0.00  0.00    -0.269 N 
ATOM     10  C   UNL     1      10.005  -7.520  34.506  0.00  0.00    +0.027 C 
ATOM     11  C   UNL     1       7.923  -6.504  33.684  0.00  0.00    +0.054 C 
ATOM     12  C   UNL     1       9.411  -6.248  33.914  0.00  0.00    +0.018 C 
ATOM     13  C   UNL     1       9.318  -7.862  35.838  0.00  0.00    +0.114 C 
ATOM     14  C   UNL     1       9.877  -8.654  33.483  0.00  0.00    +0.130 C 
ATOM     15  C   UNL     1       7.229  -6.801  35.031  0.00  0.00    +0.119 C 
ATOM     16  C   UNL     1       7.708  -7.668  32.733  0.00  0.00    +0.027 A 
ATOM     17  C   UNL     1       6.627  -7.700  31.937  0.00  0.00    +0.024 A 
ATOM     18  C   UNL     1       8.449  -9.853  31.892  0.00  0.00    +0.273 A 
ATOM     19  C   UNL     1       7.186  -9.077  36.228  0.00  0.00    +0.306 C 
ATOM     20  C   UNL     1       7.218  -9.862  31.039  0.00  0.00    +0.099 A 
ATOM     21  C   UNL     1       6.379  -8.820  31.074  0.00  0.00    +0.030 A 
ATOM     37  H   UNL     1       5.342  -8.148  36.014  0.00  0.00    +0.156 HD
ENDROOT
BRANCH   8  22
ATOM     22  C   UNL     1       4.926 -10.161  36.000  0.00  0.00    +0.035 A 
ATOM     24  C   UNL     1       4.293 -10.609  37.156  0.00  0.00    +0.024 A 
ATOM     25  C   UNL     1       4.702 -10.799  34.783  0.00  0.00    +0.024 A 
ATOM     27  C   UNL     1       3.430 -11.703  37.095  0.00  0.00    +0.013 A 
ATOM     28  C   UNL     1       3.839 -11.893  34.722  0.00  0.00    +0.013 A 
ATOM     29  C   UNL     1       3.203 -12.345  35.878  0.00  0.00    +0.017 A 
BRANCH  29  32
ATOM      5  O   UNL     1       1.540 -13.767  36.760  0.00  0.00    -0.292 OA
ATOM     32  C   UNL     1       2.303 -13.485  35.813  0.00  0.00    +0.160 C 
ATOM     36  C   UNL     1       2.270 -14.369  34.572  0.00  0.00    +0.091 C 
ENDBRANCH  29  32
ENDBRANCH   8  22
BRANCH  20   9
ATOM      4  O   UNL     1       5.946 -12.298  31.809  0.00  0.00    -0.270 OA
ATOM      9  N   UNL     1       7.002 -10.944  30.239  0.00  0.00    -0.277 N 
ATOM     23  C   UNL     1       6.375 -12.105  30.674  0.00  0.00    +0.248 C 
ATOM     38  H   UNL     1       7.461 -10.911  29.336  0.00  0.00    +0.155 HD
BRANCH  23  26
ATOM      1  F   UNL     1       5.747 -16.101  26.825  0.00  0.00    -0.205 F 
ATOM     26  C   UNL     1       6.208 -13.168  29.650  0.00  0.00    +0.037 A 
ATOM     30  C   UNL     1       5.025 -13.875  29.612  0.00  0.00    +0.016 A 
ATOM     31  C   UNL     1       7.242 -13.415  28.771  0.00  0.00    +0.016 A 
ATOM     33  C   UNL     1       4.867 -14.874  28.650  0.00  0.00    +0.039 A 
ATOM     34  C   UNL     1       7.085 -14.412  27.808  0.00  0.00    +0.039 A 
ATOM     35  C   UNL     1       5.897 -15.142  27.748  0.00  0.00    +0.123 A 
ENDBRANCH  23  26
ENDBRANCH  20   9
TORSDOF 4
ENDMDL
