REMARK  Name = 51136977
REMARK  11 active torsions:
REMARK  status: ('A' for Active; 'I' for Inactive)
REMARK    1  A    between atoms: O_6  and  C_15
REMARK    2  A    between atoms: O_7  and  C_22
REMARK    3  A    between atoms: O_9  and  C_34
REMARK    4  A    between atoms: O_9  and  C_37
REMARK    5  A    between atoms: N_10  and  C_13
REMARK    6  A    between atoms: N_11  and  C_23
REMARK    7  A    between atoms: N_12  and  C_19
REMARK    8  A    between atoms: C_14  and  C_19
REMARK    9  A    between atoms: C_16  and  C_22
REMARK   10  A    between atoms: C_24  and  C_29
REMARK   11  A    between atoms: C_27  and  C_31
REMARK                            x       y       z     vdW  Elec       q    Type
REMARK                         _______ _______ _______ _____ _____    ______ ____
ROOT
ATOM      5  O   UNL     1      -2.404  -2.155   0.879  0.00  0.00    -0.365 OA
ATOM     13  C   UNL     1      -0.036  -2.115   0.640  0.00  0.00    +0.118 C 
ATOM     14  C   UNL     1      -1.288  -1.241   0.787  0.00  0.00    +0.155 C 
ATOM     15  C   UNL     1      -0.579  -3.391   0.015  0.00  0.00    +0.165 C 
ATOM     16  C   UNL     1      -1.921  -3.504   0.729  0.00  0.00    +0.174 C 
ENDROOT
BRANCH  13  10
ATOM     10  N   UNL     1       1.088  -1.514  -0.057  0.00  0.00    -0.292 NA
ATOM     11  N   UNL     1       3.771  -0.582  -0.361  0.00  0.00    -0.327 N 
ATOM     17  C   UNL     1       2.198  -2.468  -0.163  0.00  0.00    +0.104 C 
ATOM     18  C   UNL     1       1.536  -0.301   0.639  0.00  0.00    +0.104 C 
ATOM     20  C   UNL     1       3.369  -1.866  -0.945  0.00  0.00    +0.120 C 
ATOM     21  C   UNL     1       2.683   0.373  -0.117  0.00  0.00    +0.120 C 
BRANCH  11  23
ATOM     23  C   UNL     1       5.048  -0.073  -0.619  0.00  0.00    +0.030 A 
ATOM     25  C   UNL     1       5.686   0.725   0.331  0.00  0.00    +0.035 A 
ATOM     26  C   UNL     1       5.685  -0.362  -1.826  0.00  0.00    +0.023 A 
ATOM     27  C   UNL     1       6.959   1.234   0.074  0.00  0.00    +0.057 A 
ATOM     28  C   UNL     1       6.958   0.146  -2.083  0.00  0.00    +0.002 A 
ATOM     30  C   UNL     1       7.595   0.944  -1.133  0.00  0.00    +0.012 A 
BRANCH  27  31
ATOM      2  F   UNL     1       8.875   2.503   0.683  0.00  0.00    -0.166 F 
ATOM      3  F   UNL     1       6.952   3.228   1.395  0.00  0.00    -0.166 F 
ATOM      4  F   UNL     1       7.839   1.460   2.286  0.00  0.00    -0.166 F 
ATOM     31  C   UNL     1       7.639   2.087   1.089  0.00  0.00    +0.417 C 
ENDBRANCH  27  31
ENDBRANCH  11  23
ENDBRANCH  13  10
BRANCH  15   6
ATOM      6  O   UNL     1      -0.774  -3.242  -1.386  0.00  0.00    -0.388 OA
ATOM     38  H   UNL     1      -1.018  -4.113  -1.743  0.00  0.00    +0.210 HD
ENDBRANCH  15   6
BRANCH  14  19
ATOM     19  C   UNL     1      -1.588  -0.277  -0.356  0.00  0.00    +0.137 C 
BRANCH  19  12
ATOM      8  O   UNL     1      -4.265  -1.006  -1.093  0.00  0.00    -0.270 OA
ATOM     12  N   UNL     1      -2.780   0.473  -0.098  0.00  0.00    -0.309 N 
ATOM     24  C   UNL     1      -4.044   0.043  -0.493  0.00  0.00    +0.246 C 
ATOM     39  H   UNL     1      -2.690   1.352   0.403  0.00  0.00    +0.149 HD
BRANCH  24  29
ATOM      1 CL   UNL     1      -6.323  -1.056   1.280  0.00  0.00    -0.083 Cl
ATOM     29  C   UNL     1      -5.178   0.949  -0.174  0.00  0.00    +0.058 A 
ATOM     32  C   UNL     1      -5.149   2.243  -0.692  0.00  0.00    +0.060 A 
ATOM     33  C   UNL     1      -6.249   0.538   0.619  0.00  0.00    +0.053 A 
ATOM     34  C   UNL     1      -6.193   3.127  -0.417  0.00  0.00    +0.121 A 
ATOM     35  C   UNL     1      -7.293   1.422   0.894  0.00  0.00    +0.024 A 
ATOM     36  C   UNL     1      -7.264   2.717   0.376  0.00  0.00    +0.047 A 
BRANCH  34   9
ATOM      9  O   UNL     1      -6.165   4.391  -0.922  0.00  0.00    -0.495 OA
ATOM     37  C   UNL     1      -7.265   5.242  -0.601  0.00  0.00    +0.277 C 
ENDBRANCH  34   9
ENDBRANCH  24  29
ENDBRANCH  19  12
ENDBRANCH  14  19
BRANCH  16  22
ATOM     22  C   UNL     1      -2.972  -4.335   0.016  0.00  0.00    +0.190 C 
BRANCH  22   7
ATOM      7  O   UNL     1      -4.152  -4.356   0.803  0.00  0.00    -0.392 OA
ATOM     40  H   UNL     1      -4.805  -4.895   0.326  0.00  0.00    +0.210 HD
ENDBRANCH  22   7
ENDBRANCH  16  22
TORSDOF 10
