MODEL 1
REMARK VINA RESULT:      -6.3      0.000      0.000
REMARK  Name = 11912218
REMARK  7 active torsions:
REMARK  status: ('A' for Active; 'I' for Inactive)
REMARK    1  A    between atoms: N_4  and  C_18
REMARK    2  A    between atoms: C_5  and  C_14
REMARK    3  A    between atoms: C_6  and  C_15
REMARK    4  A    between atoms: C_7  and  C_13
REMARK    5  A    between atoms: C_14  and  C_16
REMARK    6  A    between atoms: C_15  and  C_17
REMARK    7  A    between atoms: C_18  and  C_19
REMARK                            x       y       z     vdW  Elec       q    Type
REMARK                         _______ _______ _______ _____ _____    ______ ____
ROOT
ATOM      1  O   UNL     1      -8.728  -9.229  17.676  0.00  0.00    -0.275 OA
ATOM      3  N   UNL     1      -7.118 -10.759  16.974  0.00  0.00    -0.301 N 
ATOM      5  C   UNL     1      -4.901 -11.850  17.211  0.00  0.00    +0.010 C 
ATOM      6  C   UNL     1      -4.401 -11.010  16.008  0.00  0.00    +0.004 C 
ATOM      8  C   UNL     1      -6.424 -12.045  17.116  0.00  0.00    +0.111 C 
ATOM     11  C   UNL     1      -5.189  -9.697  15.868  0.00  0.00    +0.023 C 
ATOM     12  C   UNL     1      -6.694  -9.954  15.831  0.00  0.00    +0.108 C 
ATOM     13  C   UNL     1      -8.135 -10.296  17.815  0.00  0.00    +0.219 C 
ENDROOT
BRANCH  13   7
ATOM      7  C   UNL     1      -8.522 -11.166  18.967  0.00  0.00    +0.075 C 
ATOM      9  C   UNL     1      -9.717 -10.795  19.794  0.00  0.00    +0.013 C 
ATOM     10  C   UNL     1      -9.778 -11.980  18.877  0.00  0.00    +0.013 C 
ENDBRANCH  13   7
BRANCH   5  14
ATOM     14  C   UNL     1      -4.523 -11.266  18.579  0.00  0.00    +0.002 C 
ATOM     16  C   UNL     1      -3.719 -12.257  19.393  0.00  0.00    +0.004 C 
ENDBRANCH   5  14
BRANCH   6  15
ATOM     15  C   UNL     1      -2.899 -10.734  16.050  0.00  0.00    +0.099 C 
BRANCH  15  17
ATOM      2  O   UNL     1      -1.643 -12.278  14.674  0.00  0.00    -0.276 OA
ATOM      4  N   UNL     1      -2.261 -10.215  13.801  0.00  0.00    -0.311 N 
ATOM     17  C   UNL     1      -2.197 -11.187  14.788  0.00  0.00    +0.214 C 
ATOM     25  H   UNL     1      -2.741  -9.339  13.985  0.00  0.00    +0.149 HD
BRANCH   4  18
ATOM     18  C   UNL     1      -1.672 -10.378  12.492  0.00  0.00    +0.139 C 
BRANCH  18  19
ATOM     19  C   UNL     1      -2.708 -10.371  11.404  0.00  0.00    -0.030 A 
ATOM     20  C   UNL     1      -3.566 -11.460  11.254  0.00  0.00    +0.005 A 
ATOM     21  C   UNL     1      -2.812  -9.277  10.547  0.00  0.00    +0.005 A 
ATOM     22  C   UNL     1      -4.529 -11.455  10.244  0.00  0.00    +0.000 A 
ATOM     23  C   UNL     1      -3.774  -9.270   9.538  0.00  0.00    +0.000 A 
ATOM     24  C   UNL     1      -4.633 -10.359   9.386  0.00  0.00    +0.000 A 
ENDBRANCH  18  19
ENDBRANCH   4  18
ENDBRANCH  15  17
ENDBRANCH   6  15
TORSDOF 6
ENDMDL
MODEL 2
REMARK VINA RESULT:      -6.2      1.682      2.577
REMARK  Name = 11912218
REMARK  7 active torsions:
REMARK  status: ('A' for Active; 'I' for Inactive)
REMARK    1  A    between atoms: N_4  and  C_18
REMARK    2  A    between atoms: C_5  and  C_14
REMARK    3  A    between atoms: C_6  and  C_15
REMARK    4  A    between atoms: C_7  and  C_13
REMARK    5  A    between atoms: C_14  and  C_16
REMARK    6  A    between atoms: C_15  and  C_17
REMARK    7  A    between atoms: C_18  and  C_19
REMARK                            x       y       z     vdW  Elec       q    Type
REMARK                         _______ _______ _______ _____ _____    ______ ____
ROOT
ATOM      1  O   UNL     1      -9.336 -10.651  19.255  0.00  0.00    -0.275 OA
ATOM      3  N   UNL     1      -7.465  -9.992  18.034  0.00  0.00    -0.301 N 
ATOM      5  C   UNL     1      -5.875 -10.295  16.151  0.00  0.00    +0.010 C 
ATOM      6  C   UNL     1      -4.831 -10.825  17.168  0.00  0.00    +0.004 C 
ATOM      8  C   UNL     1      -6.862  -9.350  16.860  0.00  0.00    +0.111 C 
ATOM     11  C   UNL     1      -5.508 -11.443  18.403  0.00  0.00    +0.023 C 
ATOM     12  C   UNL     1      -6.510 -10.476  19.029  0.00  0.00    +0.108 C 
ATOM     13  C   UNL     1      -8.838 -10.134  18.258  0.00  0.00    +0.219 C 
ENDROOT
BRANCH  13   7
ATOM      7  C   UNL     1      -9.762  -9.619  17.201  0.00  0.00    +0.075 C 
ATOM      9  C   UNL     1     -11.183  -9.304  17.564  0.00  0.00    +0.013 C 
ATOM     10  C   UNL     1     -10.220  -8.193  17.265  0.00  0.00    +0.013 C 
ENDBRANCH  13   7
BRANCH   5  14
ATOM     14  C   UNL     1      -6.637 -11.399  15.407  0.00  0.00    +0.002 C 
ATOM     16  C   UNL     1      -7.600 -10.813  14.397  0.00  0.00    +0.004 C 
ENDBRANCH   5  14
BRANCH   6  15
ATOM     15  C   UNL     1      -3.837 -11.807  16.551  0.00  0.00    +0.099 C 
BRANCH  15  17
ATOM      2  O   UNL     1      -2.069 -10.270  15.946  0.00  0.00    -0.276 OA
ATOM      4  N   UNL     1      -3.035 -11.600  14.304  0.00  0.00    -0.311 N 
ATOM     17  C   UNL     1      -2.876 -11.128  15.598  0.00  0.00    +0.214 C 
ATOM     25  H   UNL     1      -3.730 -12.315  14.108  0.00  0.00    +0.149 HD
BRANCH   4  18
ATOM     18  C   UNL     1      -2.249 -11.126  13.188  0.00  0.00    +0.139 C 
BRANCH  18  19
ATOM     19  C   UNL     1      -3.085 -10.372  12.193  0.00  0.00    -0.030 A 
ATOM     20  C   UNL     1      -4.445 -10.176  12.431  0.00  0.00    +0.005 A 
ATOM     21  C   UNL     1      -2.500  -9.866  11.033  0.00  0.00    +0.005 A 
ATOM     22  C   UNL     1      -5.221  -9.476  11.508  0.00  0.00    +0.000 A 
ATOM     23  C   UNL     1      -3.275  -9.165  10.110  0.00  0.00    +0.000 A 
ATOM     24  C   UNL     1      -4.636  -8.970  10.347  0.00  0.00    +0.000 A 
ENDBRANCH  18  19
ENDBRANCH   4  18
ENDBRANCH  15  17
ENDBRANCH   6  15
TORSDOF 6
ENDMDL
MODEL 3
REMARK VINA RESULT:      -6.1     26.496     29.006
REMARK  Name = 11912218
REMARK  7 active torsions:
REMARK  status: ('A' for Active; 'I' for Inactive)
REMARK    1  A    between atoms: N_4  and  C_18
REMARK    2  A    between atoms: C_5  and  C_14
REMARK    3  A    between atoms: C_6  and  C_15
REMARK    4  A    between atoms: C_7  and  C_13
REMARK    5  A    between atoms: C_14  and  C_16
REMARK    6  A    between atoms: C_15  and  C_17
REMARK    7  A    between atoms: C_18  and  C_19
REMARK                            x       y       z     vdW  Elec       q    Type
REMARK                         _______ _______ _______ _____ _____    ______ ____
ROOT
ATOM      1  O   UNL     1      15.539  10.196  14.404  0.00  0.00    -0.275 OA
ATOM      3  N   UNL     1      14.033   9.944  16.163  0.00  0.00    -0.301 N 
ATOM      5  C   UNL     1      13.532   9.685  18.581  0.00  0.00    +0.010 C 
ATOM      6  C   UNL     1      13.238   8.185  18.320  0.00  0.00    +0.004 C 
ATOM      8  C   UNL     1      13.283  10.496  17.297  0.00  0.00    +0.111 C 
ATOM     11  C   UNL     1      14.006   7.662  17.094  0.00  0.00    +0.023 C 
ATOM     12  C   UNL     1      13.757   8.539  15.869  0.00  0.00    +0.108 C 
ATOM     13  C   UNL     1      14.933  10.660  15.367  0.00  0.00    +0.219 C 
ENDROOT
BRANCH  13   7
ATOM      7  C   UNL     1      15.172  12.092  15.721  0.00  0.00    +0.075 C 
ATOM      9  C   UNL     1      16.385  12.453  16.527  0.00  0.00    +0.013 C 
ATOM     10  C   UNL     1      16.311  12.823  15.075  0.00  0.00    +0.013 C 
ENDBRANCH  13   7
BRANCH   5  14
ATOM     14  C   UNL     1      14.941   9.959  19.119  0.00  0.00    +0.002 C 
ATOM     16  C   UNL     1      15.003  11.293  19.833  0.00  0.00    +0.004 C 
ENDBRANCH   5  14
BRANCH   6  15
ATOM     15  C   UNL     1      13.502   7.300  19.538  0.00  0.00    +0.099 C 
BRANCH  15  17
ATOM      2  O   UNL     1      11.478   6.479  20.578  0.00  0.00    -0.276 OA
ATOM      4  N   UNL     1      12.445   8.444  21.357  0.00  0.00    -0.311 N 
ATOM     17  C   UNL     1      12.360   7.333  20.530  0.00  0.00    +0.214 C 
ATOM     25  H   UNL     1      13.212   9.100  21.244  0.00  0.00    +0.149 HD
BRANCH   4  18
ATOM     18  C   UNL     1      11.483   8.730  22.396  0.00  0.00    +0.139 C 
BRANCH  18  19
ATOM     19  C   UNL     1      11.297  10.206  22.599  0.00  0.00    -0.030 A 
ATOM     20  C   UNL     1      10.884  10.692  23.839  0.00  0.00    +0.005 A 
ATOM     21  C   UNL     1      11.539  11.090  21.549  0.00  0.00    +0.005 A 
ATOM     22  C   UNL     1      10.711  12.063  24.029  0.00  0.00    +0.000 A 
ATOM     23  C   UNL     1      11.367  12.461  21.737  0.00  0.00    +0.000 A 
ATOM     24  C   UNL     1      10.953  12.948  22.977  0.00  0.00    +0.000 A 
ENDBRANCH  18  19
ENDBRANCH   4  18
ENDBRANCH  15  17
ENDBRANCH   6  15
TORSDOF 6
ENDMDL
MODEL 4
REMARK VINA RESULT:      -6.1      2.408      8.110
REMARK  Name = 11912218
REMARK  7 active torsions:
REMARK  status: ('A' for Active; 'I' for Inactive)
REMARK    1  A    between atoms: N_4  and  C_18
REMARK    2  A    between atoms: C_5  and  C_14
REMARK    3  A    between atoms: C_6  and  C_15
REMARK    4  A    between atoms: C_7  and  C_13
REMARK    5  A    between atoms: C_14  and  C_16
REMARK    6  A    between atoms: C_15  and  C_17
REMARK    7  A    between atoms: C_18  and  C_19
REMARK                            x       y       z     vdW  Elec       q    Type
REMARK                         _______ _______ _______ _____ _____    ______ ____
ROOT
ATOM      1  O   UNL     1      -4.194 -13.287   7.726  0.00  0.00    -0.275 OA
ATOM      3  N   UNL     1      -4.620 -12.094   9.681  0.00  0.00    -0.301 N 
ATOM      5  C   UNL     1      -4.166 -10.199  11.218  0.00  0.00    +0.010 C 
ATOM      6  C   UNL     1      -3.444 -11.190  12.167  0.00  0.00    +0.004 C 
ATOM      8  C   UNL     1      -5.215 -10.948  10.378  0.00  0.00    +0.111 C 
ATOM     11  C   UNL     1      -2.881 -12.399  11.400  0.00  0.00    +0.023 C 
ATOM     12  C   UNL     1      -3.958 -13.067  10.548  0.00  0.00    +0.108 C 
ATOM     13  C   UNL     1      -4.674 -12.313   8.300  0.00  0.00    +0.219 C 
ENDROOT
BRANCH  13   7
ATOM      7  C   UNL     1      -5.364 -11.281   7.469  0.00  0.00    +0.075 C 
ATOM      9  C   UNL     1      -5.114 -11.247   5.990  0.00  0.00    +0.013 C 
ATOM     10  C   UNL     1      -6.440 -11.711   6.517  0.00  0.00    +0.013 C 
ENDBRANCH  13   7
BRANCH   5  14
ATOM     14  C   UNL     1      -3.219  -9.409  10.305  0.00  0.00    +0.002 C 
ATOM     16  C   UNL     1      -3.986  -8.688   9.217  0.00  0.00    +0.004 C 
ENDBRANCH   5  14
BRANCH   6  15
ATOM     15  C   UNL     1      -2.353 -10.531  13.008  0.00  0.00    +0.099 C 
BRANCH  15  17
ATOM      2  O   UNL     1      -1.605 -11.996  14.783  0.00  0.00    -0.276 OA
ATOM      4  N   UNL     1      -3.198 -10.368  15.243  0.00  0.00    -0.311 N 
ATOM     17  C   UNL     1      -2.320 -11.064  14.425  0.00  0.00    +0.214 C 
ATOM     25  H   UNL     1      -3.752  -9.608  14.859  0.00  0.00    +0.149 HD
BRANCH   4  18
ATOM     18  C   UNL     1      -3.375 -10.665  16.646  0.00  0.00    +0.139 C 
BRANCH  18  19
ATOM     19  C   UNL     1      -4.774 -10.379  17.109  0.00  0.00    -0.030 A 
ATOM     20  C   UNL     1      -5.170 -10.741  18.396  0.00  0.00    +0.005 A 
ATOM     21  C   UNL     1      -5.677  -9.749  16.253  0.00  0.00    +0.005 A 
ATOM     22  C   UNL     1      -6.470 -10.475  18.827  0.00  0.00    +0.000 A 
ATOM     23  C   UNL     1      -6.976  -9.482  16.683  0.00  0.00    +0.000 A 
ATOM     24  C   UNL     1      -7.373  -9.845  17.971  0.00  0.00    +0.000 A 
ENDBRANCH  18  19
ENDBRANCH   4  18
ENDBRANCH  15  17
ENDBRANCH   6  15
TORSDOF 6
ENDMDL
MODEL 5
REMARK VINA RESULT:      -6.0     21.348     25.774
REMARK  Name = 11912218
REMARK  7 active torsions:
REMARK  status: ('A' for Active; 'I' for Inactive)
REMARK    1  A    between atoms: N_4  and  C_18
REMARK    2  A    between atoms: C_5  and  C_14
REMARK    3  A    between atoms: C_6  and  C_15
REMARK    4  A    between atoms: C_7  and  C_13
REMARK    5  A    between atoms: C_14  and  C_16
REMARK    6  A    between atoms: C_15  and  C_17
REMARK    7  A    between atoms: C_18  and  C_19
REMARK                            x       y       z     vdW  Elec       q    Type
REMARK                         _______ _______ _______ _____ _____    ______ ____
ROOT
ATOM      1  O   UNL     1     -15.528   1.568  28.736  0.00  0.00    -0.275 OA
ATOM      3  N   UNL     1     -14.635   3.080  30.266  0.00  0.00    -0.301 N 
ATOM      5  C   UNL     1     -14.507   4.051  32.547  0.00  0.00    +0.010 C 
ATOM      6  C   UNL     1     -15.292   5.283  32.026  0.00  0.00    +0.004 C 
ATOM      8  C   UNL     1     -13.741   3.391  31.387  0.00  0.00    +0.111 C 
ATOM     11  C   UNL     1     -16.177   4.921  30.821  0.00  0.00    +0.023 C 
ATOM     12  C   UNL     1     -15.368   4.224  29.728  0.00  0.00    +0.108 C 
ATOM     13  C   UNL     1     -14.796   1.815  29.690  0.00  0.00    +0.219 C 
ENDROOT
BRANCH  13   7
ATOM      7  C   UNL     1     -14.018   0.687  30.287  0.00  0.00    +0.075 C 
ATOM      9  C   UNL     1     -14.750  -0.533  30.763  0.00  0.00    +0.013 C 
ATOM     10  C   UNL     1     -13.901  -0.601  29.527  0.00  0.00    +0.013 C 
ENDBRANCH  13   7
BRANCH   5  14
ATOM     14  C   UNL     1     -15.379   3.015  33.267  0.00  0.00    +0.002 C 
ATOM     16  C   UNL     1     -14.562   1.812  33.689  0.00  0.00    +0.004 C 
ENDBRANCH   5  14
BRANCH   6  15
ATOM     15  C   UNL     1     -16.117   5.972  33.111  0.00  0.00    +0.099 C 
BRANCH  15  17
ATOM      2  O   UNL     1     -16.547   8.315  32.685  0.00  0.00    -0.276 OA
ATOM      4  N   UNL     1     -14.665   7.704  33.905  0.00  0.00    -0.311 N 
ATOM     17  C   UNL     1     -15.830   7.456  33.194  0.00  0.00    +0.214 C 
ATOM     25  H   UNL     1     -14.135   6.928  34.291  0.00  0.00    +0.149 HD
BRANCH   4  18
ATOM     18  C   UNL     1     -14.149   9.033  34.138  0.00  0.00    +0.139 C 
BRANCH  18  19
ATOM     19  C   UNL     1     -12.754   9.195  33.607  0.00  0.00    -0.030 A 
ATOM     20  C   UNL     1     -11.772   9.791  34.397  0.00  0.00    +0.005 A 
ATOM     21  C   UNL     1     -12.439   8.747  32.324  0.00  0.00    +0.005 A 
ATOM     22  C   UNL     1     -10.476   9.942  33.905  0.00  0.00    +0.000 A 
ATOM     23  C   UNL     1     -11.144   8.896  31.831  0.00  0.00    +0.000 A 
ATOM     24  C   UNL     1     -10.161   9.494  32.622  0.00  0.00    +0.000 A 
ENDBRANCH  18  19
ENDBRANCH   4  18
ENDBRANCH  15  17
ENDBRANCH   6  15
TORSDOF 6
ENDMDL
MODEL 6
REMARK VINA RESULT:      -5.9      2.864      7.544
REMARK  Name = 11912218
REMARK  7 active torsions:
REMARK  status: ('A' for Active; 'I' for Inactive)
REMARK    1  A    between atoms: N_4  and  C_18
REMARK    2  A    between atoms: C_5  and  C_14
REMARK    3  A    between atoms: C_6  and  C_15
REMARK    4  A    between atoms: C_7  and  C_13
REMARK    5  A    between atoms: C_14  and  C_16
REMARK    6  A    between atoms: C_15  and  C_17
REMARK    7  A    between atoms: C_18  and  C_19
REMARK                            x       y       z     vdW  Elec       q    Type
REMARK                         _______ _______ _______ _____ _____    ______ ____
ROOT
ATOM      1  O   UNL     1      -4.568 -12.041  14.043  0.00  0.00    -0.275 OA
ATOM      3  N   UNL     1      -5.069 -10.876  15.997  0.00  0.00    -0.301 N 
ATOM      5  C   UNL     1      -5.389 -10.786  18.457  0.00  0.00    +0.010 C 
ATOM      6  C   UNL     1      -6.920 -10.731  18.218  0.00  0.00    +0.004 C 
ATOM      8  C   UNL     1      -4.648 -10.212  17.236  0.00  0.00    +0.111 C 
ATOM     11  C   UNL     1      -7.308 -11.394  16.885  0.00  0.00    +0.023 C 
ATOM     12  C   UNL     1      -6.503 -10.817  15.723  0.00  0.00    +0.108 C 
ATOM     13  C   UNL     1      -4.211 -11.508  15.090  0.00  0.00    +0.219 C 
ENDROOT
BRANCH  13   7
ATOM      7  C   UNL     1      -2.756 -11.535  15.429  0.00  0.00    +0.075 C 
ATOM      9  C   UNL     1      -1.772 -11.986  14.390  0.00  0.00    +0.013 C 
ATOM     10  C   UNL     1      -1.838 -10.540  14.784  0.00  0.00    +0.013 C 
ENDBRANCH  13   7
BRANCH   5  14
ATOM     14  C   UNL     1      -4.860 -12.186  18.790  0.00  0.00    +0.002 C 
ATOM     16  C   UNL     1      -3.453 -12.121  19.346  0.00  0.00    +0.004 C 
ENDBRANCH   5  14
BRANCH   6  15
ATOM     15  C   UNL     1      -7.730 -11.324  19.370  0.00  0.00    +0.099 C 
BRANCH  15  17
ATOM      2  O   UNL     1      -9.896 -12.320  18.958  0.00  0.00    -0.276 OA
ATOM      4  N   UNL     1      -9.697 -10.005  19.013  0.00  0.00    -0.311 N 
ATOM     17  C   UNL     1      -9.218 -11.304  19.094  0.00  0.00    +0.214 C 
ATOM     25  H   UNL     1      -9.061  -9.223  19.139  0.00  0.00    +0.149 HD
BRANCH   4  18
ATOM     18  C   UNL     1     -11.083  -9.689  18.755  0.00  0.00    +0.139 C 
BRANCH  18  19
ATOM     19  C   UNL     1     -11.236  -8.718  17.619  0.00  0.00    -0.030 A 
ATOM     20  C   UNL     1     -10.144  -7.960  17.199  0.00  0.00    +0.005 A 
ATOM     21  C   UNL     1     -12.469  -8.576  16.984  0.00  0.00    +0.005 A 
ATOM     22  C   UNL     1     -10.285  -7.058  16.144  0.00  0.00    +0.000 A 
ATOM     23  C   UNL     1     -12.611  -7.676  15.929  0.00  0.00    +0.000 A 
ATOM     24  C   UNL     1     -11.519  -6.917  15.509  0.00  0.00    +0.000 A 
ENDBRANCH  18  19
ENDBRANCH   4  18
ENDBRANCH  15  17
ENDBRANCH   6  15
TORSDOF 6
ENDMDL
MODEL 7
REMARK VINA RESULT:      -5.9      2.769      7.065
REMARK  Name = 11912218
REMARK  7 active torsions:
REMARK  status: ('A' for Active; 'I' for Inactive)
REMARK    1  A    between atoms: N_4  and  C_18
REMARK    2  A    between atoms: C_5  and  C_14
REMARK    3  A    between atoms: C_6  and  C_15
REMARK    4  A    between atoms: C_7  and  C_13
REMARK    5  A    between atoms: C_14  and  C_16
REMARK    6  A    between atoms: C_15  and  C_17
REMARK    7  A    between atoms: C_18  and  C_19
REMARK                            x       y       z     vdW  Elec       q    Type
REMARK                         _______ _______ _______ _____ _____    ______ ____
ROOT
ATOM      1  O   UNL     1      -8.829  -9.565  11.043  0.00  0.00    -0.275 OA
ATOM      3  N   UNL     1      -6.579  -9.071  11.384  0.00  0.00    -0.301 N 
ATOM      5  C   UNL     1      -4.168  -9.506  10.981  0.00  0.00    +0.010 C 
ATOM      6  C   UNL     1      -4.083 -10.133  12.396  0.00  0.00    +0.004 C 
ATOM      8  C   UNL     1      -5.314  -8.480  10.932  0.00  0.00    +0.111 C 
ATOM     11  C   UNL     1      -5.442 -10.694  12.849  0.00  0.00    +0.023 C 
ATOM     12  C   UNL     1      -6.544  -9.644  12.728  0.00  0.00    +0.108 C 
ATOM     13  C   UNL     1      -7.768  -9.090  10.648  0.00  0.00    +0.219 C 
ENDROOT
BRANCH  13   7
ATOM      7  C   UNL     1      -7.736  -8.488   9.280  0.00  0.00    +0.075 C 
ATOM      9  C   UNL     1      -8.711  -8.971   8.247  0.00  0.00    +0.013 C 
ATOM     10  C   UNL     1      -8.867  -7.604   8.846  0.00  0.00    +0.013 C 
ENDBRANCH  13   7
BRANCH   5  14
ATOM     14  C   UNL     1      -4.324 -10.532   9.852  0.00  0.00    +0.002 C 
ATOM     16  C   UNL     1      -4.537  -9.849   8.518  0.00  0.00    +0.004 C 
ENDBRANCH   5  14
BRANCH   6  15
ATOM     15  C   UNL     1      -2.994 -11.198  12.517  0.00  0.00    +0.099 C 
BRANCH  15  17
ATOM      2  O   UNL     1      -2.738 -12.839  14.276  0.00  0.00    -0.276 OA
ATOM      4  N   UNL     1      -2.703 -10.578  14.813  0.00  0.00    -0.311 N 
ATOM     17  C   UNL     1      -2.798 -11.657  13.946  0.00  0.00    +0.214 C 
ATOM     25  H   UNL     1      -2.764  -9.632  14.449  0.00  0.00    +0.149 HD
BRANCH   4  18
ATOM     18  C   UNL     1      -2.516 -10.723  16.238  0.00  0.00    +0.139 C 
BRANCH  18  19
ATOM     19  C   UNL     1      -3.824 -10.760  16.975  0.00  0.00    -0.030 A 
ATOM     20  C   UNL     1      -3.934 -11.486  18.161  0.00  0.00    +0.005 A 
ATOM     21  C   UNL     1      -4.926 -10.069  16.475  0.00  0.00    +0.005 A 
ATOM     22  C   UNL     1      -5.148 -11.520  18.847  0.00  0.00    +0.000 A 
ATOM     23  C   UNL     1      -6.140 -10.102  17.160  0.00  0.00    +0.000 A 
ATOM     24  C   UNL     1      -6.252 -10.829  18.346  0.00  0.00    +0.000 A 
ENDBRANCH  18  19
ENDBRANCH   4  18
ENDBRANCH  15  17
ENDBRANCH   6  15
TORSDOF 6
ENDMDL
MODEL 8
REMARK VINA RESULT:      -5.7     21.494     24.411
REMARK  Name = 11912218
REMARK  7 active torsions:
REMARK  status: ('A' for Active; 'I' for Inactive)
REMARK    1  A    between atoms: N_4  and  C_18
REMARK    2  A    between atoms: C_5  and  C_14
REMARK    3  A    between atoms: C_6  and  C_15
REMARK    4  A    between atoms: C_7  and  C_13
REMARK    5  A    between atoms: C_14  and  C_16
REMARK    6  A    between atoms: C_15  and  C_17
REMARK    7  A    between atoms: C_18  and  C_19
REMARK                            x       y       z     vdW  Elec       q    Type
REMARK                         _______ _______ _______ _____ _____    ______ ____
ROOT
ATOM      1  O   UNL     1     -11.990  11.582  16.093  0.00  0.00    -0.275 OA
ATOM      3  N   UNL     1     -11.253  10.902  18.195  0.00  0.00    -0.301 N 
ATOM      5  C   UNL     1     -11.246   9.292  20.085  0.00  0.00    +0.010 C 
ATOM      6  C   UNL     1     -12.122  10.288  20.887  0.00  0.00    +0.004 C 
ATOM      8  C   UNL     1     -10.407  10.055  19.044  0.00  0.00    +0.111 C 
ATOM     11  C   UNL     1     -12.953  11.188  19.956  0.00  0.00    +0.023 C 
ATOM     12  C   UNL     1     -12.070  11.875  18.917  0.00  0.00    +0.108 C 
ATOM     13  C   UNL     1     -11.298  10.853  16.798  0.00  0.00    +0.219 C 
ENDROOT
BRANCH  13   7
ATOM      7  C   UNL     1     -10.438   9.835  16.120  0.00  0.00    +0.075 C 
ATOM      9  C   UNL     1     -10.891   8.406  16.083  0.00  0.00    +0.013 C 
ATOM     10  C   UNL     1     -10.904   9.230  14.830  0.00  0.00    +0.013 C 
ENDBRANCH  13   7
BRANCH   5  14
ATOM     14  C   UNL     1     -12.040   8.168  19.407  0.00  0.00    +0.002 C 
ATOM     16  C   UNL     1     -11.561   6.807  19.866  0.00  0.00    +0.004 C 
ENDBRANCH   5  14
BRANCH   6  15
ATOM     15  C   UNL     1     -13.021   9.603  21.916  0.00  0.00    +0.099 C 
BRANCH  15  17
ATOM      2  O   UNL     1     -14.468  10.641  23.553  0.00  0.00    -0.276 OA
ATOM      4  N   UNL     1     -12.199  11.147  23.553  0.00  0.00    -0.311 N 
ATOM     17  C   UNL     1     -13.339  10.505  23.090  0.00  0.00    +0.214 C 
ATOM     25  H   UNL     1     -11.305  10.973  23.106  0.00  0.00    +0.149 HD
BRANCH   4  18
ATOM     18  C   UNL     1     -12.210  12.070  24.665  0.00  0.00    +0.139 C 
BRANCH  18  19
ATOM     19  C   UNL     1     -11.934  11.381  25.970  0.00  0.00    -0.030 A 
ATOM     20  C   UNL     1     -10.839  10.525  26.088  0.00  0.00    +0.005 A 
ATOM     21  C   UNL     1     -12.770  11.598  27.064  0.00  0.00    +0.005 A 
ATOM     22  C   UNL     1     -10.581   9.885  27.300  0.00  0.00    +0.000 A 
ATOM     23  C   UNL     1     -12.513  10.959  28.277  0.00  0.00    +0.000 A 
ATOM     24  C   UNL     1     -11.418  10.102  28.395  0.00  0.00    +0.000 A 
ENDBRANCH  18  19
ENDBRANCH   4  18
ENDBRANCH  15  17
ENDBRANCH   6  15
TORSDOF 6
ENDMDL
MODEL 9
REMARK VINA RESULT:      -5.6      2.882      7.544
REMARK  Name = 11912218
REMARK  7 active torsions:
REMARK  status: ('A' for Active; 'I' for Inactive)
REMARK    1  A    between atoms: N_4  and  C_18
REMARK    2  A    between atoms: C_5  and  C_14
REMARK    3  A    between atoms: C_6  and  C_15
REMARK    4  A    between atoms: C_7  and  C_13
REMARK    5  A    between atoms: C_14  and  C_16
REMARK    6  A    between atoms: C_15  and  C_17
REMARK    7  A    between atoms: C_18  and  C_19
REMARK                            x       y       z     vdW  Elec       q    Type
REMARK                         _______ _______ _______ _____ _____    ______ ____
ROOT
ATOM      1  O   UNL     1      -3.306 -15.480  15.007  0.00  0.00    -0.275 OA
ATOM      3  N   UNL     1      -4.269 -13.368  15.201  0.00  0.00    -0.301 N 
ATOM      5  C   UNL     1      -4.244 -11.031  16.039  0.00  0.00    +0.010 C 
ATOM      6  C   UNL     1      -5.304 -11.439  17.096  0.00  0.00    +0.004 C 
ATOM      8  C   UNL     1      -4.347 -11.955  14.813  0.00  0.00    +0.111 C 
ATOM     11  C   UNL     1      -5.217 -12.938  17.434  0.00  0.00    +0.023 C 
ATOM     12  C   UNL     1      -5.274 -13.796  16.172  0.00  0.00    +0.108 C 
ATOM     13  C   UNL     1      -3.349 -14.293  14.695  0.00  0.00    +0.219 C 
ENDROOT
BRANCH  13   7
ATOM      7  C   UNL     1      -2.348 -13.792  13.705  0.00  0.00    +0.075 C 
ATOM      9  C   UNL     1      -1.502 -14.780  12.958  0.00  0.00    +0.013 C 
ATOM     10  C   UNL     1      -2.586 -14.028  12.243  0.00  0.00    +0.013 C 
ENDBRANCH  13   7
BRANCH   5  14
ATOM     14  C   UNL     1      -2.806 -11.014  16.573  0.00  0.00    +0.002 C 
ATOM     16  C   UNL     1      -1.829 -10.598  15.494  0.00  0.00    +0.004 C 
ENDBRANCH   5  14
BRANCH   6  15
ATOM     15  C   UNL     1      -5.239 -10.596  18.368  0.00  0.00    +0.099 C 
BRANCH  15  17
ATOM      2  O   UNL     1      -6.614 -10.690  20.356  0.00  0.00    -0.276 OA
ATOM      4  N   UNL     1      -7.631 -10.528  18.273  0.00  0.00    -0.311 N 
ATOM     17  C   UNL     1      -6.546 -10.611  19.132  0.00  0.00    +0.214 C 
ATOM     25  H   UNL     1      -7.479 -10.465  17.271  0.00  0.00    +0.149 HD
BRANCH   4  18
ATOM     18  C   UNL     1      -9.002 -10.525  18.730  0.00  0.00    +0.139 C 
BRANCH  18  19
ATOM     19  C   UNL     1      -9.843  -9.534  17.976  0.00  0.00    -0.030 A 
ATOM     20  C   UNL     1     -11.233  -9.638  18.003  0.00  0.00    +0.005 A 
ATOM     21  C   UNL     1      -9.234  -8.511  17.251  0.00  0.00    +0.005 A 
ATOM     22  C   UNL     1     -12.015  -8.718  17.304  0.00  0.00    +0.000 A 
ATOM     23  C   UNL     1     -10.014  -7.591  16.553  0.00  0.00    +0.000 A 
ATOM     24  C   UNL     1     -11.405  -7.694  16.578  0.00  0.00    +0.000 A 
ENDBRANCH  18  19
ENDBRANCH   4  18
ENDBRANCH  15  17
ENDBRANCH   6  15
TORSDOF 6
ENDMDL
MODEL 10
REMARK VINA RESULT:      -5.4     26.657     28.246
REMARK  Name = 11912218
REMARK  7 active torsions:
REMARK  status: ('A' for Active; 'I' for Inactive)
REMARK    1  A    between atoms: N_4  and  C_18
REMARK    2  A    between atoms: C_5  and  C_14
REMARK    3  A    between atoms: C_6  and  C_15
REMARK    4  A    between atoms: C_7  and  C_13
REMARK    5  A    between atoms: C_14  and  C_16
REMARK    6  A    between atoms: C_15  and  C_17
REMARK    7  A    between atoms: C_18  and  C_19
REMARK                            x       y       z     vdW  Elec       q    Type
REMARK                         _______ _______ _______ _____ _____    ______ ____
ROOT
ATOM      1  O   UNL     1      13.345  13.840  24.378  0.00  0.00    -0.275 OA
ATOM      3  N   UNL     1      13.234  12.287  22.645  0.00  0.00    -0.301 N 
ATOM      5  C   UNL     1      12.504  10.100  21.724  0.00  0.00    +0.010 C 
ATOM      6  C   UNL     1      13.961   9.593  21.875  0.00  0.00    +0.004 C 
ATOM      8  C   UNL     1      12.498  11.630  21.559  0.00  0.00    +0.111 C 
ATOM     11  C   UNL     1      14.708  10.343  22.991  0.00  0.00    +0.023 C 
ATOM     12  C   UNL     1      14.622  11.855  22.797  0.00  0.00    +0.108 C 
ATOM     13  C   UNL     1      12.715  13.278  23.486  0.00  0.00    +0.219 C 
ENDROOT
BRANCH  13   7
ATOM      7  C   UNL     1      11.289  13.674  23.279  0.00  0.00    +0.075 C 
ATOM      9  C   UNL     1      10.238  13.127  24.200  0.00  0.00    +0.013 C 
ATOM     10  C   UNL     1      10.629  14.573  24.281  0.00  0.00    +0.013 C 
ENDBRANCH  13   7
BRANCH   5  14
ATOM     14  C   UNL     1      11.577   9.686  22.873  0.00  0.00    +0.002 C 
ATOM     16  C   UNL     1      10.524   8.706  22.400  0.00  0.00    +0.004 C 
ENDBRANCH   5  14
BRANCH   6  15
ATOM     15  C   UNL     1      14.052   8.083  22.088  0.00  0.00    +0.099 C 
BRANCH  15  17
ATOM      2  O   UNL     1      15.058   6.674  20.398  0.00  0.00    -0.276 OA
ATOM      4  N   UNL     1      12.891   7.457  20.090  0.00  0.00    -0.311 N 
ATOM     17  C   UNL     1      14.086   7.320  20.781  0.00  0.00    +0.214 C 
ATOM     25  H   UNL     1      12.139   8.013  20.485  0.00  0.00    +0.149 HD
BRANCH   4  18
ATOM     18  C   UNL     1      12.645   6.836  18.808  0.00  0.00    +0.139 C 
BRANCH  18  19
ATOM     19  C   UNL     1      12.722   7.826  17.681  0.00  0.00    -0.030 A 
ATOM     20  C   UNL     1      11.557   8.413  17.189  0.00  0.00    +0.005 A 
ATOM     21  C   UNL     1      13.958   8.158  17.128  0.00  0.00    +0.005 A 
ATOM     22  C   UNL     1      11.628   9.333  16.142  0.00  0.00    +0.000 A 
ATOM     23  C   UNL     1      14.030   9.078  16.083  0.00  0.00    +0.000 A 
ATOM     24  C   UNL     1      12.865   9.665  15.589  0.00  0.00    +0.000 A 
ENDBRANCH  18  19
ENDBRANCH   4  18
ENDBRANCH  15  17
ENDBRANCH   6  15
TORSDOF 6
ENDMDL
