REMARK  Name = 7165013
REMARK  9 active torsions:
REMARK  status: ('A' for Active; 'I' for Inactive)
REMARK    1  A    between atoms: N_7  and  C_24
REMARK    2  A    between atoms: N_8  and  C_26
REMARK    3  A    between atoms: C_11  and  C_18
REMARK    4  A    between atoms: C_14  and  C_22
REMARK    5  A    between atoms: C_24  and  C_25
REMARK    6  A    between atoms: C_24  and  C_28
REMARK    7  A    between atoms: C_25  and  C_27
REMARK    8  A    between atoms: C_26  and  C_31
REMARK    9  A    between atoms: C_26  and  C_32
REMARK                            x       y       z     vdW  Elec       q    Type
REMARK                         _______ _______ _______ _____ _____    ______ ____
ROOT
ATOM      1  O   UNL     1       0.352  -4.599  -0.648  0.00  0.00    -0.275 OA
ATOM      3  O   UNL     1      -3.773   0.877   1.907  0.00  0.00    -0.253 OA
ATOM      5  N   UNL     1      -0.587  -2.571  -0.010  0.00  0.00    -0.287 N 
ATOM      6  N   UNL     1      -2.888  -0.975   0.820  0.00  0.00    -0.282 N 
ATOM      8  N   UNL     1      -5.151  -0.368   0.547  0.00  0.00    -0.297 N 
ATOM     14  C   UNL     1      -0.437  -1.179   0.438  0.00  0.00    +0.179 C 
ATOM     18  C   UNL     1       0.475  -3.399  -0.389  0.00  0.00    +0.219 C 
ATOM     19  C   UNL     1      -1.926  -3.155   0.089  0.00  0.00    +0.127 C 
ATOM     20  C   UNL     1      -1.555  -0.758   1.393  0.00  0.00    +0.141 C 
ATOM     21  C   UNL     1      -3.039  -2.128  -0.077  0.00  0.00    +0.128 C 
ATOM     23  C   UNL     1      -3.928  -0.086   1.149  0.00  0.00    +0.303 C 
ATOM     39  H   UNL     1      -5.207  -1.069  -0.182  0.00  0.00    +0.150 HD
ENDROOT
BRANCH  18  11
ATOM     11  C   UNL     1       1.833  -2.767  -0.464  0.00  0.00    +0.075 C 
ATOM     12  C   UNL     1       2.514  -2.833   0.905  0.00  0.00    +0.013 C 
ATOM     13  C   UNL     1       2.671  -3.457  -1.541  0.00  0.00    +0.013 C 
ATOM     15  C   UNL     1       3.938  -2.284   0.853  0.00  0.00    +0.001 C 
ATOM     16  C   UNL     1       4.094  -2.907  -1.587  0.00  0.00    +0.001 C 
ATOM     17  C   UNL     1       4.770  -2.978  -0.221  0.00  0.00    +0.000 C 
ENDBRANCH  18  11
BRANCH  14  22
ATOM      2  O   UNL     1      -0.567  -0.756  -1.912  0.00  0.00    -0.274 OA
ATOM      7  N   UNL     1      -0.257   1.038  -0.461  0.00  0.00    -0.302 N 
ATOM     22  C   UNL     1      -0.438  -0.297  -0.780  0.00  0.00    +0.236 C 
ATOM     38  H   UNL     1      -0.201   1.315   0.512  0.00  0.00    +0.150 HD
BRANCH   7  24
ATOM     24  C   UNL     1      -0.197   2.087  -1.453  0.00  0.00    +0.163 C 
BRANCH  24  28
ATOM      4  O   UNL     1      -2.508   2.562  -0.869  0.00  0.00    -0.274 OA
ATOM     10  N   UNL     1      -1.823   2.931  -3.030  0.00  0.00    -0.328 N 
ATOM     28  C   UNL     1      -1.628   2.527  -1.727  0.00  0.00    +0.231 C 
ATOM     41  H   UNL     1      -1.080   2.918  -3.722  0.00  0.00    +0.145 HD
ATOM     42  H   UNL     1      -2.729   3.262  -3.343  0.00  0.00    +0.145 HD
ENDBRANCH  24  28
BRANCH  24  25
ATOM     25  C   UNL     1       0.650   3.278  -0.989  0.00  0.00    +0.069 C 
BRANCH  25  27
ATOM      9  N   UNL     1       4.243   2.507  -0.893  0.00  0.00    -0.360 N 
ATOM     27  C   UNL     1       2.070   2.904  -0.673  0.00  0.00    -0.020 A 
ATOM     29  C   UNL     1       2.575   2.480   0.588  0.00  0.00    +0.003 A 
ATOM     30  C   UNL     1       3.119   2.910  -1.563  0.00  0.00    +0.087 A 
ATOM     33  C   UNL     1       3.941   2.238   0.422  0.00  0.00    +0.047 A 
ATOM     34  C   UNL     1       2.000   2.279   1.858  0.00  0.00    +0.010 A 
ATOM     35  C   UNL     1       4.763   1.803   1.468  0.00  0.00    +0.026 A 
ATOM     36  C   UNL     1       2.810   1.844   2.914  0.00  0.00    +0.001 A 
ATOM     37  C   UNL     1       4.170   1.610   2.719  0.00  0.00    +0.002 A 
ATOM     40  H   UNL     1       5.162   2.419  -1.305  0.00  0.00    +0.165 HD
ENDBRANCH  25  27
ENDBRANCH  24  25
ENDBRANCH   7  24
ENDBRANCH  14  22
BRANCH   8  26
ATOM     26  C   UNL     1      -6.326   0.445   0.765  0.00  0.00    +0.068 C 
ATOM     31  C   UNL     1      -6.379   1.589  -0.239  0.00  0.00    +0.027 C 
ATOM     32  C   UNL     1      -7.583  -0.412   0.692  0.00  0.00    +0.027 C 
ENDBRANCH   8  26
TORSDOF 7
