MODEL 1
REMARK VINA RESULT:      -7.4      0.000      0.000
REMARK  Name = 7144095
REMARK  4 active torsions:
REMARK  status: ('A' for Active; 'I' for Inactive)
REMARK    1  A    between atoms: O_4  and  C_26
REMARK    2  A    between atoms: O_4  and  C_29
REMARK    3  A    between atoms: C_14  and  C_19
REMARK    4  A    between atoms: C_16  and  C_20
REMARK                            x       y       z     vdW  Elec       q    Type
REMARK                         _______ _______ _______ _____ _____    ______ ____
ROOT
ATOM      1  O   UNL     1      11.184   9.128  17.157  0.00  0.00    -0.268 OA
ATOM      2  O   UNL     1      11.589  11.723  20.936  0.00  0.00    -0.267 OA
ATOM      5  N   UNL     1      12.237   8.354  19.100  0.00  0.00    -0.311 N 
ATOM      6  N   UNL     1      12.358   9.751  21.929  0.00  0.00    -0.294 N 
ATOM      7  C   UNL     1      10.909   7.859  21.239  0.00  0.00    +0.027 C 
ATOM      8  C   UNL     1      13.354   7.588  21.218  0.00  0.00    +0.054 C 
ATOM      9  C   UNL     1      12.037   6.882  21.539  0.00  0.00    +0.018 C 
ATOM     10  C   UNL     1      10.927   8.175  19.742  0.00  0.00    +0.130 C 
ATOM     11  C   UNL     1      11.047   9.127  22.098  0.00  0.00    +0.113 C 
ATOM     12  C   UNL     1      13.499   8.841  22.108  0.00  0.00    +0.117 C 
ATOM     13  C   UNL     1      13.437   7.983  19.742  0.00  0.00    +0.034 A 
ATOM     14  C   UNL     1      14.609   8.018  19.056  0.00  0.00    +0.002 A 
ATOM     15  C   UNL     1      12.202   8.804  17.769  0.00  0.00    +0.252 A 
ATOM     16  C   UNL     1      12.437  11.100  21.572  0.00  0.00    +0.282 C 
ATOM     17  C   UNL     1      14.613   8.482  17.682  0.00  0.00    +0.015 A 
ATOM     18  C   UNL     1      13.500   8.870  17.059  0.00  0.00    +0.071 A 
ENDROOT
BRANCH  14  19
ATOM     19  C   UNL     1      15.888   7.613  19.680  0.00  0.00    -0.016 A 
ATOM     21  C   UNL     1      16.420   6.356  19.411  0.00  0.00    +0.012 A 
ATOM     22  C   UNL     1      16.551   8.492  20.531  0.00  0.00    +0.012 A 
ATOM     24  C   UNL     1      17.626   5.974  20.000  0.00  0.00    +0.046 A 
ATOM     25  C   UNL     1      17.757   8.111  21.119  0.00  0.00    +0.046 A 
ATOM     26  C   UNL     1      18.295   6.852  20.853  0.00  0.00    +0.120 A 
BRANCH  26   4
ATOM      4  O   UNL     1      19.470   6.479  21.428  0.00  0.00    -0.495 OA
ATOM     29  C   UNL     1      20.392   5.756  20.613  0.00  0.00    +0.277 C 
ENDBRANCH  26   4
ENDBRANCH  14  19
BRANCH  16  20
ATOM      3  O   UNL     1      13.689  12.328  23.228  0.00  0.00    -0.458 OA
ATOM     20  C   UNL     1      13.635  11.853  21.962  0.00  0.00    +0.189 A 
ATOM     23  C   UNL     1      14.761  12.183  21.258  0.00  0.00    +0.054 A 
ATOM     27  C   UNL     1      15.574  12.917  22.156  0.00  0.00    +0.042 A 
ATOM     28  C   UNL     1      14.878  12.977  23.340  0.00  0.00    +0.196 A 
ENDBRANCH  16  20
TORSDOF 3
ENDMDL
MODEL 2
REMARK VINA RESULT:      -7.2     13.919     16.658
REMARK  Name = 7144095
REMARK  4 active torsions:
REMARK  status: ('A' for Active; 'I' for Inactive)
REMARK    1  A    between atoms: O_4  and  C_26
REMARK    2  A    between atoms: O_4  and  C_29
REMARK    3  A    between atoms: C_14  and  C_19
REMARK    4  A    between atoms: C_16  and  C_20
REMARK                            x       y       z     vdW  Elec       q    Type
REMARK                         _______ _______ _______ _____ _____    ______ ____
ROOT
ATOM      1  O   UNL     1       7.082   9.148   4.350  0.00  0.00    -0.268 OA
ATOM      2  O   UNL     1      10.858  10.186   6.766  0.00  0.00    -0.267 OA
ATOM      5  N   UNL     1       8.671   7.534   4.946  0.00  0.00    -0.311 N 
ATOM      6  N   UNL     1      11.150   7.869   6.872  0.00  0.00    -0.294 N 
ATOM      7  C   UNL     1       8.976   6.786   7.381  0.00  0.00    +0.027 C 
ATOM      8  C   UNL     1      10.415   5.853   5.618  0.00  0.00    +0.054 C 
ATOM      9  C   UNL     1       9.476   5.487   6.767  0.00  0.00    +0.018 C 
ATOM     10  C   UNL     1       8.165   7.541   6.326  0.00  0.00    +0.130 C 
ATOM     11  C   UNL     1      10.152   7.623   7.912  0.00  0.00    +0.113 C 
ATOM     12  C   UNL     1      11.609   6.665   6.165  0.00  0.00    +0.117 C 
ATOM     13  C   UNL     1       9.692   6.654   4.532  0.00  0.00    +0.034 A 
ATOM     14  C   UNL     1      10.020   6.569   3.217  0.00  0.00    +0.002 A 
ATOM     15  C   UNL     1       7.988   8.372   4.047  0.00  0.00    +0.252 A 
ATOM     16  C   UNL     1      11.544   9.180   6.593  0.00  0.00    +0.282 C 
ATOM     17  C   UNL     1       9.341   7.422   2.260  0.00  0.00    +0.015 A 
ATOM     18  C   UNL     1       8.395   8.287   2.625  0.00  0.00    +0.071 A 
ENDROOT
BRANCH  14  19
ATOM     19  C   UNL     1      11.068   5.642   2.734  0.00  0.00    -0.016 A 
ATOM     21  C   UNL     1      10.781   4.286   2.601  0.00  0.00    +0.012 A 
ATOM     22  C   UNL     1      12.330   6.131   2.415  0.00  0.00    +0.012 A 
ATOM     24  C   UNL     1      11.769   3.412   2.146  0.00  0.00    +0.046 A 
ATOM     25  C   UNL     1      13.318   5.257   1.960  0.00  0.00    +0.046 A 
ATOM     26  C   UNL     1      13.037   3.897   1.825  0.00  0.00    +0.120 A 
BRANCH  26   4
ATOM      4  O   UNL     1      14.000   3.045   1.383  0.00  0.00    -0.495 OA
ATOM     29  C   UNL     1      15.304   3.586   1.179  0.00  0.00    +0.277 C 
ENDBRANCH  26   4
ENDBRANCH  14  19
BRANCH  16  20
ATOM      3  O   UNL     1      13.923   9.448   6.892  0.00  0.00    -0.458 OA
ATOM     20  C   UNL     1      12.882   9.398   6.030  0.00  0.00    +0.189 A 
ATOM     23  C   UNL     1      13.298   9.568   4.737  0.00  0.00    +0.054 A 
ATOM     27  C   UNL     1      14.702   9.736   4.804  0.00  0.00    +0.042 A 
ATOM     28  C   UNL     1      15.033   9.655   6.136  0.00  0.00    +0.196 A 
ENDBRANCH  16  20
TORSDOF 3
ENDMDL
MODEL 3
REMARK VINA RESULT:      -6.6     13.659     17.553
REMARK  Name = 7144095
REMARK  4 active torsions:
REMARK  status: ('A' for Active; 'I' for Inactive)
REMARK    1  A    between atoms: O_4  and  C_26
REMARK    2  A    between atoms: O_4  and  C_29
REMARK    3  A    between atoms: C_14  and  C_19
REMARK    4  A    between atoms: C_16  and  C_20
REMARK                            x       y       z     vdW  Elec       q    Type
REMARK                         _______ _______ _______ _____ _____    ______ ____
ROOT
ATOM      1  O   UNL     1       8.676  10.456   2.076  0.00  0.00    -0.268 OA
ATOM      2  O   UNL     1      12.072   7.623   0.802  0.00  0.00    -0.267 OA
ATOM      5  N   UNL     1      10.122   9.458   3.625  0.00  0.00    -0.311 N 
ATOM      6  N   UNL     1      12.727   7.772   3.041  0.00  0.00    -0.294 N 
ATOM      7  C   UNL     1      12.592  10.136   3.786  0.00  0.00    +0.027 C 
ATOM      8  C   UNL     1      11.708   8.353   5.232  0.00  0.00    +0.054 C 
ATOM      9  C   UNL     1      12.473   9.676   5.231  0.00  0.00    +0.018 C 
ATOM     10  C   UNL     1      11.185  10.398   3.243  0.00  0.00    +0.130 C 
ATOM     11  C   UNL     1      13.348   9.093   2.946  0.00  0.00    +0.113 C 
ATOM     12  C   UNL     1      12.490   7.303   4.414  0.00  0.00    +0.117 C 
ATOM     13  C   UNL     1      10.298   8.516   4.660  0.00  0.00    +0.034 A 
ATOM     14  C   UNL     1       9.243   7.775   5.086  0.00  0.00    +0.002 A 
ATOM     15  C   UNL     1       8.889   9.642   2.975  0.00  0.00    +0.252 A 
ATOM     16  C   UNL     1      12.366   7.096   1.873  0.00  0.00    +0.282 C 
ATOM     17  C   UNL     1       7.956   7.934   4.435  0.00  0.00    +0.015 A 
ATOM     18  C   UNL     1       7.767   8.791   3.433  0.00  0.00    +0.071 A 
ENDROOT
BRANCH  14  19
ATOM     19  C   UNL     1       9.374   6.794   6.186  0.00  0.00    -0.016 A 
ATOM     21  C   UNL     1       9.669   5.465   5.894  0.00  0.00    +0.012 A 
ATOM     22  C   UNL     1       9.203   7.206   7.503  0.00  0.00    +0.012 A 
ATOM     24  C   UNL     1       9.793   4.540   6.931  0.00  0.00    +0.046 A 
ATOM     25  C   UNL     1       9.327   6.281   8.541  0.00  0.00    +0.046 A 
ATOM     26  C   UNL     1       9.622   4.948   8.254  0.00  0.00    +0.120 A 
BRANCH  26   4
ATOM      4  O   UNL     1       9.742   4.045   9.265  0.00  0.00    -0.495 OA
ATOM     29  C   UNL     1       9.041   4.328  10.476  0.00  0.00    +0.277 C 
ENDBRANCH  26   4
ENDBRANCH  14  19
BRANCH  16  20
ATOM      3  O   UNL     1      13.443   4.953   1.612  0.00  0.00    -0.458 OA
ATOM     20  C   UNL     1      12.310   5.630   1.909  0.00  0.00    +0.189 A 
ATOM     23  C   UNL     1      11.281   4.775   2.200  0.00  0.00    +0.054 A 
ATOM     27  C   UNL     1      11.818   3.470   2.073  0.00  0.00    +0.042 A 
ATOM     28  C   UNL     1      13.135   3.633   1.714  0.00  0.00    +0.196 A 
ENDBRANCH  16  20
TORSDOF 3
ENDMDL
MODEL 4
REMARK VINA RESULT:      -6.6     27.557     29.461
REMARK  Name = 7144095
REMARK  4 active torsions:
REMARK  status: ('A' for Active; 'I' for Inactive)
REMARK    1  A    between atoms: O_4  and  C_26
REMARK    2  A    between atoms: O_4  and  C_29
REMARK    3  A    between atoms: C_14  and  C_19
REMARK    4  A    between atoms: C_16  and  C_20
REMARK                            x       y       z     vdW  Elec       q    Type
REMARK                         _______ _______ _______ _____ _____    ______ ____
ROOT
ATOM      1  O   UNL     1      -6.994 -14.920  17.064  0.00  0.00    -0.268 OA
ATOM      2  O   UNL     1      -8.895 -10.946  18.398  0.00  0.00    -0.267 OA
ATOM      5  N   UNL     1      -6.007 -12.844  16.610  0.00  0.00    -0.311 N 
ATOM      6  N   UNL     1      -6.877 -10.006  17.684  0.00  0.00    -0.294 N 
ATOM      7  C   UNL     1      -4.987 -11.407  18.475  0.00  0.00    +0.027 C 
ATOM      8  C   UNL     1      -5.004 -10.585  16.156  0.00  0.00    +0.054 C 
ATOM      9  C   UNL     1      -4.107 -10.851  17.364  0.00  0.00    +0.018 C 
ATOM     10  C   UNL     1      -5.568 -12.744  18.009  0.00  0.00    +0.130 C 
ATOM     11  C   UNL     1      -6.088 -10.400  18.850  0.00  0.00    +0.113 C 
ATOM     12  C   UNL     1      -6.085  -9.549  16.533  0.00  0.00    +0.117 C 
ATOM     13  C   UNL     1      -5.665 -11.869  15.651  0.00  0.00    +0.034 A 
ATOM     14  C   UNL     1      -5.955 -12.078  14.340  0.00  0.00    +0.002 A 
ATOM     15  C   UNL     1      -6.683 -14.030  16.271  0.00  0.00    +0.252 A 
ATOM     16  C   UNL     1      -8.268 -10.134  17.719  0.00  0.00    +0.282 C 
ATOM     17  C   UNL     1      -6.656 -13.288  13.954  0.00  0.00    +0.015 A 
ATOM     18  C   UNL     1      -7.022 -14.212  14.841  0.00  0.00    +0.071 A 
ENDROOT
BRANCH  14  19
ATOM     19  C   UNL     1      -5.593 -11.095  13.296  0.00  0.00    -0.016 A 
ATOM     21  C   UNL     1      -4.348 -11.171  12.679  0.00  0.00    +0.012 A 
ATOM     22  C   UNL     1      -6.499 -10.102  12.937  0.00  0.00    +0.012 A 
ATOM     24  C   UNL     1      -4.006 -10.243  11.694  0.00  0.00    +0.046 A 
ATOM     25  C   UNL     1      -6.157  -9.174  11.953  0.00  0.00    +0.046 A 
ATOM     26  C   UNL     1      -4.910  -9.246  11.331  0.00  0.00    +0.120 A 
BRANCH  26   4
ATOM      4  O   UNL     1      -4.576  -8.341  10.372  0.00  0.00    -0.495 OA
ATOM     29  C   UNL     1      -4.075  -8.855   9.139  0.00  0.00    +0.277 C 
ENDBRANCH  26   4
ENDBRANCH  14  19
BRANCH  16  20
ATOM      3  O   UNL     1      -9.415  -8.040  17.374  0.00  0.00    -0.458 OA
ATOM     20  C   UNL     1      -9.069  -9.247  16.868  0.00  0.00    +0.189 A 
ATOM     23  C   UNL     1      -9.557  -9.414  15.600  0.00  0.00    +0.054 A 
ATOM     27  C   UNL     1     -10.258  -8.220  15.299  0.00  0.00    +0.042 A 
ATOM     28  C   UNL     1     -10.141  -7.418  16.409  0.00  0.00    +0.196 A 
ENDBRANCH  16  20
TORSDOF 3
ENDMDL
MODEL 5
REMARK VINA RESULT:      -6.3      1.949      3.934
REMARK  Name = 7144095
REMARK  4 active torsions:
REMARK  status: ('A' for Active; 'I' for Inactive)
REMARK    1  A    between atoms: O_4  and  C_26
REMARK    2  A    between atoms: O_4  and  C_29
REMARK    3  A    between atoms: C_14  and  C_19
REMARK    4  A    between atoms: C_16  and  C_20
REMARK                            x       y       z     vdW  Elec       q    Type
REMARK                         _______ _______ _______ _____ _____    ______ ____
ROOT
ATOM      1  O   UNL     1      10.130   9.802  22.806  0.00  0.00    -0.268 OA
ATOM      2  O   UNL     1      12.059  12.861  19.960  0.00  0.00    -0.267 OA
ATOM      5  N   UNL     1      12.448   9.932  22.491  0.00  0.00    -0.311 N 
ATOM      6  N   UNL     1      14.069  12.123  20.898  0.00  0.00    -0.294 N 
ATOM      7  C   UNL     1      13.810  11.926  23.358  0.00  0.00    +0.027 C 
ATOM      8  C   UNL     1      14.924  10.126  22.105  0.00  0.00    +0.054 C 
ATOM      9  C   UNL     1      14.962  10.932  23.402  0.00  0.00    +0.018 C 
ATOM     10  C   UNL     1      12.495  11.143  23.322  0.00  0.00    +0.130 C 
ATOM     11  C   UNL     1      13.952  12.868  22.150  0.00  0.00    +0.113 C 
ATOM     12  C   UNL     1      15.100  11.075  20.900  0.00  0.00    +0.117 C 
ATOM     13  C   UNL     1      13.616   9.343  21.966  0.00  0.00    +0.034 A 
ATOM     14  C   UNL     1      13.544   8.141  21.337  0.00  0.00    +0.002 A 
ATOM     15  C   UNL     1      11.180   9.339  22.357  0.00  0.00    +0.252 A 
ATOM     16  C   UNL     1      13.196  12.406  19.845  0.00  0.00    +0.282 C 
ATOM     17  C   UNL     1      12.252   7.502  21.176  0.00  0.00    +0.015 A 
ATOM     18  C   UNL     1      11.126   8.049  21.632  0.00  0.00    +0.071 A 
ENDROOT
BRANCH  14  19
ATOM     19  C   UNL     1      14.747   7.473  20.793  0.00  0.00    -0.016 A 
ATOM     21  C   UNL     1      15.777   7.101  21.651  0.00  0.00    +0.012 A 
ATOM     22  C   UNL     1      14.840   7.222  19.428  0.00  0.00    +0.012 A 
ATOM     24  C   UNL     1      16.912   6.471  21.138  0.00  0.00    +0.046 A 
ATOM     25  C   UNL     1      15.975   6.592  18.915  0.00  0.00    +0.046 A 
ATOM     26  C   UNL     1      17.011   6.217  19.771  0.00  0.00    +0.120 A 
BRANCH  26   4
ATOM      4  O   UNL     1      18.117   5.604  19.270  0.00  0.00    -0.495 OA
ATOM     29  C   UNL     1      19.227   5.442  20.154  0.00  0.00    +0.277 C 
ENDBRANCH  26   4
ENDBRANCH  14  19
BRANCH  16  20
ATOM      3  O   UNL     1      13.374  10.905  17.965  0.00  0.00    -0.458 OA
ATOM     20  C   UNL     1      13.645  12.129  18.476  0.00  0.00    +0.189 A 
ATOM     23  C   UNL     1      14.318  12.907  17.573  0.00  0.00    +0.054 A 
ATOM     27  C   UNL     1      14.475  12.105  16.416  0.00  0.00    +0.042 A 
ATOM     28  C   UNL     1      13.884  10.897  16.705  0.00  0.00    +0.196 A 
ENDBRANCH  16  20
TORSDOF 3
ENDMDL
MODEL 6
REMARK VINA RESULT:      -6.3     25.361     28.080
REMARK  Name = 7144095
REMARK  4 active torsions:
REMARK  status: ('A' for Active; 'I' for Inactive)
REMARK    1  A    between atoms: O_4  and  C_26
REMARK    2  A    between atoms: O_4  and  C_29
REMARK    3  A    between atoms: C_14  and  C_19
REMARK    4  A    between atoms: C_16  and  C_20
REMARK                            x       y       z     vdW  Elec       q    Type
REMARK                         _______ _______ _______ _____ _____    ______ ____
ROOT
ATOM      1  O   UNL     1     -10.711  12.839  18.172  0.00  0.00    -0.268 OA
ATOM      2  O   UNL     1     -13.923  11.298  15.259  0.00  0.00    -0.267 OA
ATOM      5  N   UNL     1     -11.148  10.556  17.883  0.00  0.00    -0.311 N 
ATOM      6  N   UNL     1     -13.018   9.196  15.734  0.00  0.00    -0.294 N 
ATOM      7  C   UNL     1     -10.540   9.339  15.707  0.00  0.00    +0.027 C 
ATOM      8  C   UNL     1     -11.669   8.124  17.524  0.00  0.00    +0.054 C 
ATOM      9  C   UNL     1     -10.457   8.104  16.593  0.00  0.00    +0.018 C 
ATOM     10  C   UNL     1     -10.438  10.581  16.596  0.00  0.00    +0.130 C 
ATOM     11  C   UNL     1     -11.837   9.327  14.881  0.00  0.00    +0.113 C 
ATOM     12  C   UNL     1     -12.965   8.078  16.687  0.00  0.00    +0.117 C 
ATOM     13  C   UNL     1     -11.670   9.363  18.423  0.00  0.00    +0.034 A 
ATOM     14  C   UNL     1     -12.178   9.356  19.682  0.00  0.00    +0.002 A 
ATOM     15  C   UNL     1     -11.163  11.773  18.588  0.00  0.00    +0.252 A 
ATOM     16  C   UNL     1     -14.050  10.132  15.628  0.00  0.00    +0.282 C 
ATOM     17  C   UNL     1     -12.215  10.593  20.439  0.00  0.00    +0.015 A 
ATOM     18  C   UNL     1     -11.760  11.743  19.943  0.00  0.00    +0.071 A 
ENDROOT
BRANCH  14  19
ATOM     19  C   UNL     1     -12.713   8.122  20.299  0.00  0.00    -0.016 A 
ATOM     21  C   UNL     1     -14.088   7.907  20.334  0.00  0.00    +0.012 A 
ATOM     22  C   UNL     1     -11.839   7.184  20.839  0.00  0.00    +0.012 A 
ATOM     24  C   UNL     1     -14.592   6.744  20.915  0.00  0.00    +0.046 A 
ATOM     25  C   UNL     1     -12.343   6.020  21.420  0.00  0.00    +0.046 A 
ATOM     26  C   UNL     1     -13.720   5.800  21.458  0.00  0.00    +0.120 A 
BRANCH  26   4
ATOM      4  O   UNL     1     -14.212   4.666  22.026  0.00  0.00    -0.495 OA
ATOM     29  C   UNL     1     -14.655   4.756  23.380  0.00  0.00    +0.277 C 
ENDBRANCH  26   4
ENDBRANCH  14  19
BRANCH  16  20
ATOM      3  O   UNL     1     -16.103   8.979  15.105  0.00  0.00    -0.458 OA
ATOM     20  C   UNL     1     -15.406   9.715  16.002  0.00  0.00    +0.189 A 
ATOM     23  C   UNL     1     -16.137   9.938  17.137  0.00  0.00    +0.054 A 
ATOM     27  C   UNL     1     -17.380   9.292  16.927  0.00  0.00    +0.042 A 
ATOM     28  C   UNL     1     -17.309   8.723  15.677  0.00  0.00    +0.196 A 
ENDBRANCH  16  20
TORSDOF 3
ENDMDL
MODEL 7
REMARK VINA RESULT:      -6.1     25.203     28.483
REMARK  Name = 7144095
REMARK  4 active torsions:
REMARK  status: ('A' for Active; 'I' for Inactive)
REMARK    1  A    between atoms: O_4  and  C_26
REMARK    2  A    between atoms: O_4  and  C_29
REMARK    3  A    between atoms: C_14  and  C_19
REMARK    4  A    between atoms: C_16  and  C_20
REMARK                            x       y       z     vdW  Elec       q    Type
REMARK                         _______ _______ _______ _____ _____    ______ ____
ROOT
ATOM      1  O   UNL     1     -12.603  12.993  19.513  0.00  0.00    -0.268 OA
ATOM      2  O   UNL     1     -12.498  10.402  15.711  0.00  0.00    -0.267 OA
ATOM      5  N   UNL     1     -12.239  10.680  19.583  0.00  0.00    -0.311 N 
ATOM      6  N   UNL     1     -11.770   8.715  17.157  0.00  0.00    -0.294 N 
ATOM      7  C   UNL     1     -10.065   9.636  18.708  0.00  0.00    +0.027 C 
ATOM      8  C   UNL     1     -11.856   8.195  19.586  0.00  0.00    +0.054 C 
ATOM      9  C   UNL     1     -10.368   8.526  19.704  0.00  0.00    +0.018 C 
ATOM     10  C   UNL     1     -10.862  10.879  19.109  0.00  0.00    +0.130 C 
ATOM     11  C   UNL     1     -10.389   9.181  17.275  0.00  0.00    +0.113 C 
ATOM     12  C   UNL     1     -12.165   7.709  18.154  0.00  0.00    +0.117 C 
ATOM     13  C   UNL     1     -12.731   9.404  19.928  0.00  0.00    +0.034 A 
ATOM     14  C   UNL     1     -13.953   9.284  20.509  0.00  0.00    +0.002 A 
ATOM     15  C   UNL     1     -12.986  11.854  19.783  0.00  0.00    +0.252 A 
ATOM     16  C   UNL     1     -12.603   9.270  16.182  0.00  0.00    +0.282 C 
ATOM     17  C   UNL     1     -14.754  10.473  20.726  0.00  0.00    +0.015 A 
ATOM     18  C   UNL     1     -14.331  11.689  20.381  0.00  0.00    +0.071 A 
ENDROOT
BRANCH  14  19
ATOM     19  C   UNL     1     -14.498   7.968  20.911  0.00  0.00    -0.016 A 
ATOM     21  C   UNL     1     -15.317   7.263  20.033  0.00  0.00    +0.012 A 
ATOM     22  C   UNL     1     -14.188   7.445  22.162  0.00  0.00    +0.012 A 
ATOM     24  C   UNL     1     -15.831   6.023  20.412  0.00  0.00    +0.046 A 
ATOM     25  C   UNL     1     -14.702   6.204  22.541  0.00  0.00    +0.046 A 
ATOM     26  C   UNL     1     -15.524   5.494  21.665  0.00  0.00    +0.120 A 
BRANCH  26   4
ATOM      4  O   UNL     1     -16.026   4.285  22.035  0.00  0.00    -0.495 OA
ATOM     29  C   UNL     1     -15.867   3.904  23.401  0.00  0.00    +0.277 C 
ENDBRANCH  26   4
ENDBRANCH  14  19
BRANCH  16  20
ATOM      3  O   UNL     1     -13.569   7.890  14.456  0.00  0.00    -0.458 OA
ATOM     20  C   UNL     1     -13.715   8.459  15.676  0.00  0.00    +0.189 A 
ATOM     23  C   UNL     1     -14.931   8.153  16.225  0.00  0.00    +0.054 A 
ATOM     27  C   UNL     1     -15.587   7.332  15.275  0.00  0.00    +0.042 A 
ATOM     28  C   UNL     1     -14.717   7.202  14.218  0.00  0.00    +0.196 A 
ENDBRANCH  16  20
TORSDOF 3
ENDMDL
MODEL 8
REMARK VINA RESULT:      -5.9     26.773     29.459
REMARK  Name = 7144095
REMARK  4 active torsions:
REMARK  status: ('A' for Active; 'I' for Inactive)
REMARK    1  A    between atoms: O_4  and  C_26
REMARK    2  A    between atoms: O_4  and  C_29
REMARK    3  A    between atoms: C_14  and  C_19
REMARK    4  A    between atoms: C_16  and  C_20
REMARK                            x       y       z     vdW  Elec       q    Type
REMARK                         _______ _______ _______ _____ _____    ______ ____
ROOT
ATOM      1  O   UNL     1      -1.956 -15.172  12.780  0.00  0.00    -0.268 OA
ATOM      2  O   UNL     1      -4.779 -13.555  16.035  0.00  0.00    -0.267 OA
ATOM      5  N   UNL     1      -2.522 -12.904  12.933  0.00  0.00    -0.311 N 
ATOM      6  N   UNL     1      -4.131 -11.457  15.232  0.00  0.00    -0.294 N 
ATOM      7  C   UNL     1      -1.677 -11.437  14.861  0.00  0.00    +0.027 C 
ATOM      8  C   UNL     1      -3.172 -10.486  13.155  0.00  0.00    +0.054 C 
ATOM      9  C   UNL     1      -1.834 -10.295  13.867  0.00  0.00    +0.018 C 
ATOM     10  C   UNL     1      -1.618 -12.753  14.082  0.00  0.00    +0.130 C 
ATOM     11  C   UNL     1      -2.823 -11.425  15.886  0.00  0.00    +0.113 C 
ATOM     12  C   UNL     1      -4.319 -10.440  14.187  0.00  0.00    +0.117 C 
ATOM     13  C   UNL     1      -3.217 -11.808  12.383  0.00  0.00    +0.034 A 
ATOM     14  C   UNL     1      -3.917 -11.960  11.229  0.00  0.00    +0.002 A 
ATOM     15  C   UNL     1      -2.552 -14.184  12.351  0.00  0.00    +0.252 A 
ATOM     16  C   UNL     1      -5.055 -12.442  15.590  0.00  0.00    +0.282 C 
ATOM     17  C   UNL     1      -3.975 -13.267  10.602  0.00  0.00    +0.015 A 
ATOM     18  C   UNL     1      -3.356 -14.329  11.116  0.00  0.00    +0.071 A 
ENDROOT
BRANCH  14  19
ATOM     19  C   UNL     1      -4.640 -10.831  10.602  0.00  0.00    -0.016 A 
ATOM     21  C   UNL     1      -3.948  -9.927   9.801  0.00  0.00    +0.012 A 
ATOM     22  C   UNL     1      -6.006 -10.682  10.816  0.00  0.00    +0.012 A 
ATOM     24  C   UNL     1      -4.630  -8.863   9.211  0.00  0.00    +0.046 A 
ATOM     25  C   UNL     1      -6.688  -9.617  10.225  0.00  0.00    +0.046 A 
ATOM     26  C   UNL     1      -5.999  -8.708   9.422  0.00  0.00    +0.120 A 
BRANCH  26   4
ATOM      4  O   UNL     1      -6.664  -7.670   8.847  0.00  0.00    -0.495 OA
ATOM     29  C   UNL     1      -8.089  -7.740   8.829  0.00  0.00    +0.277 C 
ENDBRANCH  26   4
ENDBRANCH  14  19
BRANCH  16  20
ATOM      3  O   UNL     1      -7.096 -11.418  16.367  0.00  0.00    -0.458 OA
ATOM     20  C   UNL     1      -6.482 -12.153  15.410  0.00  0.00    +0.189 A 
ATOM     23  C   UNL     1      -7.354 -12.500  14.414  0.00  0.00    +0.054 A 
ATOM     27  C   UNL     1      -8.601 -11.939  14.781  0.00  0.00    +0.042 A 
ATOM     28  C   UNL     1      -8.391 -11.291  15.975  0.00  0.00    +0.196 A 
ENDBRANCH  16  20
TORSDOF 3
ENDMDL
MODEL 9
REMARK VINA RESULT:      -5.9     26.620     29.722
REMARK  Name = 7144095
REMARK  4 active torsions:
REMARK  status: ('A' for Active; 'I' for Inactive)
REMARK    1  A    between atoms: O_4  and  C_26
REMARK    2  A    between atoms: O_4  and  C_29
REMARK    3  A    between atoms: C_14  and  C_19
REMARK    4  A    between atoms: C_16  and  C_20
REMARK                            x       y       z     vdW  Elec       q    Type
REMARK                         _______ _______ _______ _____ _____    ______ ____
ROOT
ATOM      1  O   UNL     1      -2.019 -10.735  16.563  0.00  0.00    -0.268 OA
ATOM      2  O   UNL     1      -4.699 -14.397  15.799  0.00  0.00    -0.267 OA
ATOM      5  N   UNL     1      -3.841 -10.669  15.092  0.00  0.00    -0.311 N 
ATOM      6  N   UNL     1      -6.044 -12.883  14.632  0.00  0.00    -0.294 N 
ATOM      7  C   UNL     1      -6.259 -10.787  15.943  0.00  0.00    +0.027 C 
ATOM      8  C   UNL     1      -5.808 -10.669  13.527  0.00  0.00    +0.054 C 
ATOM      9  C   UNL     1      -6.589 -10.022  14.670  0.00  0.00    +0.018 C 
ATOM     10  C   UNL     1      -4.765 -10.622  16.234  0.00  0.00    +0.130 C 
ATOM     11  C   UNL     1      -6.658 -12.266  15.806  0.00  0.00    +0.113 C 
ATOM     12  C   UNL     1      -6.240 -12.143  13.376  0.00  0.00    +0.117 C 
ATOM     13  C   UNL     1      -4.298 -10.588  13.760  0.00  0.00    +0.034 A 
ATOM     14  C   UNL     1      -3.404 -10.477  12.744  0.00  0.00    +0.002 A 
ATOM     15  C   UNL     1      -2.474 -10.679  15.420  0.00  0.00    +0.252 A 
ATOM     16  C   UNL     1      -5.299 -14.055  14.781  0.00  0.00    +0.282 C 
ATOM     17  C   UNL     1      -1.985 -10.489  13.044  0.00  0.00    +0.015 A 
ATOM     18  C   UNL     1      -1.522 -10.597  14.289  0.00  0.00    +0.071 A 
ENDROOT
BRANCH  14  19
ATOM     19  C   UNL     1      -3.838 -10.364  11.334  0.00  0.00    -0.016 A 
ATOM     21  C   UNL     1      -4.145  -9.114  10.805  0.00  0.00    +0.012 A 
ATOM     22  C   UNL     1      -3.936 -11.507  10.547  0.00  0.00    +0.012 A 
ATOM     24  C   UNL     1      -4.554  -9.007   9.475  0.00  0.00    +0.046 A 
ATOM     25  C   UNL     1      -4.345 -11.400   9.217  0.00  0.00    +0.046 A 
ATOM     26  C   UNL     1      -4.654 -10.150   8.682  0.00  0.00    +0.120 A 
BRANCH  26   4
ATOM      4  O   UNL     1      -5.055 -10.046   7.386  0.00  0.00    -0.495 OA
ATOM     29  C   UNL     1      -4.988 -11.226   6.587  0.00  0.00    +0.277 C 
ENDBRANCH  26   4
ENDBRANCH  14  19
BRANCH  16  20
ATOM      3  O   UNL     1      -6.232 -15.796  13.396  0.00  0.00    -0.458 OA
ATOM     20  C   UNL     1      -5.192 -14.962  13.632  0.00  0.00    +0.189 A 
ATOM     23  C   UNL     1      -4.196 -15.135  12.710  0.00  0.00    +0.054 A 
ATOM     27  C   UNL     1      -4.653 -16.152  11.837  0.00  0.00    +0.042 A 
ATOM     28  C   UNL     1      -5.895 -16.520  12.296  0.00  0.00    +0.196 A 
ENDBRANCH  16  20
TORSDOF 3
ENDMDL
MODEL 10
REMARK VINA RESULT:      -5.9     14.364     18.525
REMARK  Name = 7144095
REMARK  4 active torsions:
REMARK  status: ('A' for Active; 'I' for Inactive)
REMARK    1  A    between atoms: O_4  and  C_26
REMARK    2  A    between atoms: O_4  and  C_29
REMARK    3  A    between atoms: C_14  and  C_19
REMARK    4  A    between atoms: C_16  and  C_20
REMARK                            x       y       z     vdW  Elec       q    Type
REMARK                         _______ _______ _______ _____ _____    ______ ____
ROOT
ATOM      1  O   UNL     1      12.388  10.334   6.517  0.00  0.00    -0.268 OA
ATOM      2  O   UNL     1      12.175   6.211   4.484  0.00  0.00    -0.267 OA
ATOM      5  N   UNL     1      10.361   9.216   6.161  0.00  0.00    -0.311 N 
ATOM      6  N   UNL     1       9.928   6.265   5.126  0.00  0.00    -0.294 N 
ATOM      7  C   UNL     1       9.756   7.088   7.461  0.00  0.00    +0.027 C 
ATOM      8  C   UNL     1       8.222   7.962   5.747  0.00  0.00    +0.054 C 
ATOM      9  C   UNL     1       8.318   7.517   7.206  0.00  0.00    +0.018 C 
ATOM     10  C   UNL     1      10.665   8.304   7.273  0.00  0.00    +0.130 C 
ATOM     11  C   UNL     1      10.148   5.927   6.531  0.00  0.00    +0.113 C 
ATOM     12  C   UNL     1       8.585   6.782   4.822  0.00  0.00    +0.117 C 
ATOM     13  C   UNL     1       9.139   9.153   5.460  0.00  0.00    +0.034 A 
ATOM     14  C   UNL     1       8.833  10.111   4.547  0.00  0.00    +0.002 A 
ATOM     15  C   UNL     1      11.313  10.223   5.927  0.00  0.00    +0.252 A 
ATOM     16  C   UNL     1      10.978   6.132   4.214  0.00  0.00    +0.282 C 
ATOM     17  C   UNL     1       9.794  11.163   4.274  0.00  0.00    +0.015 A 
ATOM     18  C   UNL     1      10.970  11.230   4.897  0.00  0.00    +0.071 A 
ENDROOT
BRANCH  14  19
ATOM     19  C   UNL     1       7.553  10.100   3.806  0.00  0.00    -0.016 A 
ATOM     21  C   UNL     1       7.504   9.574   2.518  0.00  0.00    +0.012 A 
ATOM     22  C   UNL     1       6.405  10.614   4.402  0.00  0.00    +0.012 A 
ATOM     24  C   UNL     1       6.297   9.564   1.820  0.00  0.00    +0.046 A 
ATOM     25  C   UNL     1       5.198  10.604   3.703  0.00  0.00    +0.046 A 
ATOM     26  C   UNL     1       5.144  10.078   2.412  0.00  0.00    +0.120 A 
BRANCH  26   4
ATOM      4  O   UNL     1       3.966  10.069   1.731  0.00  0.00    -0.495 OA
ATOM     29  C   UNL     1       3.990   9.558   0.398  0.00  0.00    +0.277 C 
ENDBRANCH  26   4
ENDBRANCH  14  19
BRANCH  16  20
ATOM      3  O   UNL     1      10.485   4.611   2.407  0.00  0.00    -0.458 OA
ATOM     20  C   UNL     1      10.647   5.895   2.804  0.00  0.00    +0.189 A 
ATOM     23  C   UNL     1      10.463   6.765   1.763  0.00  0.00    +0.054 A 
ATOM     27  C   UNL     1      10.163   5.959   0.637  0.00  0.00    +0.042 A 
ATOM     28  C   UNL     1      10.189   4.658   1.081  0.00  0.00    +0.196 A 
ENDBRANCH  16  20
TORSDOF 3
ENDMDL
