MODEL 1
REMARK VINA RESULT:      -7.2      0.000      0.000
REMARK  Name = 56775017
REMARK  6 active torsions:
REMARK  status: ('A' for Active; 'I' for Inactive)
REMARK    1  A    between atoms: O_3  and  C_27
REMARK    2  A    between atoms: N_5  and  C_12
REMARK    3  A    between atoms: N_6  and  C_15
REMARK    4  A    between atoms: C_12  and  C_16
REMARK    5  A    between atoms: C_15  and  C_17
REMARK    6  A    between atoms: C_24  and  C_27
REMARK                            x       y       z     vdW  Elec       q    Type
REMARK                         _______ _______ _______ _____ _____    ______ ____
ROOT
ATOM      1  O   UNL     1      12.456   9.461  17.770  0.00  0.00    -0.364 OA
ATOM      2  O   UNL     1      12.082   6.302  19.287  0.00  0.00    -0.273 OA
ATOM      5  N   UNL     1      14.577  11.404  19.376  0.00  0.00    -0.294 NA
ATOM      6  N   UNL     1      13.817   7.835  19.528  0.00  0.00    -0.288 N 
ATOM      8  C   UNL     1      14.412   9.110  19.138  0.00  0.00    +0.120 C 
ATOM      9  C   UNL     1      13.856   9.715  17.853  0.00  0.00    +0.154 C 
ATOM     10  C   UNL     1      14.172  10.229  20.148  0.00  0.00    +0.110 C 
ATOM     11  C   UNL     1      14.048  11.226  18.018  0.00  0.00    +0.118 C 
ATOM     13  C   UNL     1      12.669   7.325  18.929  0.00  0.00    +0.242 C 
ATOM     14  C   UNL     1      12.197   8.077  17.704  0.00  0.00    +0.256 C 
ENDROOT
BRANCH   5  12
ATOM     12  C   UNL     1      14.157  12.653  19.989  0.00  0.00    +0.119 C 
BRANCH  12  16
ATOM     16  C   UNL     1      13.349  12.422  21.237  0.00  0.00    -0.033 A 
ATOM     18  C   UNL     1      11.956  12.376  21.166  0.00  0.00    +0.006 A 
ATOM     19  C   UNL     1      13.990  12.255  22.464  0.00  0.00    +0.006 A 
ATOM     22  C   UNL     1      11.206  12.162  22.322  0.00  0.00    +0.015 A 
ATOM     23  C   UNL     1      13.240  12.041  23.620  0.00  0.00    +0.015 A 
ATOM     24  C   UNL     1      11.847  11.994  23.550  0.00  0.00    +0.059 A 
BRANCH  24  27
ATOM      4  O   UNL     1      10.185  12.520  25.188  0.00  0.00    -0.245 OA
ATOM     27  C   UNL     1      11.066  11.770  24.755  0.00  0.00    +0.337 C 
BRANCH  27   3
ATOM      3  O   UNL     1      11.407  10.613  25.389  0.00  0.00    -0.477 OA
ATOM     28  H   UNL     1      10.624  10.162  25.771  0.00  0.00    +0.295 HD
ENDBRANCH  27   3
ENDBRANCH  24  27
ENDBRANCH  12  16
ENDBRANCH   5  12
BRANCH   6  15
ATOM     15  C   UNL     1      14.421   7.142  20.659  0.00  0.00    +0.145 C 
BRANCH  15  17
ATOM      7  N   UNL     1      17.457   5.756  18.873  0.00  0.00    -0.263 NA
ATOM     17  C   UNL     1      15.847   6.749  20.378  0.00  0.00    -0.012 A 
ATOM     20  C   UNL     1      16.852   6.989  21.308  0.00  0.00    +0.008 A 
ATOM     21  C   UNL     1      16.198   6.136  19.186  0.00  0.00    +0.115 A 
ATOM     25  C   UNL     1      18.160   6.613  21.021  0.00  0.00    +0.020 A 
ATOM     26  C   UNL     1      18.408   6.006  19.801  0.00  0.00    +0.111 A 
ENDBRANCH  15  17
ENDBRANCH   6  15
TORSDOF 6
ENDMDL
MODEL 2
REMARK VINA RESULT:      -7.0     27.962     30.465
REMARK  Name = 56775017
REMARK  6 active torsions:
REMARK  status: ('A' for Active; 'I' for Inactive)
REMARK    1  A    between atoms: O_3  and  C_27
REMARK    2  A    between atoms: N_5  and  C_12
REMARK    3  A    between atoms: N_6  and  C_15
REMARK    4  A    between atoms: C_12  and  C_16
REMARK    5  A    between atoms: C_15  and  C_17
REMARK    6  A    between atoms: C_24  and  C_27
REMARK                            x       y       z     vdW  Elec       q    Type
REMARK                         _______ _______ _______ _____ _____    ______ ____
ROOT
ATOM      1  O   UNL     1     -18.211   4.516  23.424  0.00  0.00    -0.364 OA
ATOM      2  O   UNL     1     -16.243   4.901  20.526  0.00  0.00    -0.273 OA
ATOM      5  N   UNL     1     -16.452   3.569  26.043  0.00  0.00    -0.294 NA
ATOM      6  N   UNL     1     -15.564   4.880  22.752  0.00  0.00    -0.288 N 
ATOM      8  C   UNL     1     -15.933   4.811  24.164  0.00  0.00    +0.120 C 
ATOM      9  C   UNL     1     -17.406   5.076  24.459  0.00  0.00    +0.154 C 
ATOM     10  C   UNL     1     -15.727   3.430  24.781  0.00  0.00    +0.110 C 
ATOM     11  C   UNL     1     -17.692   4.296  25.746  0.00  0.00    +0.118 C 
ATOM     13  C   UNL     1     -16.506   4.934  21.729  0.00  0.00    +0.242 C 
ATOM     14  C   UNL     1     -17.936   5.129  22.184  0.00  0.00    +0.256 C 
ENDROOT
BRANCH   5  12
ATOM     12  C   UNL     1     -16.686   2.295  26.702  0.00  0.00    +0.119 C 
BRANCH  12  16
ATOM     16  C   UNL     1     -16.079   2.255  28.079  0.00  0.00    -0.033 A 
ATOM     18  C   UNL     1     -15.541   3.416  28.637  0.00  0.00    +0.006 A 
ATOM     19  C   UNL     1     -16.054   1.060  28.797  0.00  0.00    +0.006 A 
ATOM     22  C   UNL     1     -14.979   3.380  29.913  0.00  0.00    +0.015 A 
ATOM     23  C   UNL     1     -15.491   1.024  30.073  0.00  0.00    +0.015 A 
ATOM     24  C   UNL     1     -14.954   2.185  30.631  0.00  0.00    +0.059 A 
BRANCH  24  27
ATOM      4  O   UNL     1     -15.002   2.051  33.019  0.00  0.00    -0.245 OA
ATOM     27  C   UNL     1     -14.370   2.147  31.962  0.00  0.00    +0.337 C 
BRANCH  27   3
ATOM      3  O   UNL     1     -13.011   2.230  31.937  0.00  0.00    -0.477 OA
ATOM     28  H   UNL     1     -12.681   2.982  32.474  0.00  0.00    +0.295 HD
ENDBRANCH  27   3
ENDBRANCH  24  27
ENDBRANCH  12  16
ENDBRANCH   5  12
BRANCH   6  15
ATOM     15  C   UNL     1     -14.145   4.789  22.434  0.00  0.00    +0.145 C 
BRANCH  15  17
ATOM      7  N   UNL     1     -13.797   8.516  21.869  0.00  0.00    -0.263 NA
ATOM     17  C   UNL     1     -13.590   6.110  21.969  0.00  0.00    -0.012 A 
ATOM     20  C   UNL     1     -12.412   6.173  21.234  0.00  0.00    +0.008 A 
ATOM     21  C   UNL     1     -14.239   7.299  22.258  0.00  0.00    +0.115 A 
ATOM     25  C   UNL     1     -11.925   7.407  20.817  0.00  0.00    +0.020 A 
ATOM     26  C   UNL     1     -12.648   8.539  21.158  0.00  0.00    +0.111 A 
ENDBRANCH  15  17
ENDBRANCH   6  15
TORSDOF 6
ENDMDL
MODEL 3
REMARK VINA RESULT:      -6.9     16.211     18.978
REMARK  Name = 56775017
REMARK  6 active torsions:
REMARK  status: ('A' for Active; 'I' for Inactive)
REMARK    1  A    between atoms: O_3  and  C_27
REMARK    2  A    between atoms: N_5  and  C_12
REMARK    3  A    between atoms: N_6  and  C_15
REMARK    4  A    between atoms: C_12  and  C_16
REMARK    5  A    between atoms: C_15  and  C_17
REMARK    6  A    between atoms: C_24  and  C_27
REMARK                            x       y       z     vdW  Elec       q    Type
REMARK                         _______ _______ _______ _____ _____    ______ ____
ROOT
ATOM      1  O   UNL     1       9.322   7.288  -0.670  0.00  0.00    -0.364 OA
ATOM      2  O   UNL     1      10.120   4.186  -2.140  0.00  0.00    -0.273 OA
ATOM      5  N   UNL     1       9.799   7.315   2.590  0.00  0.00    -0.294 NA
ATOM      6  N   UNL     1      10.803   5.041  -0.086  0.00  0.00    -0.288 N 
ATOM      8  C   UNL     1      10.802   6.153   0.861  0.00  0.00    +0.120 C 
ATOM      9  C   UNL     1      10.365   7.494   0.279  0.00  0.00    +0.154 C 
ATOM     10  C   UNL     1       9.819   5.970   2.015  0.00  0.00    +0.110 C 
ATOM     11  C   UNL     1       9.773   8.260   1.466  0.00  0.00    +0.118 C 
ATOM     13  C   UNL     1      10.222   5.125  -1.347  0.00  0.00    +0.242 C 
ATOM     14  C   UNL     1       9.773   6.511  -1.755  0.00  0.00    +0.256 C 
ENDROOT
BRANCH   5  12
ATOM     12  C   UNL     1       8.702   7.512   3.522  0.00  0.00    +0.119 C 
BRANCH  12  16
ATOM     16  C   UNL     1       8.951   6.823   4.836  0.00  0.00    -0.033 A 
ATOM     18  C   UNL     1       8.586   7.446   6.031  0.00  0.00    +0.006 A 
ATOM     19  C   UNL     1       9.548   5.562   4.862  0.00  0.00    +0.006 A 
ATOM     22  C   UNL     1       8.818   6.808   7.249  0.00  0.00    +0.015 A 
ATOM     23  C   UNL     1       9.779   4.924   6.080  0.00  0.00    +0.015 A 
ATOM     24  C   UNL     1       9.414   5.546   7.274  0.00  0.00    +0.059 A 
BRANCH  24  27
ATOM      4  O   UNL     1       9.146   5.195   9.625  0.00  0.00    -0.245 OA
ATOM     27  C   UNL     1       9.653   4.880   8.544  0.00  0.00    +0.337 C 
BRANCH  27   3
ATOM      3  O   UNL     1      10.522   3.837   8.429  0.00  0.00    -0.477 OA
ATOM     28  H   UNL     1      10.169   3.131   7.845  0.00  0.00    +0.295 HD
ENDBRANCH  27   3
ENDBRANCH  24  27
ENDBRANCH  12  16
ENDBRANCH   5  12
BRANCH   6  15
ATOM     15  C   UNL     1      11.360   3.777   0.380  0.00  0.00    +0.145 C 
BRANCH  15  17
ATOM      7  N   UNL     1      14.950   4.158  -0.759  0.00  0.00    -0.263 NA
ATOM     17  C   UNL     1      12.865   3.807   0.413  0.00  0.00    -0.012 A 
ATOM     20  C   UNL     1      13.561   3.523   1.582  0.00  0.00    +0.008 A 
ATOM     21  C   UNL     1      13.599   4.116  -0.721  0.00  0.00    +0.115 A 
ATOM     25  C   UNL     1      14.952   3.557   1.582  0.00  0.00    +0.020 A 
ATOM     26  C   UNL     1      15.593   3.877   0.396  0.00  0.00    +0.111 A 
ENDBRANCH  15  17
ENDBRANCH   6  15
TORSDOF 6
ENDMDL
MODEL 4
REMARK VINA RESULT:      -6.7     27.835     29.206
REMARK  Name = 56775017
REMARK  6 active torsions:
REMARK  status: ('A' for Active; 'I' for Inactive)
REMARK    1  A    between atoms: O_3  and  C_27
REMARK    2  A    between atoms: N_5  and  C_12
REMARK    3  A    between atoms: N_6  and  C_15
REMARK    4  A    between atoms: C_12  and  C_16
REMARK    5  A    between atoms: C_15  and  C_17
REMARK    6  A    between atoms: C_24  and  C_27
REMARK                            x       y       z     vdW  Elec       q    Type
REMARK                         _______ _______ _______ _____ _____    ______ ____
ROOT
ATOM      1  O   UNL     1      -4.014 -13.802  15.312  0.00  0.00    -0.364 OA
ATOM      2  O   UNL     1      -1.190 -14.125  13.229  0.00  0.00    -0.273 OA
ATOM      5  N   UNL     1      -5.111 -10.701  15.501  0.00  0.00    -0.294 NA
ATOM      6  N   UNL     1      -2.767 -12.414  13.286  0.00  0.00    -0.288 N 
ATOM      8  C   UNL     1      -4.005 -11.882  13.850  0.00  0.00    +0.120 C 
ATOM      9  C   UNL     1      -4.858 -12.897  14.604  0.00  0.00    +0.154 C 
ATOM     10  C   UNL     1      -3.777 -10.806  14.909  0.00  0.00    +0.110 C 
ATOM     11  C   UNL     1      -5.627 -12.069  15.638  0.00  0.00    +0.118 C 
ATOM     13  C   UNL     1      -2.272 -13.674  13.609  0.00  0.00    +0.242 C 
ATOM     14  C   UNL     1      -3.208 -14.541  14.423  0.00  0.00    +0.256 C 
ENDROOT
BRANCH   5  12
ATOM     12  C   UNL     1      -5.114  -9.966  16.755  0.00  0.00    +0.119 C 
BRANCH  12  16
ATOM     16  C   UNL     1      -6.335 -10.271  17.581  0.00  0.00    -0.033 A 
ATOM     18  C   UNL     1      -6.211 -11.001  18.764  0.00  0.00    +0.006 A 
ATOM     19  C   UNL     1      -7.589  -9.825  17.164  0.00  0.00    +0.006 A 
ATOM     22  C   UNL     1      -7.342 -11.284  19.529  0.00  0.00    +0.015 A 
ATOM     23  C   UNL     1      -8.720 -10.109  17.930  0.00  0.00    +0.015 A 
ATOM     24  C   UNL     1      -8.597 -10.838  19.113  0.00  0.00    +0.059 A 
BRANCH  24  27
ATOM      4  O   UNL     1     -10.450 -12.164  19.840  0.00  0.00    -0.245 OA
ATOM     27  C   UNL     1      -9.776 -11.131  19.912  0.00  0.00    +0.337 C 
BRANCH  27   3
ATOM      3  O   UNL     1     -10.081 -10.126  20.778  0.00  0.00    -0.477 OA
ATOM     28  H   UNL     1      -9.858 -10.361  21.704  0.00  0.00    +0.295 HD
ENDBRANCH  27   3
ENDBRANCH  24  27
ENDBRANCH  12  16
ENDBRANCH   5  12
BRANCH   6  15
ATOM     15  C   UNL     1      -1.996 -11.525  12.426  0.00  0.00    +0.145 C 
BRANCH  15  17
ATOM      7  N   UNL     1      -4.249 -11.594   9.384  0.00  0.00    -0.263 NA
ATOM     17  C   UNL     1      -2.800 -11.055  11.243  0.00  0.00    -0.012 A 
ATOM     20  C   UNL     1      -2.851  -9.708  10.901  0.00  0.00    +0.008 A 
ATOM     21  C   UNL     1      -3.510 -11.950  10.460  0.00  0.00    +0.115 A 
ATOM     25  C   UNL     1      -3.600  -9.304   9.801  0.00  0.00    +0.020 A 
ATOM     26  C   UNL     1      -4.275 -10.277   9.083  0.00  0.00    +0.111 A 
ENDBRANCH  15  17
ENDBRANCH   6  15
TORSDOF 6
ENDMDL
MODEL 5
REMARK VINA RESULT:      -6.7     15.664     18.634
REMARK  Name = 56775017
REMARK  6 active torsions:
REMARK  status: ('A' for Active; 'I' for Inactive)
REMARK    1  A    between atoms: O_3  and  C_27
REMARK    2  A    between atoms: N_5  and  C_12
REMARK    3  A    between atoms: N_6  and  C_15
REMARK    4  A    between atoms: C_12  and  C_16
REMARK    5  A    between atoms: C_15  and  C_17
REMARK    6  A    between atoms: C_24  and  C_27
REMARK                            x       y       z     vdW  Elec       q    Type
REMARK                         _______ _______ _______ _____ _____    ______ ____
ROOT
ATOM      1  O   UNL     1      12.947   7.648   2.107  0.00  0.00    -0.364 OA
ATOM      2  O   UNL     1      13.634   6.143  -1.005  0.00  0.00    -0.273 OA
ATOM      5  N   UNL     1      11.244   5.679   4.126  0.00  0.00    -0.294 NA
ATOM      6  N   UNL     1      13.062   5.125   1.008  0.00  0.00    -0.288 N 
ATOM      8  C   UNL     1      12.759   5.264   2.430  0.00  0.00    +0.120 C 
ATOM      9  C   UNL     1      13.163   6.599   3.047  0.00  0.00    +0.154 C 
ATOM     10  C   UNL     1      11.265   5.206   2.742  0.00  0.00    +0.110 C 
ATOM     11  C   UNL     1      12.184   6.804   4.208  0.00  0.00    +0.118 C 
ATOM     13  C   UNL     1      13.457   6.197   0.214  0.00  0.00    +0.242 C 
ATOM     14  C   UNL     1      13.755   7.476   0.965  0.00  0.00    +0.256 C 
ENDROOT
BRANCH   5  12
ATOM     12  C   UNL     1       9.908   6.023   4.584  0.00  0.00    +0.119 C 
BRANCH  12  16
ATOM     16  C   UNL     1       9.713   5.698   6.040  0.00  0.00    -0.033 A 
ATOM     18  C   UNL     1       9.303   6.694   6.927  0.00  0.00    +0.006 A 
ATOM     19  C   UNL     1       9.941   4.402   6.503  0.00  0.00    +0.006 A 
ATOM     22  C   UNL     1       9.122   6.394   8.277  0.00  0.00    +0.015 A 
ATOM     23  C   UNL     1       9.760   4.102   7.853  0.00  0.00    +0.015 A 
ATOM     24  C   UNL     1       9.350   5.098   8.741  0.00  0.00    +0.059 A 
BRANCH  24  27
ATOM      4  O   UNL     1       8.072   4.751  10.733  0.00  0.00    -0.245 OA
ATOM     27  C   UNL     1       9.160   4.783  10.148  0.00  0.00    +0.337 C 
BRANCH  27   3
ATOM      3  O   UNL     1      10.333   4.518  10.785  0.00  0.00    -0.477 OA
ATOM     28  H   UNL     1      10.732   3.675  10.480  0.00  0.00    +0.295 HD
ENDBRANCH  27   3
ENDBRANCH  24  27
ENDBRANCH  12  16
ENDBRANCH   5  12
BRANCH   6  15
ATOM     15  C   UNL     1      12.839   3.814   0.409  0.00  0.00    +0.145 C 
BRANCH  15  17
ATOM      7  N   UNL     1       9.737   4.717  -1.562  0.00  0.00    -0.263 NA
ATOM     17  C   UNL     1      11.837   3.875  -0.712  0.00  0.00    -0.012 A 
ATOM     20  C   UNL     1      12.047   3.180  -1.898  0.00  0.00    +0.008 A 
ATOM     21  C   UNL     1      10.677   4.623  -0.595  0.00  0.00    +0.115 A 
ATOM     25  C   UNL     1      11.102   3.253  -2.916  0.00  0.00    +0.020 A 
ATOM     26  C   UNL     1       9.974   4.029  -2.701  0.00  0.00    +0.111 A 
ENDBRANCH  15  17
ENDBRANCH   6  15
TORSDOF 6
ENDMDL
MODEL 6
REMARK VINA RESULT:      -6.6     15.003     17.846
REMARK  Name = 56775017
REMARK  6 active torsions:
REMARK  status: ('A' for Active; 'I' for Inactive)
REMARK    1  A    between atoms: O_3  and  C_27
REMARK    2  A    between atoms: N_5  and  C_12
REMARK    3  A    between atoms: N_6  and  C_15
REMARK    4  A    between atoms: C_12  and  C_16
REMARK    5  A    between atoms: C_15  and  C_17
REMARK    6  A    between atoms: C_24  and  C_27
REMARK                            x       y       z     vdW  Elec       q    Type
REMARK                         _______ _______ _______ _____ _____    ______ ____
ROOT
ATOM      1  O   UNL     1      10.731   9.471   1.845  0.00  0.00    -0.364 OA
ATOM      2  O   UNL     1      11.242   8.192  -1.398  0.00  0.00    -0.273 OA
ATOM      5  N   UNL     1      10.137   7.112   4.067  0.00  0.00    -0.294 NA
ATOM      6  N   UNL     1      11.407   7.087   0.643  0.00  0.00    -0.288 N 
ATOM      8  C   UNL     1      11.353   7.154   2.101  0.00  0.00    +0.120 C 
ATOM      9  C   UNL     1      11.435   8.560   2.685  0.00  0.00    +0.154 C 
ATOM     10  C   UNL     1      10.039   6.641   2.685  0.00  0.00    +0.110 C 
ATOM     11  C   UNL     1      10.682   8.474   4.017  0.00  0.00    +0.118 C 
ATOM     13  C   UNL     1      11.293   8.212  -0.167  0.00  0.00    +0.242 C 
ATOM     14  C   UNL     1      11.319   9.536   0.566  0.00  0.00    +0.256 C 
ENDROOT
BRANCH   5  12
ATOM     12  C   UNL     1       8.873   7.033   4.780  0.00  0.00    +0.119 C 
BRANCH  12  16
ATOM     16  C   UNL     1       9.048   6.491   6.173  0.00  0.00    -0.033 A 
ATOM     18  C   UNL     1       9.539   5.199   6.362  0.00  0.00    +0.006 A 
ATOM     19  C   UNL     1       8.719   7.280   7.276  0.00  0.00    +0.006 A 
ATOM     22  C   UNL     1       9.701   4.696   7.653  0.00  0.00    +0.015 A 
ATOM     23  C   UNL     1       8.882   6.777   8.566  0.00  0.00    +0.015 A 
ATOM     24  C   UNL     1       9.373   5.485   8.756  0.00  0.00    +0.059 A 
BRANCH  24  27
ATOM      4  O   UNL     1      10.599   4.971  10.745  0.00  0.00    -0.245 OA
ATOM     27  C   UNL     1       9.543   4.963  10.102  0.00  0.00    +0.337 C 
BRANCH  27   3
ATOM      3  O   UNL     1       8.391   4.443  10.608  0.00  0.00    -0.477 OA
ATOM     28  H   UNL     1       8.207   4.776  11.512  0.00  0.00    +0.295 HD
ENDBRANCH  27   3
ENDBRANCH  24  27
ENDBRANCH  12  16
ENDBRANCH   5  12
BRANCH   6  15
ATOM     15  C   UNL     1      11.489   5.761   0.044  0.00  0.00    +0.145 C 
BRANCH  15  17
ATOM      7  N   UNL     1      15.181   4.953   0.268  0.00  0.00    -0.263 NA
ATOM     17  C   UNL     1      12.770   5.059   0.411  0.00  0.00    -0.012 A 
ATOM     20  C   UNL     1      12.758   3.912   1.196  0.00  0.00    +0.008 A 
ATOM     21  C   UNL     1      13.996   5.536  -0.023  0.00  0.00    +0.115 A 
ATOM     25  C   UNL     1      13.958   3.284   1.517  0.00  0.00    +0.020 A 
ATOM     26  C   UNL     1      15.131   3.840   1.033  0.00  0.00    +0.111 A 
ENDBRANCH  15  17
ENDBRANCH   6  15
TORSDOF 6
ENDMDL
MODEL 7
REMARK VINA RESULT:      -6.5     27.123     29.599
REMARK  Name = 56775017
REMARK  6 active torsions:
REMARK  status: ('A' for Active; 'I' for Inactive)
REMARK    1  A    between atoms: O_3  and  C_27
REMARK    2  A    between atoms: N_5  and  C_12
REMARK    3  A    between atoms: N_6  and  C_15
REMARK    4  A    between atoms: C_12  and  C_16
REMARK    5  A    between atoms: C_15  and  C_17
REMARK    6  A    between atoms: C_24  and  C_27
REMARK                            x       y       z     vdW  Elec       q    Type
REMARK                         _______ _______ _______ _____ _____    ______ ____
ROOT
ATOM      1  O   UNL     1      -8.383 -12.169  17.237  0.00  0.00    -0.364 OA
ATOM      2  O   UNL     1      -5.069 -12.904  18.183  0.00  0.00    -0.273 OA
ATOM      5  N   UNL     1      -8.863  -8.961  16.660  0.00  0.00    -0.294 NA
ATOM      6  N   UNL     1      -5.881 -11.030  17.068  0.00  0.00    -0.288 N 
ATOM      8  C   UNL     1      -7.016 -10.338  16.463  0.00  0.00    +0.120 C 
ATOM      9  C   UNL     1      -8.234 -11.214  16.190  0.00  0.00    +0.154 C 
ATOM     10  C   UNL     1      -7.603  -9.241  17.349  0.00  0.00    +0.110 C 
ATOM     11  C   UNL     1      -9.428 -10.256  16.258  0.00  0.00    +0.118 C 
ATOM     13  C   UNL     1      -5.973 -12.318  17.585  0.00  0.00    +0.242 C 
ATOM     14  C   UNL     1      -7.273 -13.036  17.291  0.00  0.00    +0.256 C 
ENDROOT
BRANCH   5  12
ATOM     12  C   UNL     1      -9.779  -8.168  17.463  0.00  0.00    +0.119 C 
BRANCH  12  16
ATOM     16  C   UNL     1     -10.825  -7.492  16.618  0.00  0.00    -0.033 A 
ATOM     18  C   UNL     1     -12.147  -7.936  16.657  0.00  0.00    +0.006 A 
ATOM     19  C   UNL     1     -10.472  -6.423  15.794  0.00  0.00    +0.006 A 
ATOM     22  C   UNL     1     -13.116  -7.310  15.874  0.00  0.00    +0.015 A 
ATOM     23  C   UNL     1     -11.442  -5.797  15.011  0.00  0.00    +0.015 A 
ATOM     24  C   UNL     1     -12.764  -6.240  15.051  0.00  0.00    +0.059 A 
BRANCH  24  27
ATOM      4  O   UNL     1     -14.981  -5.852  14.239  0.00  0.00    -0.245 OA
ATOM     27  C   UNL     1     -13.774  -5.585  14.235  0.00  0.00    +0.337 C 
BRANCH  27   3
ATOM      3  O   UNL     1     -13.250  -4.615  13.436  0.00  0.00    -0.477 OA
ATOM     28  H   UNL     1     -13.350  -4.833  12.484  0.00  0.00    +0.295 HD
ENDBRANCH  27   3
ENDBRANCH  24  27
ENDBRANCH  12  16
ENDBRANCH   5  12
BRANCH   6  15
ATOM     15  C   UNL     1      -4.642 -10.274  17.204  0.00  0.00    +0.145 C 
BRANCH  15  17
ATOM      7  N   UNL     1      -3.302 -10.939  13.727  0.00  0.00    -0.263 NA
ATOM     17  C   UNL     1      -3.679 -10.573  16.086  0.00  0.00    -0.012 A 
ATOM     20  C   UNL     1      -2.324 -10.759  16.339  0.00  0.00    +0.008 A 
ATOM     21  C   UNL     1      -4.114 -10.672  14.775  0.00  0.00    +0.115 A 
ATOM     25  C   UNL     1      -1.458 -11.036  15.286  0.00  0.00    +0.020 A 
ATOM     26  C   UNL     1      -1.993 -11.114  14.010  0.00  0.00    +0.111 A 
ENDBRANCH  15  17
ENDBRANCH   6  15
TORSDOF 6
ENDMDL
MODEL 8
REMARK VINA RESULT:      -6.5     14.641     17.550
REMARK  Name = 56775017
REMARK  6 active torsions:
REMARK  status: ('A' for Active; 'I' for Inactive)
REMARK    1  A    between atoms: O_3  and  C_27
REMARK    2  A    between atoms: N_5  and  C_12
REMARK    3  A    between atoms: N_6  and  C_15
REMARK    4  A    between atoms: C_12  and  C_16
REMARK    5  A    between atoms: C_15  and  C_17
REMARK    6  A    between atoms: C_24  and  C_27
REMARK                            x       y       z     vdW  Elec       q    Type
REMARK                         _______ _______ _______ _____ _____    ______ ____
ROOT
ATOM      1  O   UNL     1      13.249   8.797   4.298  0.00  0.00    -0.364 OA
ATOM      2  O   UNL     1      14.256   9.800   1.073  0.00  0.00    -0.273 OA
ATOM      5  N   UNL     1      11.109   6.293   4.243  0.00  0.00    -0.294 NA
ATOM      6  N   UNL     1      13.311   7.780   1.739  0.00  0.00    -0.288 N 
ATOM      8  C   UNL     1      12.815   6.937   2.823  0.00  0.00    +0.120 C 
ATOM      9  C   UNL     1      13.235   7.374   4.223  0.00  0.00    +0.154 C 
ATOM     10  C   UNL     1      11.293   6.923   2.936  0.00  0.00    +0.110 C 
ATOM     11  C   UNL     1      12.118   6.868   5.141  0.00  0.00    +0.118 C 
ATOM     13  C   UNL     1      13.908   9.018   1.959  0.00  0.00    +0.242 C 
ATOM     14  C   UNL     1      14.199   9.340   3.409  0.00  0.00    +0.256 C 
ENDROOT
BRANCH   5  12
ATOM     12  C   UNL     1       9.754   6.433   4.750  0.00  0.00    +0.119 C 
BRANCH  12  16
ATOM     16  C   UNL     1       9.642   5.988   6.183  0.00  0.00    -0.033 A 
ATOM     18  C   UNL     1       9.236   6.893   7.165  0.00  0.00    +0.006 A 
ATOM     19  C   UNL     1       9.945   4.672   6.531  0.00  0.00    +0.006 A 
ATOM     22  C   UNL     1       9.133   6.481   8.493  0.00  0.00    +0.015 A 
ATOM     23  C   UNL     1       9.842   4.259   7.860  0.00  0.00    +0.015 A 
ATOM     24  C   UNL     1       9.435   5.164   8.841  0.00  0.00    +0.059 A 
BRANCH  24  27
ATOM      4  O   UNL     1      10.251   4.284  10.911  0.00  0.00    -0.245 OA
ATOM     27  C   UNL     1       9.326   4.733  10.226  0.00  0.00    +0.337 C 
BRANCH  27   3
ATOM      3  O   UNL     1       8.064   4.874  10.717  0.00  0.00    -0.477 OA
ATOM     28  H   UNL     1       7.463   5.293  10.065  0.00  0.00    +0.295 HD
ENDBRANCH  27   3
ENDBRANCH  24  27
ENDBRANCH  12  16
ENDBRANCH   5  12
BRANCH   6  15
ATOM     15  C   UNL     1      13.069   7.318   0.377  0.00  0.00    +0.145 C 
BRANCH  15  17
ATOM      7  N   UNL     1      16.237   5.276   0.025  0.00  0.00    -0.263 NA
ATOM     17  C   UNL     1      14.005   6.205  -0.011  0.00  0.00    -0.012 A 
ATOM     20  C   UNL     1      13.553   5.109  -0.737  0.00  0.00    +0.008 A 
ATOM     21  C   UNL     1      15.344   6.241   0.343  0.00  0.00    +0.115 A 
ATOM     25  C   UNL     1      14.442   4.097  -1.083  0.00  0.00    +0.020 A 
ATOM     26  C   UNL     1      15.761   4.227  -0.681  0.00  0.00    +0.111 A 
ENDBRANCH  15  17
ENDBRANCH   6  15
TORSDOF 6
ENDMDL
MODEL 9
REMARK VINA RESULT:      -6.3     27.098     30.045
REMARK  Name = 56775017
REMARK  6 active torsions:
REMARK  status: ('A' for Active; 'I' for Inactive)
REMARK    1  A    between atoms: O_3  and  C_27
REMARK    2  A    between atoms: N_5  and  C_12
REMARK    3  A    between atoms: N_6  and  C_15
REMARK    4  A    between atoms: C_12  and  C_16
REMARK    5  A    between atoms: C_15  and  C_17
REMARK    6  A    between atoms: C_24  and  C_27
REMARK                            x       y       z     vdW  Elec       q    Type
REMARK                         _______ _______ _______ _____ _____    ______ ____
ROOT
ATOM      1  O   UNL     1      -7.306 -10.109   7.008  0.00  0.00    -0.364 OA
ATOM      2  O   UNL     1      -8.700  -7.192   5.604  0.00  0.00    -0.273 OA
ATOM      5  N   UNL     1      -5.577  -9.504   9.746  0.00  0.00    -0.294 NA
ATOM      6  N   UNL     1      -7.946  -7.542   7.777  0.00  0.00    -0.288 N 
ATOM      8  C   UNL     1      -7.395  -8.462   8.769  0.00  0.00    +0.120 C 
ATOM      9  C   UNL     1      -7.504  -9.940   8.409  0.00  0.00    +0.154 C 
ATOM     10  C   UNL     1      -5.892  -8.295   8.984  0.00  0.00    +0.110 C 
ATOM     11  C   UNL     1      -6.328 -10.605   9.131  0.00  0.00    +0.118 C 
ATOM     13  C   UNL     1      -8.317  -7.948   6.499  0.00  0.00    +0.242 C 
ATOM     14  C   UNL     1      -8.309  -9.444   6.273  0.00  0.00    +0.256 C 
ENDROOT
BRANCH   5  12
ATOM     12  C   UNL     1      -4.149  -9.765   9.822  0.00  0.00    +0.119 C 
BRANCH  12  16
ATOM     16  C   UNL     1      -3.711 -10.082  11.227  0.00  0.00    -0.033 A 
ATOM     18  C   UNL     1      -2.353 -10.210  11.521  0.00  0.00    +0.006 A 
ATOM     19  C   UNL     1      -4.661 -10.250  12.234  0.00  0.00    +0.006 A 
ATOM     22  C   UNL     1      -1.946 -10.505  12.822  0.00  0.00    +0.015 A 
ATOM     23  C   UNL     1      -4.255 -10.545  13.535  0.00  0.00    +0.015 A 
ATOM     24  C   UNL     1      -2.897 -10.672  13.830  0.00  0.00    +0.059 A 
BRANCH  24  27
ATOM      4  O   UNL     1      -1.591 -10.381  15.813  0.00  0.00    -0.245 OA
ATOM     27  C   UNL     1      -2.474 -10.977  15.187  0.00  0.00    +0.337 C 
BRANCH  27   3
ATOM      3  O   UNL     1      -3.165 -12.020  15.726  0.00  0.00    -0.477 OA
ATOM     28  H   UNL     1      -2.983 -12.860  15.253  0.00  0.00    +0.295 HD
ENDBRANCH  27   3
ENDBRANCH  24  27
ENDBRANCH  12  16
ENDBRANCH   5  12
BRANCH   6  15
ATOM     15  C   UNL     1      -8.007  -6.133   8.143  0.00  0.00    +0.145 C 
BRANCH  15  17
ATOM      7  N   UNL     1     -11.543  -6.419   9.463  0.00  0.00    -0.263 NA
ATOM     17  C   UNL     1      -9.373  -5.742   8.641  0.00  0.00    -0.012 A 
ATOM     20  C   UNL     1      -9.743  -4.406   8.741  0.00  0.00    +0.008 A 
ATOM     21  C   UNL     1     -10.301  -6.702   9.011  0.00  0.00    +0.115 A 
ATOM     25  C   UNL     1     -11.014  -4.075   9.203  0.00  0.00    +0.020 A 
ATOM     26  C   UNL     1     -11.868  -5.110   9.548  0.00  0.00    +0.111 A 
ENDBRANCH  15  17
ENDBRANCH   6  15
TORSDOF 6
ENDMDL
MODEL 10
REMARK VINA RESULT:      -6.3     24.857     27.170
REMARK  Name = 56775017
REMARK  6 active torsions:
REMARK  status: ('A' for Active; 'I' for Inactive)
REMARK    1  A    between atoms: O_3  and  C_27
REMARK    2  A    between atoms: N_5  and  C_12
REMARK    3  A    between atoms: N_6  and  C_15
REMARK    4  A    between atoms: C_12  and  C_16
REMARK    5  A    between atoms: C_15  and  C_17
REMARK    6  A    between atoms: C_24  and  C_27
REMARK                            x       y       z     vdW  Elec       q    Type
REMARK                         _______ _______ _______ _____ _____    ______ ____
ROOT
ATOM      1  O   UNL     1       7.174   8.215  -3.631  0.00  0.00    -0.364 OA
ATOM      2  O   UNL     1      10.394   7.621  -4.933  0.00  0.00    -0.273 OA
ATOM      5  N   UNL     1       5.050   5.795  -4.329  0.00  0.00    -0.294 NA
ATOM      6  N   UNL     1       8.684   6.095  -4.531  0.00  0.00    -0.288 N 
ATOM      8  C   UNL     1       7.340   5.839  -4.018  0.00  0.00    +0.120 C 
ATOM      9  C   UNL     1       6.767   6.942  -3.135  0.00  0.00    +0.154 C 
ATOM     10  C   UNL     1       6.283   5.725  -5.114  0.00  0.00    +0.110 C 
ATOM     11  C   UNL     1       5.249   6.835  -3.312  0.00  0.00    +0.118 C 
ATOM     13  C   UNL     1       9.303   7.337  -4.436  0.00  0.00    +0.242 C 
ATOM     14  C   UNL     1       8.575   8.352  -3.581  0.00  0.00    +0.256 C 
ENDROOT
BRANCH   5  12
ATOM     12  C   UNL     1       3.872   6.024  -5.150  0.00  0.00    +0.119 C 
BRANCH  12  16
ATOM     16  C   UNL     1       2.923   4.857  -5.107  0.00  0.00    -0.033 A 
ATOM     18  C   UNL     1       1.732   4.954  -4.386  0.00  0.00    +0.006 A 
ATOM     19  C   UNL     1       3.234   3.678  -5.784  0.00  0.00    +0.006 A 
ATOM     22  C   UNL     1       0.851   3.873  -4.345  0.00  0.00    +0.015 A 
ATOM     23  C   UNL     1       2.354   2.597  -5.742  0.00  0.00    +0.015 A 
ATOM     24  C   UNL     1       1.162   2.694  -5.023  0.00  0.00    +0.059 A 
BRANCH  24  27
ATOM      4  O   UNL     1       0.048   0.770  -5.905  0.00  0.00    -0.245 OA
ATOM     27  C   UNL     1       0.244   1.567  -4.982  0.00  0.00    +0.337 C 
BRANCH  27   3
ATOM      3  O   UNL     1      -0.405   1.467  -3.789  0.00  0.00    -0.477 OA
ATOM     28  H   UNL     1      -1.032   0.713  -3.777  0.00  0.00    +0.295 HD
ENDBRANCH  27   3
ENDBRANCH  24  27
ENDBRANCH  12  16
ENDBRANCH   5  12
BRANCH   6  15
ATOM     15  C   UNL     1       9.336   5.007  -5.249  0.00  0.00    +0.145 C 
BRANCH  15  17
ATOM      7  N   UNL     1       9.828   1.916  -3.120  0.00  0.00    -0.263 NA
ATOM     17  C   UNL     1       9.969   4.016  -4.309  0.00  0.00    -0.012 A 
ATOM     20  C   UNL     1      11.226   4.249  -3.764  0.00  0.00    +0.008 A 
ATOM     21  C   UNL     1       9.317   2.845  -3.959  0.00  0.00    +0.115 A 
ATOM     25  C   UNL     1      11.786   3.316  -2.896  0.00  0.00    +0.020 A 
ATOM     26  C   UNL     1      11.052   2.176  -2.610  0.00  0.00    +0.111 A 
ENDBRANCH  15  17
ENDBRANCH   6  15
TORSDOF 6
ENDMDL
