MODEL 1
REMARK VINA RESULT:      -5.8      0.000      0.000
REMARK  Name = 75367733
REMARK  4 active torsions:
REMARK  status: ('A' for Active; 'I' for Inactive)
REMARK    1  A    between atoms: O_3  and  C_6
REMARK    2  A    between atoms: O_3  and  C_14
REMARK    3  A    between atoms: N_4  and  C_8
REMARK    4  A    between atoms: C_8  and  C_11
REMARK                            x       y       z     vdW  Elec       q    Type
REMARK                         _______ _______ _______ _____ _____    ______ ____
ROOT
ATOM      2  O   UNL     1      12.461   9.973  18.883  0.00  0.00    -0.376 OA
ATOM      4  N   UNL     1      14.442   7.596  19.277  0.00  0.00    -0.293 NA
ATOM      5  C   UNL     1      13.219   6.961  19.781  0.00  0.00    +0.118 C 
ATOM      6  C   UNL     1      11.915   7.771  19.726  0.00  0.00    +0.157 C 
ATOM      7  C   UNL     1      14.239   8.446  18.101  0.00  0.00    +0.113 C 
ATOM      9  C   UNL     1      12.079   9.250  20.048  0.00  0.00    +0.192 C 
ATOM     10  C   UNL     1      13.834   9.854  18.539  0.00  0.00    +0.175 C 
ENDROOT
BRANCH   6   3
ATOM      3  O   UNL     1      11.005   7.212  20.675  0.00  0.00    -0.376 OA
ATOM     14  C   UNL     1      11.627   6.202  21.453  0.00  0.00    +0.194 C 
ENDBRANCH   6   3
BRANCH   4   8
ATOM      8  C   UNL     1      15.472   6.586  19.036  0.00  0.00    +0.119 C 
BRANCH   8  11
ATOM      1 CL   UNL     1      20.291   5.146  20.405  0.00  0.00    -0.084 Cl
ATOM     11  C   UNL     1      16.712   6.845  19.852  0.00  0.00    -0.032 A 
ATOM     12  C   UNL     1      17.800   5.977  19.761  0.00  0.00    +0.025 A 
ATOM     13  C   UNL     1      16.771   7.952  20.698  0.00  0.00    +0.005 A 
ATOM     15  C   UNL     1      18.948   6.218  20.516  0.00  0.00    +0.041 A 
ATOM     16  C   UNL     1      17.918   8.192  21.454  0.00  0.00    +0.002 A 
ATOM     17  C   UNL     1      19.008   7.325  21.362  0.00  0.00    +0.020 A 
ENDBRANCH   8  11
ENDBRANCH   4   8
TORSDOF 3
ENDMDL
MODEL 2
REMARK VINA RESULT:      -5.5      4.293      6.560
REMARK  Name = 75367733
REMARK  4 active torsions:
REMARK  status: ('A' for Active; 'I' for Inactive)
REMARK    1  A    between atoms: O_3  and  C_6
REMARK    2  A    between atoms: O_3  and  C_14
REMARK    3  A    between atoms: N_4  and  C_8
REMARK    4  A    between atoms: C_8  and  C_11
REMARK                            x       y       z     vdW  Elec       q    Type
REMARK                         _______ _______ _______ _____ _____    ______ ____
ROOT
ATOM      2  O   UNL     1      14.494   6.737  20.006  0.00  0.00    -0.376 OA
ATOM      4  N   UNL     1      12.054   8.401  21.007  0.00  0.00    -0.293 NA
ATOM      5  C   UNL     1      11.556   8.046  19.674  0.00  0.00    +0.118 C 
ATOM      6  C   UNL     1      12.436   7.141  18.798  0.00  0.00    +0.157 C 
ATOM      7  C   UNL     1      12.781   7.327  21.687  0.00  0.00    +0.113 C 
ATOM      9  C   UNL     1      13.928   7.428  18.898  0.00  0.00    +0.192 C 
ATOM     10  C   UNL     1      14.251   7.346  21.266  0.00  0.00    +0.175 C 
ENDROOT
BRANCH   6   3
ATOM      3  O   UNL     1      12.042   7.322  17.436  0.00  0.00    -0.376 OA
ATOM     14  C   UNL     1      11.258   8.494  17.279  0.00  0.00    +0.194 C 
ENDBRANCH   6   3
BRANCH   4   8
ATOM      8  C   UNL     1      10.960   8.913  21.833  0.00  0.00    +0.119 C 
BRANCH   8  11
ATOM      1 CL   UNL     1      10.790  12.583  25.531  0.00  0.00    -0.084 Cl
ATOM     11  C   UNL     1      11.187  10.346  22.239  0.00  0.00    -0.032 A 
ATOM     12  C   UNL     1      10.916  10.753  23.545  0.00  0.00    +0.025 A 
ATOM     13  C   UNL     1      11.669  11.266  21.307  0.00  0.00    +0.005 A 
ATOM     15  C   UNL     1      11.127  12.080  23.920  0.00  0.00    +0.041 A 
ATOM     16  C   UNL     1      11.880  12.593  21.682  0.00  0.00    +0.002 A 
ATOM     17  C   UNL     1      11.609  13.000  22.988  0.00  0.00    +0.020 A 
ENDBRANCH   8  11
ENDBRANCH   4   8
TORSDOF 3
ENDMDL
MODEL 3
REMARK VINA RESULT:      -5.4      1.381      3.044
REMARK  Name = 75367733
REMARK  4 active torsions:
REMARK  status: ('A' for Active; 'I' for Inactive)
REMARK    1  A    between atoms: O_3  and  C_6
REMARK    2  A    between atoms: O_3  and  C_14
REMARK    3  A    between atoms: N_4  and  C_8
REMARK    4  A    between atoms: C_8  and  C_11
REMARK                            x       y       z     vdW  Elec       q    Type
REMARK                         _______ _______ _______ _____ _____    ______ ____
ROOT
ATOM      2  O   UNL     1      11.797   7.317  19.047  0.00  0.00    -0.376 OA
ATOM      4  N   UNL     1      14.648   8.247  19.904  0.00  0.00    -0.293 NA
ATOM      5  C   UNL     1      14.416   9.198  18.812  0.00  0.00    +0.118 C 
ATOM      6  C   UNL     1      13.057   9.153  18.098  0.00  0.00    +0.157 C 
ATOM      7  C   UNL     1      13.472   7.986  20.737  0.00  0.00    +0.113 C 
ATOM      9  C   UNL     1      12.503   7.750  17.889  0.00  0.00    +0.192 C 
ATOM     10  C   UNL     1      12.627   6.875  20.112  0.00  0.00    +0.175 C 
ENDROOT
BRANCH   6   3
ATOM      3  O   UNL     1      13.209   9.762  16.814  0.00  0.00    -0.376 OA
ATOM     14  C   UNL     1      13.827   8.877  15.894  0.00  0.00    +0.194 C 
ENDBRANCH   6   3
BRANCH   4   8
ATOM      8  C   UNL     1      15.790   8.676  20.712  0.00  0.00    +0.119 C 
BRANCH   8  11
ATOM      1 CL   UNL     1      20.579   7.266  22.211  0.00  0.00    -0.084 Cl
ATOM     11  C   UNL     1      16.953   7.726  20.586  0.00  0.00    -0.032 A 
ATOM     12  C   UNL     1      18.094   7.914  21.366  0.00  0.00    +0.025 A 
ATOM     13  C   UNL     1      16.888   6.659  19.690  0.00  0.00    +0.005 A 
ATOM     15  C   UNL     1      19.170   7.034  21.250  0.00  0.00    +0.041 A 
ATOM     16  C   UNL     1      17.964   5.780  19.573  0.00  0.00    +0.002 A 
ATOM     17  C   UNL     1      19.105   5.967  20.354  0.00  0.00    +0.020 A 
ENDBRANCH   8  11
ENDBRANCH   4   8
TORSDOF 3
ENDMDL
MODEL 4
REMARK VINA RESULT:      -5.4      4.187      5.746
REMARK  Name = 75367733
REMARK  4 active torsions:
REMARK  status: ('A' for Active; 'I' for Inactive)
REMARK    1  A    between atoms: O_3  and  C_6
REMARK    2  A    between atoms: O_3  and  C_14
REMARK    3  A    between atoms: N_4  and  C_8
REMARK    4  A    between atoms: C_8  and  C_11
REMARK                            x       y       z     vdW  Elec       q    Type
REMARK                         _______ _______ _______ _____ _____    ______ ____
ROOT
ATOM      2  O   UNL     1      10.626   8.293  22.910  0.00  0.00    -0.376 OA
ATOM      4  N   UNL     1      12.049   7.927  20.159  0.00  0.00    -0.293 NA
ATOM      5  C   UNL     1      12.757   9.124  20.625  0.00  0.00    +0.118 C 
ATOM      6  C   UNL     1      12.414   9.662  22.023  0.00  0.00    +0.157 C 
ATOM      7  C   UNL     1      11.788   6.935  21.204  0.00  0.00    +0.113 C 
ATOM      9  C   UNL     1      10.937   9.579  22.384  0.00  0.00    +0.192 C 
ATOM     10  C   UNL     1      10.486   7.273  21.932  0.00  0.00    +0.175 C 
ENDROOT
BRANCH   6   3
ATOM      3  O   UNL     1      12.805  11.035  22.079  0.00  0.00    -0.376 OA
ATOM     14  C   UNL     1      12.125  11.804  21.099  0.00  0.00    +0.194 C 
ENDBRANCH   6   3
BRANCH   4   8
ATOM      8  C   UNL     1      12.754   7.334  19.023  0.00  0.00    +0.119 C 
BRANCH   8  11
ATOM      1 CL   UNL     1      14.832  10.111  15.132  0.00  0.00    -0.084 Cl
ATOM     11  C   UNL     1      12.557   8.135  17.762  0.00  0.00    -0.032 A 
ATOM     12  C   UNL     1      13.657   8.687  17.107  0.00  0.00    +0.025 A 
ATOM     13  C   UNL     1      11.273   8.322  17.249  0.00  0.00    +0.005 A 
ATOM     15  C   UNL     1      13.474   9.427  15.939  0.00  0.00    +0.041 A 
ATOM     16  C   UNL     1      11.090   9.062  16.081  0.00  0.00    +0.002 A 
ATOM     17  C   UNL     1      12.191   9.615  15.426  0.00  0.00    +0.020 A 
ENDBRANCH   8  11
ENDBRANCH   4   8
TORSDOF 3
ENDMDL
MODEL 5
REMARK VINA RESULT:      -5.1     25.833     26.939
REMARK  Name = 75367733
REMARK  4 active torsions:
REMARK  status: ('A' for Active; 'I' for Inactive)
REMARK    1  A    between atoms: O_3  and  C_6
REMARK    2  A    between atoms: O_3  and  C_14
REMARK    3  A    between atoms: N_4  and  C_8
REMARK    4  A    between atoms: C_8  and  C_11
REMARK                            x       y       z     vdW  Elec       q    Type
REMARK                         _______ _______ _______ _____ _____    ______ ____
ROOT
ATOM      2  O   UNL     1     -11.305  11.355  14.669  0.00  0.00    -0.376 OA
ATOM      4  N   UNL     1     -10.573   9.810  17.276  0.00  0.00    -0.293 NA
ATOM      5  C   UNL     1     -10.513   8.694  16.326  0.00  0.00    +0.118 C 
ATOM      6  C   UNL     1     -10.758   9.004  14.841  0.00  0.00    +0.157 C 
ATOM      7  C   UNL     1     -10.028  11.069  16.765  0.00  0.00    +0.113 C 
ATOM      9  C   UNL     1     -11.844  10.040  14.585  0.00  0.00    +0.192 C 
ATOM     10  C   UNL     1     -11.108  11.829  15.993  0.00  0.00    +0.175 C 
ENDROOT
BRANCH   6   3
ATOM      3  O   UNL     1     -11.145   7.791  14.192  0.00  0.00    -0.376 OA
ATOM     14  C   UNL     1     -10.216   7.427  13.184  0.00  0.00    +0.194 C 
ENDBRANCH   6   3
BRANCH   4   8
ATOM      8  C   UNL     1      -9.943   9.429  18.540  0.00  0.00    +0.119 C 
BRANCH   8  11
ATOM      1 CL   UNL     1     -12.584   5.998  21.444  0.00  0.00    -0.084 Cl
ATOM     11  C   UNL     1     -10.962   9.167  19.618  0.00  0.00    -0.032 A 
ATOM     12  C   UNL     1     -11.265   7.857  19.988  0.00  0.00    +0.025 A 
ATOM     13  C   UNL     1     -11.602  10.235  20.247  0.00  0.00    +0.005 A 
ATOM     15  C   UNL     1     -12.208   7.615  20.988  0.00  0.00    +0.041 A 
ATOM     16  C   UNL     1     -12.545   9.994  21.245  0.00  0.00    +0.002 A 
ATOM     17  C   UNL     1     -12.848   8.684  21.616  0.00  0.00    +0.020 A 
ENDBRANCH   8  11
ENDBRANCH   4   8
TORSDOF 3
ENDMDL
MODEL 6
REMARK VINA RESULT:      -4.9     26.066     27.190
REMARK  Name = 75367733
REMARK  4 active torsions:
REMARK  status: ('A' for Active; 'I' for Inactive)
REMARK    1  A    between atoms: O_3  and  C_6
REMARK    2  A    between atoms: O_3  and  C_14
REMARK    3  A    between atoms: N_4  and  C_8
REMARK    4  A    between atoms: C_8  and  C_11
REMARK                            x       y       z     vdW  Elec       q    Type
REMARK                         _______ _______ _______ _____ _____    ______ ____
ROOT
ATOM      2  O   UNL     1     -11.517  11.045  14.743  0.00  0.00    -0.376 OA
ATOM      4  N   UNL     1     -10.740   9.533  17.358  0.00  0.00    -0.293 NA
ATOM      5  C   UNL     1     -10.496   8.457  16.391  0.00  0.00    +0.118 C 
ATOM      6  C   UNL     1     -10.698   8.773  14.901  0.00  0.00    +0.157 C 
ATOM      7  C   UNL     1     -10.326  10.861  16.901  0.00  0.00    +0.113 C 
ATOM      9  C   UNL     1     -11.887   9.677  14.606  0.00  0.00    +0.192 C 
ATOM     10  C   UNL     1     -11.448  11.505  16.085  0.00  0.00    +0.175 C 
ENDROOT
BRANCH   6   3
ATOM      3  O   UNL     1     -10.901   7.539  14.209  0.00  0.00    -0.376 OA
ATOM     14  C   UNL     1     -10.130   7.482  13.020  0.00  0.00    +0.194 C 
ENDBRANCH   6   3
BRANCH   4   8
ATOM      8  C   UNL     1     -10.135   9.198  18.647  0.00  0.00    +0.119 C 
BRANCH   8  11
ATOM      1 CL   UNL     1     -13.759  10.385  22.202  0.00  0.00    -0.084 Cl
ATOM     11  C   UNL     1     -11.164   8.733  19.645  0.00  0.00    -0.032 A 
ATOM     12  C   UNL     1     -11.899   9.666  20.375  0.00  0.00    +0.025 A 
ATOM     13  C   UNL     1     -11.380   7.368  19.837  0.00  0.00    +0.005 A 
ATOM     15  C   UNL     1     -12.852   9.234  21.298  0.00  0.00    +0.041 A 
ATOM     16  C   UNL     1     -12.333   6.936  20.760  0.00  0.00    +0.002 A 
ATOM     17  C   UNL     1     -13.069   7.869  21.491  0.00  0.00    +0.020 A 
ENDBRANCH   8  11
ENDBRANCH   4   8
TORSDOF 3
ENDMDL
MODEL 7
REMARK VINA RESULT:      -4.9     14.963     16.700
REMARK  Name = 75367733
REMARK  4 active torsions:
REMARK  status: ('A' for Active; 'I' for Inactive)
REMARK    1  A    between atoms: O_3  and  C_6
REMARK    2  A    between atoms: O_3  and  C_14
REMARK    3  A    between atoms: N_4  and  C_8
REMARK    4  A    between atoms: C_8  and  C_11
REMARK                            x       y       z     vdW  Elec       q    Type
REMARK                         _______ _______ _______ _____ _____    ______ ____
ROOT
ATOM      2  O   UNL     1      12.959   7.842   6.716  0.00  0.00    -0.376 OA
ATOM      4  N   UNL     1      10.911   6.284   4.954  0.00  0.00    -0.293 NA
ATOM      5  C   UNL     1      10.489   5.803   6.274  0.00  0.00    +0.118 C 
ATOM      6  C   UNL     1      11.209   6.370   7.507  0.00  0.00    +0.157 C 
ATOM      7  C   UNL     1      11.272   7.702   4.915  0.00  0.00    +0.113 C 
ATOM      9  C   UNL     1      12.705   6.579   7.321  0.00  0.00    +0.192 C 
ATOM     10  C   UNL     1      12.738   7.878   5.313  0.00  0.00    +0.175 C 
ENDROOT
BRANCH   6   3
ATOM      3  O   UNL     1      11.023   5.455   8.589  0.00  0.00    -0.376 OA
ATOM     14  C   UNL     1       9.792   4.761   8.472  0.00  0.00    +0.194 C 
ENDBRANCH   6   3
BRANCH   4   8
ATOM      8  C   UNL     1       9.895   5.963   3.952  0.00  0.00    +0.119 C 
BRANCH   8  11
ATOM      1 CL   UNL     1      13.673   3.203   1.653  0.00  0.00    -0.084 Cl
ATOM     11  C   UNL     1      10.506   5.418   2.688  0.00  0.00    -0.032 A 
ATOM     12  C   UNL     1      11.670   4.652   2.750  0.00  0.00    +0.025 A 
ATOM     13  C   UNL     1       9.907   5.679   1.455  0.00  0.00    +0.005 A 
ATOM     15  C   UNL     1      12.235   4.147   1.578  0.00  0.00    +0.041 A 
ATOM     16  C   UNL     1      10.472   5.174   0.284  0.00  0.00    +0.002 A 
ATOM     17  C   UNL     1      11.636   4.408   0.345  0.00  0.00    +0.020 A 
ENDBRANCH   8  11
ENDBRANCH   4   8
TORSDOF 3
ENDMDL
MODEL 8
REMARK VINA RESULT:      -4.9     27.087     29.131
REMARK  Name = 75367733
REMARK  4 active torsions:
REMARK  status: ('A' for Active; 'I' for Inactive)
REMARK    1  A    between atoms: O_3  and  C_6
REMARK    2  A    between atoms: O_3  and  C_14
REMARK    3  A    between atoms: N_4  and  C_8
REMARK    4  A    between atoms: C_8  and  C_11
REMARK                            x       y       z     vdW  Elec       q    Type
REMARK                         _______ _______ _______ _____ _____    ______ ____
ROOT
ATOM      2  O   UNL     1     -17.034   6.143  22.376  0.00  0.00    -0.376 OA
ATOM      4  N   UNL     1     -13.947   6.216  21.942  0.00  0.00    -0.293 NA
ATOM      5  C   UNL     1     -14.015   5.121  22.916  0.00  0.00    +0.118 C 
ATOM      6  C   UNL     1     -15.404   4.674  23.397  0.00  0.00    +0.157 C 
ATOM      7  C   UNL     1     -15.020   6.205  20.946  0.00  0.00    +0.113 C 
ATOM      9  C   UNL     1     -16.394   5.813  23.604  0.00  0.00    +0.192 C 
ATOM     10  C   UNL     1     -16.248   6.932  21.495  0.00  0.00    +0.175 C 
ENDROOT
BRANCH   6   3
ATOM      3  O   UNL     1     -15.245   3.997  24.645  0.00  0.00    -0.376 OA
ATOM     14  C   UNL     1     -16.037   2.821  24.697  0.00  0.00    +0.194 C 
ENDBRANCH   6   3
BRANCH   4   8
ATOM      8  C   UNL     1     -12.629   6.245  21.309  0.00  0.00    +0.119 C 
BRANCH   8  11
ATOM      1 CL   UNL     1      -9.897   9.368  18.153  0.00  0.00    -0.084 Cl
ATOM     11  C   UNL     1     -12.232   7.640  20.904  0.00  0.00    -0.032 A 
ATOM     12  C   UNL     1     -11.352   7.835  19.840  0.00  0.00    +0.025 A 
ATOM     13  C   UNL     1     -12.745   8.739  21.595  0.00  0.00    +0.005 A 
ATOM     15  C   UNL     1     -10.985   9.128  19.466  0.00  0.00    +0.041 A 
ATOM     16  C   UNL     1     -12.379  10.031  21.221  0.00  0.00    +0.002 A 
ATOM     17  C   UNL     1     -11.499  10.226  20.156  0.00  0.00    +0.020 A 
ENDBRANCH   8  11
ENDBRANCH   4   8
TORSDOF 3
ENDMDL
MODEL 9
REMARK VINA RESULT:      -4.7     26.507     28.246
REMARK  Name = 75367733
REMARK  4 active torsions:
REMARK  status: ('A' for Active; 'I' for Inactive)
REMARK    1  A    between atoms: O_3  and  C_6
REMARK    2  A    between atoms: O_3  and  C_14
REMARK    3  A    between atoms: N_4  and  C_8
REMARK    4  A    between atoms: C_8  and  C_11
REMARK                            x       y       z     vdW  Elec       q    Type
REMARK                         _______ _______ _______ _____ _____    ______ ____
ROOT
ATOM      2  O   UNL     1     -16.130   8.380  20.945  0.00  0.00    -0.376 OA
ATOM      4  N   UNL     1     -13.182   7.372  20.814  0.00  0.00    -0.293 NA
ATOM      5  C   UNL     1     -13.694   6.449  21.833  0.00  0.00    +0.118 C 
ATOM      6  C   UNL     1     -15.184   6.538  22.197  0.00  0.00    +0.157 C 
ATOM      7  C   UNL     1     -14.116   7.640  19.719  0.00  0.00    +0.113 C 
ATOM      9  C   UNL     1     -15.736   7.957  22.245  0.00  0.00    +0.192 C 
ATOM     10  C   UNL     1     -15.058   8.782  20.105  0.00  0.00    +0.175 C 
ENDROOT
BRANCH   6   3
ATOM      3  O   UNL     1     -15.362   5.953  23.489  0.00  0.00    -0.376 OA
ATOM     14  C   UNL     1     -14.612   4.756  23.619  0.00  0.00    +0.194 C 
ENDBRANCH   6   3
BRANCH   4   8
ATOM      8  C   UNL     1     -11.891   6.902  20.312  0.00  0.00    +0.119 C 
BRANCH   8  11
ATOM      1 CL   UNL     1     -10.438   8.098  15.451  0.00  0.00    -0.084 Cl
ATOM     11  C   UNL     1     -11.268   7.888  19.359  0.00  0.00    -0.032 A 
ATOM     12  C   UNL     1     -11.155   7.573  18.005  0.00  0.00    +0.025 A 
ATOM     13  C   UNL     1     -10.803   9.116  19.831  0.00  0.00    +0.005 A 
ATOM     15  C   UNL     1     -10.579   8.487  17.123  0.00  0.00    +0.041 A 
ATOM     16  C   UNL     1     -10.227  10.029  18.949  0.00  0.00    +0.002 A 
ATOM     17  C   UNL     1     -10.114   9.715  17.594  0.00  0.00    +0.020 A 
ENDBRANCH   8  11
ENDBRANCH   4   8
TORSDOF 3
ENDMDL
MODEL 10
REMARK VINA RESULT:      -4.7     16.276     17.894
REMARK  Name = 75367733
REMARK  4 active torsions:
REMARK  status: ('A' for Active; 'I' for Inactive)
REMARK    1  A    between atoms: O_3  and  C_6
REMARK    2  A    between atoms: O_3  and  C_14
REMARK    3  A    between atoms: N_4  and  C_8
REMARK    4  A    between atoms: C_8  and  C_11
REMARK                            x       y       z     vdW  Elec       q    Type
REMARK                         _______ _______ _______ _____ _____    ______ ____
ROOT
ATOM      2  O   UNL     1      12.854   7.934   5.079  0.00  0.00    -0.376 OA
ATOM      4  N   UNL     1      11.250   5.526   3.915  0.00  0.00    -0.293 NA
ATOM      5  C   UNL     1      10.690   5.539   5.271  0.00  0.00    +0.118 C 
ATOM      6  C   UNL     1      11.162   6.642   6.231  0.00  0.00    +0.157 C 
ATOM      7  C   UNL     1      11.470   6.854   3.340  0.00  0.00    +0.113 C 
ATOM      9  C   UNL     1      12.642   6.983   6.117  0.00  0.00    +0.192 C 
ATOM     10  C   UNL     1      12.837   7.388   3.768  0.00  0.00    +0.175 C 
ENDROOT
BRANCH   6   3
ATOM      3  O   UNL     1      10.913   6.203   7.568  0.00  0.00    -0.376 OA
ATOM     14  C   UNL     1       9.963   5.151   7.596  0.00  0.00    +0.194 C 
ENDBRANCH   6   3
BRANCH   4   8
ATOM      8  C   UNL     1      10.427   4.692   3.039  0.00  0.00    +0.119 C 
BRANCH   8  11
ATOM      1 CL   UNL     1      10.644   4.188  -2.145  0.00  0.00    -0.084 Cl
ATOM     11  C   UNL     1      11.187   4.243   1.818  0.00  0.00    -0.032 A 
ATOM     12  C   UNL     1      10.629   4.406   0.550  0.00  0.00    +0.025 A 
ATOM     13  C   UNL     1      12.449   3.664   1.956  0.00  0.00    +0.005 A 
ATOM     15  C   UNL     1      11.333   3.990  -0.580  0.00  0.00    +0.041 A 
ATOM     16  C   UNL     1      13.153   3.248   0.826  0.00  0.00    +0.002 A 
ATOM     17  C   UNL     1      12.595   3.411  -0.443  0.00  0.00    +0.020 A 
ENDBRANCH   8  11
ENDBRANCH   4   8
TORSDOF 3
ENDMDL
