MODEL 1
REMARK VINA RESULT:      -6.7      0.000      0.000
REMARK  Name = 40779513
REMARK  13 active torsions:
REMARK  status: ('A' for Active; 'I' for Inactive)
REMARK    1  A    between atoms: O_2  and  C_28
REMARK    2  A    between atoms: O_2  and  C_31
REMARK    3  A    between atoms: O_3  and  C_30
REMARK    4  A    between atoms: O_3  and  C_32
REMARK    5  A    between atoms: N_5  and  C_19
REMARK    6  A    between atoms: N_6  and  C_15
REMARK    7  A    between atoms: C_9  and  C_16
REMARK    8  A    between atoms: C_10  and  C_15
REMARK    9  A    between atoms: C_18  and  C_22
REMARK   10  A    between atoms: C_20  and  C_21
REMARK   11  A    between atoms: C_21  and  C_23
REMARK   12  A    between atoms: C_21  and  C_24
REMARK   13  A    between atoms: C_21  and  C_25
REMARK                            x       y       z     vdW  Elec       q    Type
REMARK                         _______ _______ _______ _____ _____    ______ ____
ROOT
ATOM      4  N   UNL     1      -6.542 -10.594  18.191  0.00  0.00    -0.297 NA
ATOM      8  C   UNL     1      -4.478 -12.083  17.634  0.00  0.00    +0.002 C 
ATOM      9  C   UNL     1      -4.367 -10.709  16.917  0.00  0.00    +0.055 C 
ATOM     10  C   UNL     1      -6.991 -11.943  17.753  0.00  0.00    +0.074 C 
ATOM     11  C   UNL     1      -5.798 -12.768  17.223  0.00  0.00    +0.024 C 
ATOM     12  C   UNL     1      -4.572 -11.788  19.147  0.00  0.00    +0.019 C 
ATOM     13  C   UNL     1      -5.716  -9.965  17.130  0.00  0.00    +0.094 C 
ATOM     14  C   UNL     1      -5.696 -10.766  19.396  0.00  0.00    +0.085 C 
ENDROOT
BRANCH   9  16
ATOM      5  N   UNL     1      -2.612 -10.676  15.084  0.00  0.00    -0.270 N 
ATOM      7  N   UNL     1      -2.431 -10.664  13.753  0.00  0.00    -0.171 NA
ATOM     16  C   UNL     1      -3.923 -10.693  15.462  0.00  0.00    +0.044 A 
ATOM     17  C   UNL     1      -4.650 -10.689  14.296  0.00  0.00    +0.053 A 
ATOM     18  C   UNL     1      -3.679 -10.671  13.276  0.00  0.00    +0.093 A 
ATOM     19  C   UNL     1      -1.458 -10.672  15.953  0.00  0.00    +0.172 C 
BRANCH  18  22
ATOM     22  C   UNL     1      -3.921 -10.659  11.857  0.00  0.00    +0.006 A 
ATOM     26  C   UNL     1      -4.521  -9.549  11.261  0.00  0.00    +0.059 A 
ATOM     27  C   UNL     1      -3.556 -11.756  11.078  0.00  0.00    +0.014 A 
ATOM     28  C   UNL     1      -4.756  -9.538   9.887  0.00  0.00    +0.162 A 
ATOM     29  C   UNL     1      -3.792 -11.745   9.703  0.00  0.00    +0.050 A 
ATOM     30  C   UNL     1      -4.392 -10.636   9.107  0.00  0.00    +0.162 A 
BRANCH  28   2
ATOM      2  O   UNL     1      -5.344  -8.449   9.315  0.00  0.00    -0.491 OA
ATOM     31  C   UNL     1      -6.769  -8.399   9.332  0.00  0.00    +0.277 C 
ENDBRANCH  28   2
BRANCH  30   3
ATOM      3  O   UNL     1      -4.615 -10.637   7.764  0.00  0.00    -0.491 OA
ATOM     32  C   UNL     1      -5.725 -11.398   7.290  0.00  0.00    +0.277 C 
ENDBRANCH  30   3
ENDBRANCH  18  22
ENDBRANCH   9  16
BRANCH  10  15
ATOM     15  C   UNL     1      -8.133 -11.875  16.737  0.00  0.00    +0.123 C 
BRANCH  15   6
ATOM      1  O   UNL     1      -9.188  -9.628  15.338  0.00  0.00    -0.275 OA
ATOM      6  N   UNL     1      -9.171 -11.002  17.195  0.00  0.00    -0.313 N 
ATOM     20  C   UNL     1      -9.634  -9.920  16.448  0.00  0.00    +0.218 C 
ATOM     33  H   UNL     1      -9.555 -11.174  18.118  0.00  0.00    +0.149 HD
BRANCH  20  21
ATOM     21  C   UNL     1     -10.760  -9.107  17.121  0.00  0.00    +0.039 C 
ATOM     23  C   UNL     1     -12.094  -9.360  16.405  0.00  0.00    +0.020 C 
ATOM     24  C   UNL     1     -10.899  -9.546  18.590  0.00  0.00    +0.020 C 
ATOM     25  C   UNL     1     -10.418  -7.608  17.089  0.00  0.00    +0.020 C 
ENDBRANCH  20  21
ENDBRANCH  15   6
ENDBRANCH  10  15
TORSDOF 7
ENDMDL
MODEL 2
REMARK VINA RESULT:      -6.6      2.470      8.235
REMARK  Name = 40779513
REMARK  13 active torsions:
REMARK  status: ('A' for Active; 'I' for Inactive)
REMARK    1  A    between atoms: O_2  and  C_28
REMARK    2  A    between atoms: O_2  and  C_31
REMARK    3  A    between atoms: O_3  and  C_30
REMARK    4  A    between atoms: O_3  and  C_32
REMARK    5  A    between atoms: N_5  and  C_19
REMARK    6  A    between atoms: N_6  and  C_15
REMARK    7  A    between atoms: C_9  and  C_16
REMARK    8  A    between atoms: C_10  and  C_15
REMARK    9  A    between atoms: C_18  and  C_22
REMARK   10  A    between atoms: C_20  and  C_21
REMARK   11  A    between atoms: C_21  and  C_23
REMARK   12  A    between atoms: C_21  and  C_24
REMARK   13  A    between atoms: C_21  and  C_25
REMARK                            x       y       z     vdW  Elec       q    Type
REMARK                         _______ _______ _______ _____ _____    ______ ____
ROOT
ATOM      4  N   UNL     1      -5.577 -12.108  16.183  0.00  0.00    -0.297 NA
ATOM      8  C   UNL     1      -5.898 -10.306  18.036  0.00  0.00    +0.002 C 
ATOM      9  C   UNL     1      -7.230 -11.065  17.779  0.00  0.00    +0.055 C 
ATOM     10  C   UNL     1      -5.040 -10.800  15.720  0.00  0.00    +0.074 C 
ATOM     11  C   UNL     1      -5.406  -9.679  16.715  0.00  0.00    +0.024 C 
ATOM     12  C   UNL     1      -4.855 -11.366  18.452  0.00  0.00    +0.019 C 
ATOM     13  C   UNL     1      -7.013 -11.971  16.534  0.00  0.00    +0.094 C 
ATOM     14  C   UNL     1      -4.836 -12.496  17.407  0.00  0.00    +0.085 C 
ENDROOT
BRANCH   9  16
ATOM      5  N   UNL     1      -9.487 -10.288  18.640  0.00  0.00    -0.270 N 
ATOM      7  N   UNL     1     -10.540  -9.499  18.370  0.00  0.00    -0.171 NA
ATOM     16  C   UNL     1      -8.513 -10.253  17.686  0.00  0.00    +0.044 A 
ATOM     17  C   UNL     1      -8.961  -9.381  16.724  0.00  0.00    +0.053 A 
ATOM     18  C   UNL     1     -10.214  -8.947  17.198  0.00  0.00    +0.093 A 
ATOM     19  C   UNL     1      -9.481 -11.065  19.858  0.00  0.00    +0.172 C 
BRANCH  18  22
ATOM     22  C   UNL     1     -11.105  -8.019  16.553  0.00  0.00    +0.006 A 
ATOM     26  C   UNL     1     -12.457  -8.333  16.410  0.00  0.00    +0.059 A 
ATOM     27  C   UNL     1     -10.616  -6.805  16.069  0.00  0.00    +0.014 A 
ATOM     28  C   UNL     1     -13.319  -7.433  15.784  0.00  0.00    +0.162 A 
ATOM     29  C   UNL     1     -11.479  -5.905  15.442  0.00  0.00    +0.050 A 
ATOM     30  C   UNL     1     -12.831  -6.220  15.300  0.00  0.00    +0.162 A 
BRANCH  28   2
ATOM      2  O   UNL     1     -14.638  -7.751  15.650  0.00  0.00    -0.491 OA
ATOM     31  C   UNL     1     -15.463  -7.585  16.801  0.00  0.00    +0.277 C 
ENDBRANCH  28   2
BRANCH  30   3
ATOM      3  O   UNL     1     -13.663  -5.332  14.688  0.00  0.00    -0.491 OA
ATOM     32  C   UNL     1     -13.165  -4.669  13.527  0.00  0.00    +0.277 C 
ENDBRANCH  30   3
ENDBRANCH  18  22
ENDBRANCH   9  16
BRANCH  10  15
ATOM     15  C   UNL     1      -5.479 -10.463  14.294  0.00  0.00    +0.123 C 
BRANCH  15   6
ATOM      1  O   UNL     1      -5.333  -9.456  11.633  0.00  0.00    -0.275 OA
ATOM      6  N   UNL     1      -4.407 -10.667  13.368  0.00  0.00    -0.313 N 
ATOM     20  C   UNL     1      -4.410 -10.138  12.078  0.00  0.00    +0.218 C 
ATOM     33  H   UNL     1      -3.632 -11.249  13.669  0.00  0.00    +0.149 HD
BRANCH  20  21
ATOM     21  C   UNL     1      -3.157 -10.473  11.242  0.00  0.00    +0.039 C 
ATOM     23  C   UNL     1      -2.814  -9.299  10.313  0.00  0.00    +0.020 C 
ATOM     24  C   UNL     1      -1.964 -10.719  12.184  0.00  0.00    +0.020 C 
ATOM     25  C   UNL     1      -3.400 -11.747  10.417  0.00  0.00    +0.020 C 
ENDBRANCH  20  21
ENDBRANCH  15   6
ENDBRANCH  10  15
TORSDOF 7
ENDMDL
MODEL 3
REMARK VINA RESULT:      -6.5     27.207     30.093
REMARK  Name = 40779513
REMARK  13 active torsions:
REMARK  status: ('A' for Active; 'I' for Inactive)
REMARK    1  A    between atoms: O_2  and  C_28
REMARK    2  A    between atoms: O_2  and  C_31
REMARK    3  A    between atoms: O_3  and  C_30
REMARK    4  A    between atoms: O_3  and  C_32
REMARK    5  A    between atoms: N_5  and  C_19
REMARK    6  A    between atoms: N_6  and  C_15
REMARK    7  A    between atoms: C_9  and  C_16
REMARK    8  A    between atoms: C_10  and  C_15
REMARK    9  A    between atoms: C_18  and  C_22
REMARK   10  A    between atoms: C_20  and  C_21
REMARK   11  A    between atoms: C_21  and  C_23
REMARK   12  A    between atoms: C_21  and  C_24
REMARK   13  A    between atoms: C_21  and  C_25
REMARK                            x       y       z     vdW  Elec       q    Type
REMARK                         _______ _______ _______ _____ _____    ______ ____
ROOT
ATOM      4  N   UNL     1      11.759   8.725  22.169  0.00  0.00    -0.297 NA
ATOM      8  C   UNL     1      12.489   8.681  19.669  0.00  0.00    +0.002 C 
ATOM      9  C   UNL     1      13.114   7.484  20.439  0.00  0.00    +0.055 C 
ATOM     10  C   UNL     1      12.273  10.061  21.765  0.00  0.00    +0.074 C 
ATOM     11  C   UNL     1      12.900  10.000  20.356  0.00  0.00    +0.024 C 
ATOM     12  C   UNL     1      10.957   8.552  19.813  0.00  0.00    +0.019 C 
ATOM     13  C   UNL     1      12.802   7.693  21.949  0.00  0.00    +0.094 C 
ATOM     14  C   UNL     1      10.599   8.404  21.303  0.00  0.00    +0.085 C 
ENDROOT
BRANCH   9  16
ATOM      5  N   UNL     1      15.119   7.058  18.944  0.00  0.00    -0.270 N 
ATOM      7  N   UNL     1      16.429   6.762  18.941  0.00  0.00    -0.171 NA
ATOM     16  C   UNL     1      14.579   7.157  20.192  0.00  0.00    +0.044 A 
ATOM     17  C   UNL     1      15.608   6.907  21.068  0.00  0.00    +0.053 A 
ATOM     18  C   UNL     1      16.723   6.670  20.241  0.00  0.00    +0.093 A 
ATOM     19  C   UNL     1      14.434   7.236  17.685  0.00  0.00    +0.172 C 
BRANCH  18  22
ATOM     22  C   UNL     1      18.061   6.356  20.669  0.00  0.00    +0.006 A 
ATOM     26  C   UNL     1      18.591   6.967  21.806  0.00  0.00    +0.059 A 
ATOM     27  C   UNL     1      18.828   5.442  19.947  0.00  0.00    +0.014 A 
ATOM     28  C   UNL     1      19.888   6.664  22.220  0.00  0.00    +0.162 A 
ATOM     29  C   UNL     1      20.126   5.139  20.361  0.00  0.00    +0.050 A 
ATOM     30  C   UNL     1      20.655   5.750  21.498  0.00  0.00    +0.162 A 
BRANCH  28   2
ATOM      2  O   UNL     1      20.395   7.266  23.332  0.00  0.00    -0.491 OA
ATOM     31  C   UNL     1      20.212   8.677  23.444  0.00  0.00    +0.277 C 
ENDBRANCH  28   2
BRANCH  30   3
ATOM      3  O   UNL     1      21.922   5.444  21.893  0.00  0.00    -0.491 OA
ATOM     32  C   UNL     1      22.121   4.172  22.508  0.00  0.00    +0.277 C 
ENDBRANCH  30   3
ENDBRANCH  18  22
ENDBRANCH   9  16
BRANCH  10  15
ATOM     15  C   UNL     1      13.240  10.648  22.794  0.00  0.00    +0.123 C 
BRANCH  15   6
ATOM      1  O   UNL     1      13.376  11.396  25.540  0.00  0.00    -0.275 OA
ATOM      6  N   UNL     1      12.704  11.841  23.375  0.00  0.00    -0.313 N 
ATOM     20  C   UNL     1      12.812  12.137  24.734  0.00  0.00    +0.218 C 
ATOM     33  H   UNL     1      12.200  12.475  22.764  0.00  0.00    +0.149 HD
BRANCH  20  21
ATOM     21  C   UNL     1      12.169  13.475  25.155  0.00  0.00    +0.039 C 
ATOM     23  C   UNL     1      12.906  14.054  26.372  0.00  0.00    +0.020 C 
ATOM     24  C   UNL     1      12.273  14.480  23.994  0.00  0.00    +0.020 C 
ATOM     25  C   UNL     1      10.684  13.263  25.488  0.00  0.00    +0.020 C 
ENDBRANCH  20  21
ENDBRANCH  15   6
ENDBRANCH  10  15
TORSDOF 7
ENDMDL
MODEL 4
REMARK VINA RESULT:      -6.5     27.028     29.807
REMARK  Name = 40779513
REMARK  13 active torsions:
REMARK  status: ('A' for Active; 'I' for Inactive)
REMARK    1  A    between atoms: O_2  and  C_28
REMARK    2  A    between atoms: O_2  and  C_31
REMARK    3  A    between atoms: O_3  and  C_30
REMARK    4  A    between atoms: O_3  and  C_32
REMARK    5  A    between atoms: N_5  and  C_19
REMARK    6  A    between atoms: N_6  and  C_15
REMARK    7  A    between atoms: C_9  and  C_16
REMARK    8  A    between atoms: C_10  and  C_15
REMARK    9  A    between atoms: C_18  and  C_22
REMARK   10  A    between atoms: C_20  and  C_21
REMARK   11  A    between atoms: C_21  and  C_23
REMARK   12  A    between atoms: C_21  and  C_24
REMARK   13  A    between atoms: C_21  and  C_25
REMARK                            x       y       z     vdW  Elec       q    Type
REMARK                         _______ _______ _______ _____ _____    ______ ____
ROOT
ATOM      4  N   UNL     1      12.807   6.717  21.077  0.00  0.00    -0.297 NA
ATOM      8  C   UNL     1      11.424   8.845  20.491  0.00  0.00    +0.002 C 
ATOM      9  C   UNL     1      11.936   8.157  19.196  0.00  0.00    +0.055 C 
ATOM     10  C   UNL     1      13.288   7.874  21.879  0.00  0.00    +0.074 C 
ATOM     11  C   UNL     1      12.624   9.183  21.400  0.00  0.00    +0.024 C 
ATOM     12  C   UNL     1      10.567   7.802  21.241  0.00  0.00    +0.019 C 
ATOM     13  C   UNL     1      12.912   7.025  19.629  0.00  0.00    +0.094 C 
ATOM     14  C   UNL     1      11.376   6.503  21.403  0.00  0.00    +0.085 C 
ENDROOT
BRANCH   9  16
ATOM      5  N   UNL     1      11.940   9.177  16.873  0.00  0.00    -0.270 N 
ATOM      7  N   UNL     1      12.612   9.996  16.047  0.00  0.00    -0.171 NA
ATOM     16  C   UNL     1      12.520   9.034  18.099  0.00  0.00    +0.044 A 
ATOM     17  C   UNL     1      13.652   9.813  18.072  0.00  0.00    +0.053 A 
ATOM     18  C   UNL     1      13.657  10.381  16.784  0.00  0.00    +0.093 A 
ATOM     19  C   UNL     1      10.722   8.552  16.410  0.00  0.00    +0.172 C 
BRANCH  18  22
ATOM     22  C   UNL     1      14.641  11.282  16.244  0.00  0.00    +0.006 A 
ATOM     26  C   UNL     1      14.584  11.656  14.901  0.00  0.00    +0.059 A 
ATOM     27  C   UNL     1      15.654  11.780  17.064  0.00  0.00    +0.014 A 
ATOM     28  C   UNL     1      15.538  12.528  14.379  0.00  0.00    +0.162 A 
ATOM     29  C   UNL     1      16.609  12.653  16.541  0.00  0.00    +0.050 A 
ATOM     30  C   UNL     1      16.551  13.027  15.199  0.00  0.00    +0.162 A 
BRANCH  28   2
ATOM      2  O   UNL     1      15.472  12.887  13.066  0.00  0.00    -0.491 OA
ATOM     31  C   UNL     1      16.025  11.976  12.118  0.00  0.00    +0.277 C 
ENDBRANCH  28   2
BRANCH  30   3
ATOM      3  O   UNL     1      17.488  13.881  14.700  0.00  0.00    -0.491 OA
ATOM     32  C   UNL     1      18.763  13.890  15.341  0.00  0.00    +0.277 C 
ENDBRANCH  30   3
ENDBRANCH  18  22
ENDBRANCH   9  16
BRANCH  10  15
ATOM     15  C   UNL     1      14.814   7.979  21.891  0.00  0.00    +0.123 C 
BRANCH  15   6
ATOM      1  O   UNL     1      17.264   8.907  20.771  0.00  0.00    -0.275 OA
ATOM      6  N   UNL     1      15.232   9.343  21.778  0.00  0.00    -0.313 N 
ATOM     20  C   UNL     1      16.451   9.718  21.215  0.00  0.00    +0.218 C 
ATOM     33  H   UNL     1      14.616  10.055  22.156  0.00  0.00    +0.149 HD
BRANCH  20  21
ATOM     21  C   UNL     1      16.708  11.239  21.186  0.00  0.00    +0.039 C 
ATOM     23  C   UNL     1      17.190  11.719  22.563  0.00  0.00    +0.020 C 
ATOM     24  C   UNL     1      17.798  11.554  20.146  0.00  0.00    +0.020 C 
ATOM     25  C   UNL     1      15.422  11.982  20.787  0.00  0.00    +0.020 C 
ENDBRANCH  20  21
ENDBRANCH  15   6
ENDBRANCH  10  15
TORSDOF 7
ENDMDL
MODEL 5
REMARK VINA RESULT:      -6.4      3.082      8.202
REMARK  Name = 40779513
REMARK  13 active torsions:
REMARK  status: ('A' for Active; 'I' for Inactive)
REMARK    1  A    between atoms: O_2  and  C_28
REMARK    2  A    between atoms: O_2  and  C_31
REMARK    3  A    between atoms: O_3  and  C_30
REMARK    4  A    between atoms: O_3  and  C_32
REMARK    5  A    between atoms: N_5  and  C_19
REMARK    6  A    between atoms: N_6  and  C_15
REMARK    7  A    between atoms: C_9  and  C_16
REMARK    8  A    between atoms: C_10  and  C_15
REMARK    9  A    between atoms: C_18  and  C_22
REMARK   10  A    between atoms: C_20  and  C_21
REMARK   11  A    between atoms: C_21  and  C_23
REMARK   12  A    between atoms: C_21  and  C_24
REMARK   13  A    between atoms: C_21  and  C_25
REMARK                            x       y       z     vdW  Elec       q    Type
REMARK                         _______ _______ _______ _____ _____    ______ ____
ROOT
ATOM      4  N   UNL     1      -5.914 -10.309   9.281  0.00  0.00    -0.297 NA
ATOM      8  C   UNL     1      -4.180  -8.879  10.599  0.00  0.00    +0.002 C 
ATOM      9  C   UNL     1      -4.318 -10.289  11.236  0.00  0.00    +0.055 C 
ATOM     10  C   UNL     1      -6.493  -8.978   9.607  0.00  0.00    +0.074 C 
ATOM     11  C   UNL     1      -5.564  -8.198  10.561  0.00  0.00    +0.024 C 
ATOM     12  C   UNL     1      -3.740  -9.094   9.134  0.00  0.00    +0.019 C 
ATOM     13  C   UNL     1      -5.505 -11.003  10.528  0.00  0.00    +0.094 C 
ATOM     14  C   UNL     1      -4.702 -10.086   8.456  0.00  0.00    +0.085 C 
ENDROOT
BRANCH   9  16
ATOM      5  N   UNL     1      -3.314 -10.523  13.555  0.00  0.00    -0.270 N 
ATOM      7  N   UNL     1      -3.607 -10.591  14.864  0.00  0.00    -0.171 NA
ATOM     16  C   UNL     1      -4.408 -10.387  12.752  0.00  0.00    +0.044 A 
ATOM     17  C   UNL     1      -5.492 -10.366  13.595  0.00  0.00    +0.053 A 
ATOM     18  C   UNL     1      -4.938 -10.495  14.883  0.00  0.00    +0.093 A 
ATOM     19  C   UNL     1      -1.933 -10.597  13.136  0.00  0.00    +0.172 C 
BRANCH  18  22
ATOM     22  C   UNL     1      -5.657 -10.530  16.130  0.00  0.00    +0.006 A 
ATOM     26  C   UNL     1      -5.059 -11.076  17.266  0.00  0.00    +0.059 A 
ATOM     27  C   UNL     1      -6.954 -10.020  16.202  0.00  0.00    +0.014 A 
ATOM     28  C   UNL     1      -5.756 -11.111  18.473  0.00  0.00    +0.162 A 
ATOM     29  C   UNL     1      -7.651 -10.055  17.410  0.00  0.00    +0.050 A 
ATOM     30  C   UNL     1      -7.052 -10.601  18.545  0.00  0.00    +0.162 A 
BRANCH  28   2
ATOM      2  O   UNL     1      -5.161 -11.646  19.576  0.00  0.00    -0.491 OA
ATOM     31  C   UNL     1      -3.823 -12.118  19.425  0.00  0.00    +0.277 C 
ENDBRANCH  28   2
BRANCH  30   3
ATOM      3  O   UNL     1      -7.743 -10.628  19.719  0.00  0.00    -0.491 OA
ATOM     32  C   UNL     1      -9.065 -11.161  19.682  0.00  0.00    +0.277 C 
ENDBRANCH  30   3
ENDBRANCH  18  22
ENDBRANCH   9  16
BRANCH  10  15
ATOM     15  C   UNL     1      -7.917  -9.082  10.156  0.00  0.00    +0.123 C 
BRANCH  15   6
ATOM      1  O   UNL     1      -9.171  -9.102   7.598  0.00  0.00    -0.275 OA
ATOM      6  N   UNL     1      -8.750  -8.053   9.613  0.00  0.00    -0.313 N 
ATOM     20  C   UNL     1      -9.330  -8.138   8.348  0.00  0.00    +0.218 C 
ATOM     33  H   UNL     1      -8.891  -7.219  10.173  0.00  0.00    +0.149 HD
BRANCH  20  21
ATOM     21  C   UNL     1     -10.196  -6.923   7.953  0.00  0.00    +0.039 C 
ATOM     23  C   UNL     1     -10.375  -6.877   6.428  0.00  0.00    +0.020 C 
ATOM     24  C   UNL     1     -11.583  -7.050   8.607  0.00  0.00    +0.020 C 
ATOM     25  C   UNL     1      -9.538  -5.625   8.447  0.00  0.00    +0.020 C 
ENDBRANCH  20  21
ENDBRANCH  15   6
ENDBRANCH  10  15
TORSDOF 7
ENDMDL
MODEL 6
REMARK VINA RESULT:      -6.4      1.652      2.668
REMARK  Name = 40779513
REMARK  13 active torsions:
REMARK  status: ('A' for Active; 'I' for Inactive)
REMARK    1  A    between atoms: O_2  and  C_28
REMARK    2  A    between atoms: O_2  and  C_31
REMARK    3  A    between atoms: O_3  and  C_30
REMARK    4  A    between atoms: O_3  and  C_32
REMARK    5  A    between atoms: N_5  and  C_19
REMARK    6  A    between atoms: N_6  and  C_15
REMARK    7  A    between atoms: C_9  and  C_16
REMARK    8  A    between atoms: C_10  and  C_15
REMARK    9  A    between atoms: C_18  and  C_22
REMARK   10  A    between atoms: C_20  and  C_21
REMARK   11  A    between atoms: C_21  and  C_23
REMARK   12  A    between atoms: C_21  and  C_24
REMARK   13  A    between atoms: C_21  and  C_25
REMARK                            x       y       z     vdW  Elec       q    Type
REMARK                         _______ _______ _______ _____ _____    ______ ____
ROOT
ATOM      4  N   UNL     1      -6.735 -10.494  18.234  0.00  0.00    -0.297 NA
ATOM      8  C   UNL     1      -4.693 -12.039  17.753  0.00  0.00    +0.002 C 
ATOM      9  C   UNL     1      -4.521 -10.671  17.035  0.00  0.00    +0.055 C 
ATOM     10  C   UNL     1      -7.203 -11.833  17.785  0.00  0.00    +0.074 C 
ATOM     11  C   UNL     1      -6.016 -12.691  17.299  0.00  0.00    +0.024 C 
ATOM     12  C   UNL     1      -4.830 -11.736  19.261  0.00  0.00    +0.019 C 
ATOM     13  C   UNL     1      -5.857  -9.891  17.200  0.00  0.00    +0.094 C 
ATOM     14  C   UNL     1      -5.934 -10.684  19.468  0.00  0.00    +0.085 C 
ENDROOT
BRANCH   9  16
ATOM      5  N   UNL     1      -2.705 -10.673  15.263  0.00  0.00    -0.270 N 
ATOM      7  N   UNL     1      -2.479 -10.673  13.939  0.00  0.00    -0.171 NA
ATOM     16  C   UNL     1      -4.028 -10.672  15.596  0.00  0.00    +0.044 A 
ATOM     17  C   UNL     1      -4.715 -10.672  14.406  0.00  0.00    +0.053 A 
ATOM     18  C   UNL     1      -3.709 -10.672  13.420  0.00  0.00    +0.093 A 
ATOM     19  C   UNL     1      -1.581 -10.672  16.171  0.00  0.00    +0.172 C 
BRANCH  18  22
ATOM     22  C   UNL     1      -3.903 -10.670  11.994  0.00  0.00    +0.006 A 
ATOM     26  C   UNL     1      -4.476  -9.562  11.368  0.00  0.00    +0.059 A 
ATOM     27  C   UNL     1      -3.519 -11.777  11.236  0.00  0.00    +0.014 A 
ATOM     28  C   UNL     1      -4.664  -9.562   9.987  0.00  0.00    +0.162 A 
ATOM     29  C   UNL     1      -3.707 -11.776   9.853  0.00  0.00    +0.050 A 
ATOM     30  C   UNL     1      -4.280 -10.668   9.229  0.00  0.00    +0.162 A 
BRANCH  28   2
ATOM      2  O   UNL     1      -5.225  -8.474   9.387  0.00  0.00    -0.491 OA
ATOM     31  C   UNL     1      -6.650  -8.407   9.370  0.00  0.00    +0.277 C 
ENDBRANCH  28   2
BRANCH  30   3
ATOM      3  O   UNL     1      -4.458 -10.678   7.878  0.00  0.00    -0.491 OA
ATOM     32  C   UNL     1      -5.501 -11.506   7.367  0.00  0.00    +0.277 C 
ENDBRANCH  30   3
ENDBRANCH  18  22
ENDBRANCH   9  16
BRANCH  10  15
ATOM     15  C   UNL     1      -8.308 -11.739  16.732  0.00  0.00    +0.123 C 
BRANCH  15   6
ATOM      1  O   UNL     1      -9.670 -11.535  14.237  0.00  0.00    -0.275 OA
ATOM      6  N   UNL     1      -7.862 -12.264  15.477  0.00  0.00    -0.313 N 
ATOM     20  C   UNL     1      -8.589 -12.122  14.296  0.00  0.00    +0.218 C 
ATOM     33  H   UNL     1      -6.992 -12.786  15.470  0.00  0.00    +0.149 HD
BRANCH  20  21
ATOM     21  C   UNL     1      -7.930 -12.759  13.054  0.00  0.00    +0.039 C 
ATOM     23  C   UNL     1      -7.477 -11.663  12.077  0.00  0.00    +0.020 C 
ATOM     24  C   UNL     1      -6.697 -13.571  13.489  0.00  0.00    +0.020 C 
ATOM     25  C   UNL     1      -8.921 -13.707  12.361  0.00  0.00    +0.020 C 
ENDBRANCH  20  21
ENDBRANCH  15   6
ENDBRANCH  10  15
TORSDOF 7
ENDMDL
MODEL 7
REMARK VINA RESULT:      -6.3      2.511      5.243
REMARK  Name = 40779513
REMARK  13 active torsions:
REMARK  status: ('A' for Active; 'I' for Inactive)
REMARK    1  A    between atoms: O_2  and  C_28
REMARK    2  A    between atoms: O_2  and  C_31
REMARK    3  A    between atoms: O_3  and  C_30
REMARK    4  A    between atoms: O_3  and  C_32
REMARK    5  A    between atoms: N_5  and  C_19
REMARK    6  A    between atoms: N_6  and  C_15
REMARK    7  A    between atoms: C_9  and  C_16
REMARK    8  A    between atoms: C_10  and  C_15
REMARK    9  A    between atoms: C_18  and  C_22
REMARK   10  A    between atoms: C_20  and  C_21
REMARK   11  A    between atoms: C_21  and  C_23
REMARK   12  A    between atoms: C_21  and  C_24
REMARK   13  A    between atoms: C_21  and  C_25
REMARK                            x       y       z     vdW  Elec       q    Type
REMARK                         _______ _______ _______ _____ _____    ______ ____
ROOT
ATOM      4  N   UNL     1      -6.626 -12.749  18.511  0.00  0.00    -0.297 NA
ATOM      8  C   UNL     1      -5.696 -10.387  17.925  0.00  0.00    +0.002 C 
ATOM      9  C   UNL     1      -7.028 -10.649  17.170  0.00  0.00    +0.055 C 
ATOM     10  C   UNL     1      -5.194 -12.848  18.122  0.00  0.00    +0.074 C 
ATOM     11  C   UNL     1      -4.683 -11.498  17.575  0.00  0.00    +0.024 C 
ATOM     12  C   UNL     1      -6.007 -10.515  19.433  0.00  0.00    +0.019 C 
ATOM     13  C   UNL     1      -7.410 -12.138  17.408  0.00  0.00    +0.094 C 
ATOM     14  C   UNL     1      -6.716 -11.857  19.692  0.00  0.00    +0.085 C 
ENDROOT
BRANCH   9  16
ATOM      5  N   UNL     1      -8.234  -9.743  15.129  0.00  0.00    -0.270 N 
ATOM      7  N   UNL     1      -8.100  -9.466  13.822  0.00  0.00    -0.171 NA
ATOM     16  C   UNL     1      -7.109 -10.261  15.701  0.00  0.00    +0.044 A 
ATOM     17  C   UNL     1      -6.174 -10.328  14.696  0.00  0.00    +0.053 A 
ATOM     18  C   UNL     1      -6.841  -9.826  13.562  0.00  0.00    +0.093 A 
ATOM     19  C   UNL     1      -9.497  -9.480  15.781  0.00  0.00    +0.172 C 
BRANCH  18  22
ATOM     22  C   UNL     1      -6.297  -9.685  12.237  0.00  0.00    +0.006 A 
ATOM     26  C   UNL     1      -4.990 -10.095  11.970  0.00  0.00    +0.059 A 
ATOM     27  C   UNL     1      -7.076  -9.136  11.218  0.00  0.00    +0.014 A 
ATOM     28  C   UNL     1      -4.464  -9.957  10.687  0.00  0.00    +0.162 A 
ATOM     29  C   UNL     1      -6.549  -8.999   9.933  0.00  0.00    +0.050 A 
ATOM     30  C   UNL     1      -5.243  -9.409   9.668  0.00  0.00    +0.162 A 
BRANCH  28   2
ATOM      2  O   UNL     1      -3.186 -10.362  10.439  0.00  0.00    -0.491 OA
ATOM     31  C   UNL     1      -2.207 -10.056  11.430  0.00  0.00    +0.277 C 
ENDBRANCH  28   2
BRANCH  30   3
ATOM      3  O   UNL     1      -4.741  -9.271   8.409  0.00  0.00    -0.491 OA
ATOM     32  C   UNL     1      -5.184 -10.206   7.428  0.00  0.00    +0.277 C 
ENDBRANCH  30   3
ENDBRANCH  18  22
ENDBRANCH   9  16
BRANCH  10  15
ATOM     15  C   UNL     1      -4.935 -13.995  17.143  0.00  0.00    +0.123 C 
BRANCH  15   6
ATOM      1  O   UNL     1      -3.966 -15.608  15.004  0.00  0.00    -0.275 OA
ATOM      6  N   UNL     1      -4.166 -13.545  16.023  0.00  0.00    -0.313 N 
ATOM     20  C   UNL     1      -3.728 -14.400  15.013  0.00  0.00    +0.218 C 
ATOM     33  H   UNL     1      -3.911 -12.563  15.993  0.00  0.00    +0.149 HD
BRANCH  20  21
ATOM     21  C   UNL     1      -2.915 -13.714  13.895  0.00  0.00    +0.039 C 
ATOM     23  C   UNL     1      -1.718 -14.591  13.498  0.00  0.00    +0.020 C 
ATOM     24  C   UNL     1      -3.812 -13.518  12.658  0.00  0.00    +0.020 C 
ATOM     25  C   UNL     1      -2.428 -12.335  14.369  0.00  0.00    +0.020 C 
ENDBRANCH  20  21
ENDBRANCH  15   6
ENDBRANCH  10  15
TORSDOF 7
ENDMDL
MODEL 8
REMARK VINA RESULT:      -6.2     27.232     30.163
REMARK  Name = 40779513
REMARK  13 active torsions:
REMARK  status: ('A' for Active; 'I' for Inactive)
REMARK    1  A    between atoms: O_2  and  C_28
REMARK    2  A    between atoms: O_2  and  C_31
REMARK    3  A    between atoms: O_3  and  C_30
REMARK    4  A    between atoms: O_3  and  C_32
REMARK    5  A    between atoms: N_5  and  C_19
REMARK    6  A    between atoms: N_6  and  C_15
REMARK    7  A    between atoms: C_9  and  C_16
REMARK    8  A    between atoms: C_10  and  C_15
REMARK    9  A    between atoms: C_18  and  C_22
REMARK   10  A    between atoms: C_20  and  C_21
REMARK   11  A    between atoms: C_21  and  C_23
REMARK   12  A    between atoms: C_21  and  C_24
REMARK   13  A    between atoms: C_21  and  C_25
REMARK                            x       y       z     vdW  Elec       q    Type
REMARK                         _______ _______ _______ _____ _____    ______ ____
ROOT
ATOM      4  N   UNL     1      11.122  12.142  21.813  0.00  0.00    -0.297 NA
ATOM      8  C   UNL     1      13.190  12.275  23.391  0.00  0.00    +0.002 C 
ATOM      9  C   UNL     1      13.631  12.387  21.906  0.00  0.00    +0.055 C 
ATOM     10  C   UNL     1      11.091  11.020  22.789  0.00  0.00    +0.074 C 
ATOM     11  C   UNL     1      12.406  10.961  23.594  0.00  0.00    +0.024 C 
ATOM     12  C   UNL     1      12.204  13.436  23.650  0.00  0.00    +0.019 C 
ATOM     13  C   UNL     1      12.380  12.096  21.028  0.00  0.00    +0.094 C 
ATOM     14  C   UNL     1      11.099  13.411  22.579  0.00  0.00    +0.085 C 
ENDROOT
BRANCH   9  16
ATOM      5  N   UNL     1      15.653  11.980  20.426  0.00  0.00    -0.270 N 
ATOM      7  N   UNL     1      16.674  11.141  20.187  0.00  0.00    -0.171 NA
ATOM     16  C   UNL     1      14.848  11.592  21.457  0.00  0.00    +0.044 A 
ATOM     17  C   UNL     1      15.381  10.414  21.924  0.00  0.00    +0.053 A 
ATOM     18  C   UNL     1      16.503  10.186  21.105  0.00  0.00    +0.093 A 
ATOM     19  C   UNL     1      15.505  13.162  19.608  0.00  0.00    +0.172 C 
BRANCH  18  22
ATOM     22  C   UNL     1      17.412   9.073  21.182  0.00  0.00    +0.006 A 
ATOM     26  C   UNL     1      17.151   7.906  20.461  0.00  0.00    +0.059 A 
ATOM     27  C   UNL     1      18.555   9.159  21.977  0.00  0.00    +0.014 A 
ATOM     28  C   UNL     1      18.031   6.828  20.537  0.00  0.00    +0.162 A 
ATOM     29  C   UNL     1      19.436   8.079  22.053  0.00  0.00    +0.050 A 
ATOM     30  C   UNL     1      19.174   6.914  21.333  0.00  0.00    +0.162 A 
BRANCH  28   2
ATOM      2  O   UNL     1      17.766   5.694  19.829  0.00  0.00    -0.491 OA
ATOM     31  C   UNL     1      16.924   5.828  18.685  0.00  0.00    +0.277 C 
ENDBRANCH  28   2
BRANCH  30   3
ATOM      3  O   UNL     1      20.042   5.868  21.413  0.00  0.00    -0.491 OA
ATOM     32  C   UNL     1      21.211   6.055  22.211  0.00  0.00    +0.277 C 
ENDBRANCH  30   3
ENDBRANCH  18  22
ENDBRANCH   9  16
BRANCH  10  15
ATOM     15  C   UNL     1      10.768   9.680  22.125  0.00  0.00    +0.123 C 
BRANCH  15   6
ATOM      1  O   UNL     1      10.542   8.452  19.564  0.00  0.00    -0.275 OA
ATOM      6  N   UNL     1      11.850   9.250  21.293  0.00  0.00    -0.313 N 
ATOM     20  C   UNL     1      11.656   8.655  20.047  0.00  0.00    +0.218 C 
ATOM     33  H   UNL     1      12.792   9.363  21.652  0.00  0.00    +0.149 HD
BRANCH  20  21
ATOM     21  C   UNL     1      12.955   8.268  19.308  0.00  0.00    +0.039 C 
ATOM     23  C   UNL     1      13.888   7.494  20.252  0.00  0.00    +0.020 C 
ATOM     24  C   UNL     1      12.612   7.367  18.108  0.00  0.00    +0.020 C 
ATOM     25  C   UNL     1      13.660   9.531  18.787  0.00  0.00    +0.020 C 
ENDBRANCH  20  21
ENDBRANCH  15   6
ENDBRANCH  10  15
TORSDOF 7
ENDMDL
MODEL 9
REMARK VINA RESULT:      -6.1      2.951      5.699
REMARK  Name = 40779513
REMARK  13 active torsions:
REMARK  status: ('A' for Active; 'I' for Inactive)
REMARK    1  A    between atoms: O_2  and  C_28
REMARK    2  A    between atoms: O_2  and  C_31
REMARK    3  A    between atoms: O_3  and  C_30
REMARK    4  A    between atoms: O_3  and  C_32
REMARK    5  A    between atoms: N_5  and  C_19
REMARK    6  A    between atoms: N_6  and  C_15
REMARK    7  A    between atoms: C_9  and  C_16
REMARK    8  A    between atoms: C_10  and  C_15
REMARK    9  A    between atoms: C_18  and  C_22
REMARK   10  A    between atoms: C_20  and  C_21
REMARK   11  A    between atoms: C_21  and  C_23
REMARK   12  A    between atoms: C_21  and  C_24
REMARK   13  A    between atoms: C_21  and  C_25
REMARK                            x       y       z     vdW  Elec       q    Type
REMARK                         _______ _______ _______ _____ _____    ______ ____
ROOT
ATOM      4  N   UNL     1     -11.862  -9.177  16.772  0.00  0.00    -0.297 NA
ATOM      8  C   UNL     1     -10.039  -7.584  15.810  0.00  0.00    +0.002 C 
ATOM      9  C   UNL     1     -10.226  -8.817  14.884  0.00  0.00    +0.055 C 
ATOM     10  C   UNL     1     -10.876  -8.834  17.831  0.00  0.00    +0.074 C 
ATOM     11  C   UNL     1      -9.680  -8.063  17.232  0.00  0.00    +0.024 C 
ATOM     12  C   UNL     1     -11.413  -6.883  15.900  0.00  0.00    +0.019 C 
ATOM     13  C   UNL     1     -11.171  -9.810  15.621  0.00  0.00    +0.094 C 
ATOM     14  C   UNL     1     -12.482  -7.914  16.302  0.00  0.00    +0.085 C 
ENDROOT
BRANCH   9  16
ATOM      5  N   UNL     1      -8.858  -9.899  13.040  0.00  0.00    -0.270 N 
ATOM      7  N   UNL     1      -7.682 -10.484  12.760  0.00  0.00    -0.171 NA
ATOM     16  C   UNL     1      -8.982  -9.502  14.340  0.00  0.00    +0.044 A 
ATOM     17  C   UNL     1      -7.803  -9.854  14.953  0.00  0.00    +0.053 A 
ATOM     18  C   UNL     1      -7.042 -10.455  13.932  0.00  0.00    +0.093 A 
ATOM     19  C   UNL     1      -9.840  -9.750  11.991  0.00  0.00    +0.172 C 
BRANCH  18  22
ATOM     22  C   UNL     1      -5.716 -11.001  14.055  0.00  0.00    +0.006 A 
ATOM     26  C   UNL     1      -4.649 -10.405  13.381  0.00  0.00    +0.059 A 
ATOM     27  C   UNL     1      -5.497 -12.128  14.848  0.00  0.00    +0.014 A 
ATOM     28  C   UNL     1      -3.365 -10.936  13.501  0.00  0.00    +0.162 A 
ATOM     29  C   UNL     1      -4.212 -12.659  14.967  0.00  0.00    +0.050 A 
ATOM     30  C   UNL     1      -3.147 -12.063  14.293  0.00  0.00    +0.162 A 
BRANCH  28   2
ATOM      2  O   UNL     1      -2.331 -10.346  12.838  0.00  0.00    -0.491 OA
ATOM     31  C   UNL     1      -2.468 -10.197  11.426  0.00  0.00    +0.277 C 
ENDBRANCH  28   2
BRANCH  30   3
ATOM      3  O   UNL     1      -1.897 -12.590  14.419  0.00  0.00    -0.491 OA
ATOM     32  C   UNL     1      -1.575 -13.703  13.587  0.00  0.00    +0.277 C 
ENDBRANCH  30   3
ENDBRANCH  18  22
ENDBRANCH   9  16
BRANCH  10  15
ATOM     15  C   UNL     1     -10.424 -10.061  18.624  0.00  0.00    +0.123 C 
BRANCH  15   6
ATOM      1  O   UNL     1      -8.799 -11.803  20.187  0.00  0.00    -0.275 OA
ATOM      6  N   UNL     1      -9.020 -10.286  18.459  0.00  0.00    -0.313 N 
ATOM     20  C   UNL     1      -8.293 -11.158  19.268  0.00  0.00    +0.218 C 
ATOM     33  H   UNL     1      -8.542  -9.757  17.737  0.00  0.00    +0.149 HD
BRANCH  20  21
ATOM     21  C   UNL     1      -6.792 -11.259  18.922  0.00  0.00    +0.039 C 
ATOM     23  C   UNL     1      -6.392 -10.117  17.975  0.00  0.00    +0.020 C 
ATOM     24  C   UNL     1      -5.961 -11.142  20.212  0.00  0.00    +0.020 C 
ATOM     25  C   UNL     1      -6.493 -12.617  18.268  0.00  0.00    +0.020 C 
ENDBRANCH  20  21
ENDBRANCH  15   6
ENDBRANCH  10  15
TORSDOF 7
ENDMDL
MODEL 10
REMARK VINA RESULT:      -6.1     24.044     27.757
REMARK  Name = 40779513
REMARK  13 active torsions:
REMARK  status: ('A' for Active; 'I' for Inactive)
REMARK    1  A    between atoms: O_2  and  C_28
REMARK    2  A    between atoms: O_2  and  C_31
REMARK    3  A    between atoms: O_3  and  C_30
REMARK    4  A    between atoms: O_3  and  C_32
REMARK    5  A    between atoms: N_5  and  C_19
REMARK    6  A    between atoms: N_6  and  C_15
REMARK    7  A    between atoms: C_9  and  C_16
REMARK    8  A    between atoms: C_10  and  C_15
REMARK    9  A    between atoms: C_18  and  C_22
REMARK   10  A    between atoms: C_20  and  C_21
REMARK   11  A    between atoms: C_21  and  C_23
REMARK   12  A    between atoms: C_21  and  C_24
REMARK   13  A    between atoms: C_21  and  C_25
REMARK                            x       y       z     vdW  Elec       q    Type
REMARK                         _______ _______ _______ _____ _____    ______ ____
ROOT
ATOM      4  N   UNL     1      13.890   5.549  -0.409  0.00  0.00    -0.297 NA
ATOM      8  C   UNL     1      12.690   3.687   0.962  0.00  0.00    +0.002 C 
ATOM      9  C   UNL     1      11.776   4.936   0.826  0.00  0.00    +0.055 C 
ATOM     10  C   UNL     1      14.787   5.051   0.668  0.00  0.00    +0.074 C 
ATOM     11  C   UNL     1      14.026   4.100   1.615  0.00  0.00    +0.024 C 
ATOM     12  C   UNL     1      13.014   3.215  -0.472  0.00  0.00    +0.019 C 
ATOM     13  C   UNL     1      12.629   6.066   0.180  0.00  0.00    +0.094 C 
ATOM     14  C   UNL     1      13.555   4.403  -1.287  0.00  0.00    +0.085 C 
ENDROOT
BRANCH   9  16
ATOM      5  N   UNL     1      10.083   6.400   2.023  0.00  0.00    -0.270 N 
ATOM      7  N   UNL     1       9.537   6.675   3.219  0.00  0.00    -0.171 NA
ATOM     16  C   UNL     1      11.025   5.414   2.060  0.00  0.00    +0.044 A 
ATOM     17  C   UNL     1      11.101   5.018   3.373  0.00  0.00    +0.053 A 
ATOM     18  C   UNL     1      10.162   5.828   4.040  0.00  0.00    +0.093 A 
ATOM     19  C   UNL     1       9.645   7.138   0.860  0.00  0.00    +0.172 C 
BRANCH  18  22
ATOM     22  C   UNL     1       9.854   5.810   5.446  0.00  0.00    +0.006 A 
ATOM     26  C   UNL     1       9.355   6.956   6.067  0.00  0.00    +0.059 A 
ATOM     27  C   UNL     1      10.054   4.646   6.189  0.00  0.00    +0.014 A 
ATOM     28  C   UNL     1       9.058   6.938   7.429  0.00  0.00    +0.162 A 
ATOM     29  C   UNL     1       9.756   4.628   7.552  0.00  0.00    +0.050 A 
ATOM     30  C   UNL     1       9.258   5.774   8.172  0.00  0.00    +0.162 A 
BRANCH  28   2
ATOM      2  O   UNL     1       8.572   8.063   8.024  0.00  0.00    -0.491 OA
ATOM     31  C   UNL     1       9.393   9.228   7.974  0.00  0.00    +0.277 C 
ENDBRANCH  28   2
BRANCH  30   3
ATOM      3  O   UNL     1       8.970   5.744   9.503  0.00  0.00    -0.491 OA
ATOM     32  C   UNL     1       9.016   4.472  10.147  0.00  0.00    +0.277 C 
ENDBRANCH  30   3
ENDBRANCH  18  22
ENDBRANCH   9  16
BRANCH  10  15
ATOM     15  C   UNL     1      15.469   6.190   1.429  0.00  0.00    +0.123 C 
BRANCH  15   6
ATOM      1  O   UNL     1      15.903   8.576   2.924  0.00  0.00    -0.275 OA
ATOM      6  N   UNL     1      14.587   6.750   2.406  0.00  0.00    -0.313 N 
ATOM     20  C   UNL     1      14.872   7.927   3.098  0.00  0.00    +0.218 C 
ATOM     33  H   UNL     1      13.735   6.241   2.616  0.00  0.00    +0.149 HD
BRANCH  20  21
ATOM     21  C   UNL     1      13.787   8.361   4.106  0.00  0.00    +0.039 C 
ATOM     23  C   UNL     1      14.241   9.619   4.860  0.00  0.00    +0.020 C 
ATOM     24  C   UNL     1      12.486   8.685   3.349  0.00  0.00    +0.020 C 
ATOM     25  C   UNL     1      13.505   7.222   5.098  0.00  0.00    +0.020 C 
ENDBRANCH  20  21
ENDBRANCH  15   6
ENDBRANCH  10  15
TORSDOF 7
ENDMDL
