MODEL 1
REMARK VINA RESULT:      -6.6      0.000      0.000
REMARK  Name = 45783427
REMARK  11 active torsions:
REMARK  status: ('A' for Active; 'I' for Inactive)
REMARK    1  A    between atoms: O_2  and  C_24
REMARK    2  A    between atoms: O_2  and  C_29
REMARK    3  A    between atoms: O_4  and  C_31
REMARK    4  A    between atoms: O_4  and  C_32
REMARK    5  A    between atoms: N_5  and  C_14
REMARK    6  A    between atoms: N_8  and  C_22
REMARK    7  A    between atoms: C_10  and  C_15
REMARK    8  A    between atoms: C_14  and  C_16
REMARK    9  A    between atoms: C_19  and  C_23
REMARK   10  A    between atoms: C_27  and  C_30
REMARK   11  A    between atoms: C_29  and  C_31
REMARK                            x       y       z     vdW  Elec       q    Type
REMARK                         _______ _______ _______ _____ _____    ______ ____
ROOT
ATOM      5  N   UNL     1      -2.745 -10.394  13.598  0.00  0.00    -0.287 NA
ATOM     10  C   UNL     1      -3.087 -11.282  14.727  0.00  0.00    +0.146 C 
ATOM     11  C   UNL     1      -2.135 -10.857  15.861  0.00  0.00    +0.030 C 
ATOM     12  C   UNL     1      -1.257  -9.770  15.256  0.00  0.00    +0.017 C 
ATOM     13  C   UNL     1      -1.337 -10.034  13.767  0.00  0.00    +0.085 C 
ENDROOT
BRANCH  10  15
ATOM      1  O   UNL     1      -5.172 -12.356  15.412  0.00  0.00    -0.336 OA
ATOM      6  N   UNL     1      -5.309 -10.127  15.227  0.00  0.00    -0.190 NA
ATOM      7  N   UNL     1      -6.491 -12.017  15.743  0.00  0.00    -0.056 NA
ATOM     15  C   UNL     1      -4.545 -11.185  15.121  0.00  0.00    +0.245 A 
ATOM     19  C   UNL     1      -6.493 -10.688  15.610  0.00  0.00    +0.207 A 
BRANCH  19  23
ATOM      9  N   UNL     1      -9.049  -8.640  17.388  0.00  0.00    -0.221 NA
ATOM     23  C   UNL     1      -7.660  -9.890  15.855  0.00  0.00    +0.084 A 
ATOM     24  C   UNL     1      -7.962  -9.394  17.113  0.00  0.00    +0.226 A 
ATOM     25  C   UNL     1      -8.532  -9.594  14.812  0.00  0.00    +0.018 A 
ATOM     26  C   UNL     1      -9.661  -8.820  15.057  0.00  0.00    +0.021 A 
ATOM     28  C   UNL     1      -9.872  -8.371  16.351  0.00  0.00    +0.114 A 
BRANCH  24   2
ATOM      2  O   UNL     1      -7.133  -9.660  18.173  0.00  0.00    -0.474 OA
BRANCH   2  29
ATOM     29  C   UNL     1      -7.542 -10.695  19.059  0.00  0.00    +0.258 C 
BRANCH  29  31
ATOM     31  C   UNL     1      -6.316 -11.437  19.554  0.00  0.00    +0.200 C 
BRANCH  31   4
ATOM      4  O   UNL     1      -5.166 -10.932  18.884  0.00  0.00    -0.380 OA
ATOM     32  C   UNL     1      -4.114 -11.887  18.865  0.00  0.00    +0.194 C 
ENDBRANCH  31   4
ENDBRANCH  29  31
ENDBRANCH   2  29
ENDBRANCH  24   2
ENDBRANCH  19  23
ENDBRANCH  10  15
BRANCH   5  14
ATOM     14  C   UNL     1      -3.005 -10.994  12.296  0.00  0.00    +0.120 C 
BRANCH  14  16
ATOM     16  C   UNL     1      -3.866 -10.110  11.433  0.00  0.00    -0.033 A 
ATOM     17  C   UNL     1      -5.123  -9.708  11.882  0.00  0.00    +0.007 A 
ATOM     18  C   UNL     1      -3.405  -9.695  10.183  0.00  0.00    +0.007 A 
ATOM     20  C   UNL     1      -5.921  -8.889  11.082  0.00  0.00    +0.023 A 
ATOM     21  C   UNL     1      -4.203  -8.876   9.383  0.00  0.00    +0.023 A 
ATOM     22  C   UNL     1      -5.461  -8.474   9.832  0.00  0.00    +0.033 A 
BRANCH  22   8
ATOM      3  O   UNL     1      -7.939  -9.111   8.245  0.00  0.00    -0.276 OA
ATOM      8  N   UNL     1      -6.258  -7.656   9.031  0.00  0.00    -0.286 N 
ATOM     27  C   UNL     1      -7.407  -8.008   8.309  0.00  0.00    +0.214 C 
ATOM     30  C   UNL     1      -7.982  -6.829   7.565  0.00  0.00    +0.109 C 
ATOM     33  H   UNL     1      -5.960  -6.685   8.969  0.00  0.00    +0.155 HD
ENDBRANCH  22   8
ENDBRANCH  14  16
ENDBRANCH   5  14
TORSDOF 9
ENDMDL
MODEL 2
REMARK VINA RESULT:      -6.0     22.489     26.410
REMARK  Name = 45783427
REMARK  11 active torsions:
REMARK  status: ('A' for Active; 'I' for Inactive)
REMARK    1  A    between atoms: O_2  and  C_24
REMARK    2  A    between atoms: O_2  and  C_29
REMARK    3  A    between atoms: O_4  and  C_31
REMARK    4  A    between atoms: O_4  and  C_32
REMARK    5  A    between atoms: N_5  and  C_14
REMARK    6  A    between atoms: N_8  and  C_22
REMARK    7  A    between atoms: C_10  and  C_15
REMARK    8  A    between atoms: C_14  and  C_16
REMARK    9  A    between atoms: C_19  and  C_23
REMARK   10  A    between atoms: C_27  and  C_30
REMARK   11  A    between atoms: C_29  and  C_31
REMARK                            x       y       z     vdW  Elec       q    Type
REMARK                         _______ _______ _______ _____ _____    ______ ____
ROOT
ATOM      5  N   UNL     1     -13.906   6.621  33.263  0.00  0.00    -0.287 NA
ATOM     10  C   UNL     1     -13.846   8.095  33.335  0.00  0.00    +0.146 C 
ATOM     11  C   UNL     1     -13.338   8.396  34.757  0.00  0.00    +0.030 C 
ATOM     12  C   UNL     1     -13.201   7.036  35.427  0.00  0.00    +0.017 C 
ATOM     13  C   UNL     1     -14.135   6.150  34.629  0.00  0.00    +0.085 C 
ENDROOT
BRANCH  10  15
ATOM      1  O   UNL     1     -11.638   8.402  32.333  0.00  0.00    -0.336 OA
ATOM      6  N   UNL     1     -13.288   9.466  31.253  0.00  0.00    -0.190 NA
ATOM      7  N   UNL     1     -11.037   9.058  31.252  0.00  0.00    -0.056 NA
ATOM     15  C   UNL     1     -12.964   8.694  32.260  0.00  0.00    +0.245 A 
ATOM     19  C   UNL     1     -12.073   9.663  30.664  0.00  0.00    +0.207 A 
BRANCH  19  23
ATOM      9  N   UNL     1     -11.976  12.642  28.427  0.00  0.00    -0.221 NA
ATOM     23  C   UNL     1     -11.929  10.469  29.486  0.00  0.00    +0.084 A 
ATOM     24  C   UNL     1     -12.101  11.844  29.511  0.00  0.00    +0.226 A 
ATOM     25  C   UNL     1     -11.608   9.875  28.271  0.00  0.00    +0.018 A 
ATOM     26  C   UNL     1     -11.470  10.664  27.133  0.00  0.00    +0.021 A 
ATOM     28  C   UNL     1     -11.662  12.030  27.263  0.00  0.00    +0.114 A 
BRANCH  24   2
ATOM      2  O   UNL     1     -12.420  12.476  30.686  0.00  0.00    -0.474 OA
BRANCH   2  29
ATOM     29  C   UNL     1     -11.395  13.258  31.288  0.00  0.00    +0.258 C 
BRANCH  29  31
ATOM     31  C   UNL     1     -11.650  13.341  32.781  0.00  0.00    +0.200 C 
BRANCH  31   4
ATOM      4  O   UNL     1     -12.122  12.081  33.242  0.00  0.00    -0.380 OA
ATOM     32  C   UNL     1     -11.168  11.442  34.079  0.00  0.00    +0.194 C 
ENDBRANCH  31   4
ENDBRANCH  29  31
ENDBRANCH   2  29
ENDBRANCH  24   2
ENDBRANCH  19  23
ENDBRANCH  10  15
BRANCH   5  14
ATOM     14  C   UNL     1     -14.919   6.132  32.337  0.00  0.00    +0.120 C 
BRANCH  14  16
ATOM     16  C   UNL     1     -14.510   4.835  31.692  0.00  0.00    -0.033 A 
ATOM     17  C   UNL     1     -13.430   4.113  32.200  0.00  0.00    +0.007 A 
ATOM     18  C   UNL     1     -15.210   4.356  30.584  0.00  0.00    +0.007 A 
ATOM     20  C   UNL     1     -13.051   2.911  31.602  0.00  0.00    +0.023 A 
ATOM     21  C   UNL     1     -14.831   3.154  29.986  0.00  0.00    +0.023 A 
ATOM     22  C   UNL     1     -13.752   2.432  30.495  0.00  0.00    +0.033 A 
BRANCH  22   8
ATOM      3  O   UNL     1     -14.725  -0.379  30.963  0.00  0.00    -0.276 OA
ATOM      8  N   UNL     1     -13.372   1.230  29.896  0.00  0.00    -0.286 N 
ATOM     27  C   UNL     1     -13.860  -0.058  30.155  0.00  0.00    +0.214 C 
ATOM     30  C   UNL     1     -13.187  -1.095  29.291  0.00  0.00    +0.109 C 
ATOM     33  H   UNL     1     -12.649   1.310  29.183  0.00  0.00    +0.155 HD
ENDBRANCH  22   8
ENDBRANCH  14  16
ENDBRANCH   5  14
TORSDOF 9
ENDMDL
MODEL 3
REMARK VINA RESULT:      -5.9     22.971     25.825
REMARK  Name = 45783427
REMARK  11 active torsions:
REMARK  status: ('A' for Active; 'I' for Inactive)
REMARK    1  A    between atoms: O_2  and  C_24
REMARK    2  A    between atoms: O_2  and  C_29
REMARK    3  A    between atoms: O_4  and  C_31
REMARK    4  A    between atoms: O_4  and  C_32
REMARK    5  A    between atoms: N_5  and  C_14
REMARK    6  A    between atoms: N_8  and  C_22
REMARK    7  A    between atoms: C_10  and  C_15
REMARK    8  A    between atoms: C_14  and  C_16
REMARK    9  A    between atoms: C_19  and  C_23
REMARK   10  A    between atoms: C_27  and  C_30
REMARK   11  A    between atoms: C_29  and  C_31
REMARK                            x       y       z     vdW  Elec       q    Type
REMARK                         _______ _______ _______ _____ _____    ______ ____
ROOT
ATOM      5  N   UNL     1      13.340   3.941  -0.350  0.00  0.00    -0.287 NA
ATOM     10  C   UNL     1      13.586   3.819   1.101  0.00  0.00    +0.146 C 
ATOM     11  C   UNL     1      14.875   4.625   1.347  0.00  0.00    +0.030 C 
ATOM     12  C   UNL     1      15.311   5.107  -0.029  0.00  0.00    +0.017 C 
ATOM     13  C   UNL     1      14.648   4.129  -0.977  0.00  0.00    +0.085 C 
ENDROOT
BRANCH  10  15
ATOM      1  O   UNL     1      11.631   3.360   2.495  0.00  0.00    -0.336 OA
ATOM      6  N   UNL     1      12.049   5.541   2.195  0.00  0.00    -0.190 NA
ATOM      7  N   UNL     1      10.638   4.049   3.203  0.00  0.00    -0.056 NA
ATOM     15  C   UNL     1      12.421   4.313   1.932  0.00  0.00    +0.245 A 
ATOM     19  C   UNL     1      10.952   5.328   2.977  0.00  0.00    +0.207 A 
BRANCH  19  23
ATOM      9  N   UNL     1       9.568   7.788   5.411  0.00  0.00    -0.221 NA
ATOM     23  C   UNL     1      10.190   6.416   3.520  0.00  0.00    +0.084 A 
ATOM     24  C   UNL     1      10.267   6.771   4.857  0.00  0.00    +0.226 A 
ATOM     25  C   UNL     1       9.342   7.150   2.699  0.00  0.00    +0.018 A 
ATOM     26  C   UNL     1       8.607   8.204   3.233  0.00  0.00    +0.021 A 
ATOM     28  C   UNL     1       8.755   8.479   4.582  0.00  0.00    +0.114 A 
BRANCH  24   2
ATOM      2  O   UNL     1      11.089   6.076   5.707  0.00  0.00    -0.474 OA
BRANCH   2  29
ATOM     29  C   UNL     1      10.816   6.195   7.099  0.00  0.00    +0.258 C 
BRANCH  29  31
ATOM     31  C   UNL     1       9.954   5.026   7.535  0.00  0.00    +0.200 C 
BRANCH  31   4
ATOM      4  O   UNL     1      10.367   4.602   8.829  0.00  0.00    -0.380 OA
ATOM     32  C   UNL     1       9.278   4.583   9.742  0.00  0.00    +0.194 C 
ENDBRANCH  31   4
ENDBRANCH  29  31
ENDBRANCH   2  29
ENDBRANCH  24   2
ENDBRANCH  19  23
ENDBRANCH  10  15
BRANCH   5  14
ATOM     14  C   UNL     1      12.623   2.801  -0.908  0.00  0.00    +0.120 C 
BRANCH  14  16
ATOM     16  C   UNL     1      11.490   3.233  -1.800  0.00  0.00    -0.033 A 
ATOM     17  C   UNL     1      11.066   2.404  -2.839  0.00  0.00    +0.007 A 
ATOM     18  C   UNL     1      10.865   4.462  -1.588  0.00  0.00    +0.007 A 
ATOM     20  C   UNL     1      10.016   2.805  -3.666  0.00  0.00    +0.023 A 
ATOM     21  C   UNL     1       9.815   4.862  -2.415  0.00  0.00    +0.023 A 
ATOM     22  C   UNL     1       9.391   4.034  -3.454  0.00  0.00    +0.033 A 
BRANCH  22   8
ATOM      3  O   UNL     1       9.356   5.948  -5.778  0.00  0.00    -0.276 OA
ATOM      8  N   UNL     1       8.342   4.435  -4.282  0.00  0.00    -0.286 N 
ATOM     27  C   UNL     1       8.382   5.336  -5.354  0.00  0.00    +0.214 C 
ATOM     30  C   UNL     1       7.027   5.501  -5.996  0.00  0.00    +0.109 C 
ATOM     33  H   UNL     1       7.438   4.015  -4.071  0.00  0.00    +0.155 HD
ENDBRANCH  22   8
ENDBRANCH  14  16
ENDBRANCH   5  14
TORSDOF 9
ENDMDL
MODEL 4
REMARK VINA RESULT:      -5.9      1.371      3.078
REMARK  Name = 45783427
REMARK  11 active torsions:
REMARK  status: ('A' for Active; 'I' for Inactive)
REMARK    1  A    between atoms: O_2  and  C_24
REMARK    2  A    between atoms: O_2  and  C_29
REMARK    3  A    between atoms: O_4  and  C_31
REMARK    4  A    between atoms: O_4  and  C_32
REMARK    5  A    between atoms: N_5  and  C_14
REMARK    6  A    between atoms: N_8  and  C_22
REMARK    7  A    between atoms: C_10  and  C_15
REMARK    8  A    between atoms: C_14  and  C_16
REMARK    9  A    between atoms: C_19  and  C_23
REMARK   10  A    between atoms: C_27  and  C_30
REMARK   11  A    between atoms: C_29  and  C_31
REMARK                            x       y       z     vdW  Elec       q    Type
REMARK                         _______ _______ _______ _____ _____    ______ ____
ROOT
ATOM      5  N   UNL     1      -2.690 -10.653  13.709  0.00  0.00    -0.287 NA
ATOM     10  C   UNL     1      -2.484 -11.657  14.772  0.00  0.00    +0.146 C 
ATOM     11  C   UNL     1      -1.472 -11.005  15.734  0.00  0.00    +0.030 C 
ATOM     12  C   UNL     1      -1.123  -9.668  15.097  0.00  0.00    +0.017 C 
ATOM     13  C   UNL     1      -1.455  -9.872  13.633  0.00  0.00    +0.085 C 
ENDROOT
BRANCH  10  15
ATOM      1  O   UNL     1      -4.354 -13.206  15.044  0.00  0.00    -0.336 OA
ATOM      6  N   UNL     1      -4.430 -11.433  16.411  0.00  0.00    -0.190 NA
ATOM      7  N   UNL     1      -5.515 -13.355  15.812  0.00  0.00    -0.056 NA
ATOM     15  C   UNL     1      -3.774 -12.049  15.460  0.00  0.00    +0.245 A 
ATOM     19  C   UNL     1      -5.490 -12.272  16.593  0.00  0.00    +0.207 A 
BRANCH  19  23
ATOM      9  N   UNL     1      -8.625 -10.984  18.143  0.00  0.00    -0.221 NA
ATOM     23  C   UNL     1      -6.508 -11.999  17.567  0.00  0.00    +0.084 A 
ATOM     24  C   UNL     1      -7.642 -11.265  17.259  0.00  0.00    +0.226 A 
ATOM     25  C   UNL     1      -6.374 -12.474  18.867  0.00  0.00    +0.018 A 
ATOM     26  C   UNL     1      -7.365 -12.205  19.804  0.00  0.00    +0.021 A 
ATOM     28  C   UNL     1      -8.461 -11.462  19.396  0.00  0.00    +0.114 A 
BRANCH  24   2
ATOM      2  O   UNL     1      -7.820 -10.774  15.990  0.00  0.00    -0.474 OA
BRANCH   2  29
ATOM     29  C   UNL     1      -8.119  -9.388  15.878  0.00  0.00    +0.258 C 
BRANCH  29  31
ATOM     31  C   UNL     1      -9.354  -9.217  15.014  0.00  0.00    +0.200 C 
BRANCH  31   4
ATOM      4  O   UNL     1     -10.424  -8.741  15.822  0.00  0.00    -0.380 OA
ATOM     32  C   UNL     1     -10.083  -7.524  16.472  0.00  0.00    +0.194 C 
ENDBRANCH  31   4
ENDBRANCH  29  31
ENDBRANCH   2  29
ENDBRANCH  24   2
ENDBRANCH  19  23
ENDBRANCH  10  15
BRANCH   5  14
ATOM     14  C   UNL     1      -3.047 -11.241  12.424  0.00  0.00    +0.120 C 
BRANCH  14  16
ATOM     16  C   UNL     1      -3.857 -10.295  11.579  0.00  0.00    -0.033 A 
ATOM     17  C   UNL     1      -3.390  -9.908  10.323  0.00  0.00    +0.007 A 
ATOM     18  C   UNL     1      -5.073  -9.804  12.054  0.00  0.00    +0.007 A 
ATOM     20  C   UNL     1      -4.141  -9.031   9.540  0.00  0.00    +0.023 A 
ATOM     21  C   UNL     1      -5.824  -8.927  11.270  0.00  0.00    +0.023 A 
ATOM     22  C   UNL     1      -5.358  -8.541  10.014  0.00  0.00    +0.033 A 
BRANCH  22   8
ATOM      3  O   UNL     1      -8.046  -8.899   8.705  0.00  0.00    -0.276 OA
ATOM      8  N   UNL     1      -6.109  -7.662   9.232  0.00  0.00    -0.286 N 
ATOM     27  C   UNL     1      -7.361  -7.883   8.643  0.00  0.00    +0.214 C 
ATOM     30  C   UNL     1      -7.835  -6.678   7.870  0.00  0.00    +0.109 C 
ATOM     33  H   UNL     1      -5.684  -6.750   9.075  0.00  0.00    +0.155 HD
ENDBRANCH  22   8
ENDBRANCH  14  16
ENDBRANCH   5  14
TORSDOF 9
ENDMDL
MODEL 5
REMARK VINA RESULT:      -5.7     24.374     27.466
REMARK  Name = 45783427
REMARK  11 active torsions:
REMARK  status: ('A' for Active; 'I' for Inactive)
REMARK    1  A    between atoms: O_2  and  C_24
REMARK    2  A    between atoms: O_2  and  C_29
REMARK    3  A    between atoms: O_4  and  C_31
REMARK    4  A    between atoms: O_4  and  C_32
REMARK    5  A    between atoms: N_5  and  C_14
REMARK    6  A    between atoms: N_8  and  C_22
REMARK    7  A    between atoms: C_10  and  C_15
REMARK    8  A    between atoms: C_14  and  C_16
REMARK    9  A    between atoms: C_19  and  C_23
REMARK   10  A    between atoms: C_27  and  C_30
REMARK   11  A    between atoms: C_29  and  C_31
REMARK                            x       y       z     vdW  Elec       q    Type
REMARK                         _______ _______ _______ _____ _____    ______ ____
ROOT
ATOM      5  N   UNL     1      10.130   6.310   5.685  0.00  0.00    -0.287 NA
ATOM     10  C   UNL     1      10.767   7.223   6.655  0.00  0.00    +0.146 C 
ATOM     11  C   UNL     1      10.333   6.692   8.035  0.00  0.00    +0.030 C 
ATOM     12  C   UNL     1       9.408   5.521   7.736  0.00  0.00    +0.017 C 
ATOM     13  C   UNL     1       8.920   5.800   6.330  0.00  0.00    +0.085 C 
ENDROOT
BRANCH  10  15
ATOM      1  O   UNL     1      12.996   6.455   7.300  0.00  0.00    -0.336 OA
ATOM      6  N   UNL     1      12.996   8.019   5.695  0.00  0.00    -0.190 NA
ATOM      7  N   UNL     1      14.340   6.684   6.978  0.00  0.00    -0.056 NA
ATOM     15  C   UNL     1      12.272   7.281   6.499  0.00  0.00    +0.245 A 
ATOM     19  C   UNL     1      14.257   7.618   6.026  0.00  0.00    +0.207 A 
BRANCH  19  23
ATOM      9  N   UNL     1      17.004   8.141   3.562  0.00  0.00    -0.221 NA
ATOM     23  C   UNL     1      15.416   8.170   5.385  0.00  0.00    +0.084 A 
ATOM     24  C   UNL     1      15.916   7.653   4.200  0.00  0.00    +0.226 A 
ATOM     25  C   UNL     1      16.075   9.255   5.951  0.00  0.00    +0.018 A 
ATOM     26  C   UNL     1      17.197   9.785   5.323  0.00  0.00    +0.021 A 
ATOM     28  C   UNL     1      17.618   9.196   4.141  0.00  0.00    +0.114 A 
BRANCH  24   2
ATOM      2  O   UNL     1      15.302   6.582   3.604  0.00  0.00    -0.474 OA
BRANCH   2  29
ATOM     29  C   UNL     1      14.481   6.863   2.476  0.00  0.00    +0.258 C 
BRANCH  29  31
ATOM     31  C   UNL     1      15.056   6.165   1.259  0.00  0.00    +0.200 C 
BRANCH  31   4
ATOM      4  O   UNL     1      14.946   4.757   1.436  0.00  0.00    -0.380 OA
ATOM     32  C   UNL     1      15.662   4.049   0.434  0.00  0.00    +0.194 C 
ENDBRANCH  31   4
ENDBRANCH  29  31
ENDBRANCH   2  29
ENDBRANCH  24   2
ENDBRANCH  19  23
ENDBRANCH  10  15
BRANCH   5  14
ATOM     14  C   UNL     1       9.845   6.942   4.403  0.00  0.00    +0.120 C 
BRANCH  14  16
ATOM     16  C   UNL     1      10.452   6.181   3.255  0.00  0.00    -0.033 A 
ATOM     17  C   UNL     1      10.527   6.768   1.992  0.00  0.00    +0.007 A 
ATOM     18  C   UNL     1      10.937   4.889   3.454  0.00  0.00    +0.007 A 
ATOM     20  C   UNL     1      11.089   6.063   0.927  0.00  0.00    +0.023 A 
ATOM     21  C   UNL     1      11.499   4.183   2.389  0.00  0.00    +0.023 A 
ATOM     22  C   UNL     1      11.574   4.770   1.126  0.00  0.00    +0.033 A 
BRANCH  22   8
ATOM      3  O   UNL     1      10.326   3.751  -1.417  0.00  0.00    -0.276 OA
ATOM      8  N   UNL     1      12.135   4.064   0.062  0.00  0.00    -0.286 N 
ATOM     27  C   UNL     1      11.503   3.610  -1.104  0.00  0.00    +0.214 C 
ATOM     30  C   UNL     1      12.462   2.883  -2.013  0.00  0.00    +0.109 C 
ATOM     33  H   UNL     1      13.128   3.857   0.153  0.00  0.00    +0.155 HD
ENDBRANCH  22   8
ENDBRANCH  14  16
ENDBRANCH   5  14
TORSDOF 9
ENDMDL
MODEL 6
REMARK VINA RESULT:      -5.7     24.472     27.779
REMARK  Name = 45783427
REMARK  11 active torsions:
REMARK  status: ('A' for Active; 'I' for Inactive)
REMARK    1  A    between atoms: O_2  and  C_24
REMARK    2  A    between atoms: O_2  and  C_29
REMARK    3  A    between atoms: O_4  and  C_31
REMARK    4  A    between atoms: O_4  and  C_32
REMARK    5  A    between atoms: N_5  and  C_14
REMARK    6  A    between atoms: N_8  and  C_22
REMARK    7  A    between atoms: C_10  and  C_15
REMARK    8  A    between atoms: C_14  and  C_16
REMARK    9  A    between atoms: C_19  and  C_23
REMARK   10  A    between atoms: C_27  and  C_30
REMARK   11  A    between atoms: C_29  and  C_31
REMARK                            x       y       z     vdW  Elec       q    Type
REMARK                         _______ _______ _______ _____ _____    ______ ____
ROOT
ATOM      5  N   UNL     1      10.718   6.748   6.486  0.00  0.00    -0.287 NA
ATOM     10  C   UNL     1      10.198   5.630   5.673  0.00  0.00    +0.146 C 
ATOM     11  C   UNL     1       8.671   5.830   5.667  0.00  0.00    +0.030 C 
ATOM     12  C   UNL     1       8.425   7.043   6.552  0.00  0.00    +0.017 C 
ATOM     13  C   UNL     1       9.657   7.100   7.430  0.00  0.00    +0.085 C 
ENDROOT
BRANCH  10  15
ATOM      1  O   UNL     1      11.552   6.669   3.923  0.00  0.00    -0.336 OA
ATOM      6  N   UNL     1      10.674   4.690   3.346  0.00  0.00    -0.190 NA
ATOM      7  N   UNL     1      11.980   6.420   2.613  0.00  0.00    -0.056 NA
ATOM     15  C   UNL     1      10.789   5.602   4.279  0.00  0.00    +0.245 A 
ATOM     19  C   UNL     1      11.422   5.236   2.344  0.00  0.00    +0.207 A 
BRANCH  19  23
ATOM      9  N   UNL     1      12.829   3.036  -0.314  0.00  0.00    -0.221 NA
ATOM     23  C   UNL     1      11.592   4.572   1.084  0.00  0.00    +0.084 A 
ATOM     24  C   UNL     1      12.631   3.683   0.856  0.00  0.00    +0.226 A 
ATOM     25  C   UNL     1      10.701   4.812   0.044  0.00  0.00    +0.018 A 
ATOM     26  C   UNL     1      10.873   4.164  -1.175  0.00  0.00    +0.021 A 
ATOM     28  C   UNL     1      11.943   3.293  -1.302  0.00  0.00    +0.114 A 
BRANCH  24   2
ATOM      2  O   UNL     1      13.536   3.414   1.851  0.00  0.00    -0.474 OA
BRANCH   2  29
ATOM     29  C   UNL     1      14.906   3.646   1.547  0.00  0.00    +0.258 C 
BRANCH  29  31
ATOM     31  C   UNL     1      15.134   5.137   1.397  0.00  0.00    +0.200 C 
BRANCH  31   4
ATOM      4  O   UNL     1      15.852   5.379   0.192  0.00  0.00    -0.380 OA
ATOM     32  C   UNL     1      16.264   4.164  -0.421  0.00  0.00    +0.194 C 
ENDBRANCH  31   4
ENDBRANCH  29  31
ENDBRANCH   2  29
ENDBRANCH  24   2
ENDBRANCH  19  23
ENDBRANCH  10  15
BRANCH   5  14
ATOM     14  C   UNL     1      11.970   6.432   7.162  0.00  0.00    +0.120 C 
BRANCH  14  16
ATOM     16  C   UNL     1      13.037   7.455   6.874  0.00  0.00    -0.033 A 
ATOM     17  C   UNL     1      12.725   8.814   6.903  0.00  0.00    +0.007 A 
ATOM     18  C   UNL     1      14.336   7.043   6.577  0.00  0.00    +0.007 A 
ATOM     20  C   UNL     1      13.713   9.762   6.636  0.00  0.00    +0.023 A 
ATOM     21  C   UNL     1      15.324   7.991   6.310  0.00  0.00    +0.023 A 
ATOM     22  C   UNL     1      15.012   9.350   6.339  0.00  0.00    +0.033 A 
BRANCH  22   8
ATOM      3  O   UNL     1      16.132  10.318   3.717  0.00  0.00    -0.276 OA
ATOM      8  N   UNL     1      16.001  10.298   6.070  0.00  0.00    -0.286 N 
ATOM     27  C   UNL     1      16.487  10.710   4.823  0.00  0.00    +0.214 C 
ATOM     30  C   UNL     1      17.561  11.760   4.961  0.00  0.00    +0.109 C 
ATOM     33  H   UNL     1      16.414  10.737   6.890  0.00  0.00    +0.155 HD
ENDBRANCH  22   8
ENDBRANCH  14  16
ENDBRANCH   5  14
TORSDOF 9
ENDMDL
MODEL 7
REMARK VINA RESULT:      -5.5     24.473     27.410
REMARK  Name = 45783427
REMARK  11 active torsions:
REMARK  status: ('A' for Active; 'I' for Inactive)
REMARK    1  A    between atoms: O_2  and  C_24
REMARK    2  A    between atoms: O_2  and  C_29
REMARK    3  A    between atoms: O_4  and  C_31
REMARK    4  A    between atoms: O_4  and  C_32
REMARK    5  A    between atoms: N_5  and  C_14
REMARK    6  A    between atoms: N_8  and  C_22
REMARK    7  A    between atoms: C_10  and  C_15
REMARK    8  A    between atoms: C_14  and  C_16
REMARK    9  A    between atoms: C_19  and  C_23
REMARK   10  A    between atoms: C_27  and  C_30
REMARK   11  A    between atoms: C_29  and  C_31
REMARK                            x       y       z     vdW  Elec       q    Type
REMARK                         _______ _______ _______ _____ _____    ______ ____
ROOT
ATOM      5  N   UNL     1      13.879   5.635   2.341  0.00  0.00    -0.287 NA
ATOM     10  C   UNL     1      12.520   5.172   1.994  0.00  0.00    +0.146 C 
ATOM     11  C   UNL     1      12.729   3.775   1.380  0.00  0.00    +0.030 C 
ATOM     12  C   UNL     1      14.236   3.566   1.370  0.00  0.00    +0.017 C 
ATOM     13  C   UNL     1      14.792   4.975   1.408  0.00  0.00    +0.085 C 
ENDROOT
BRANCH  10  15
ATOM      1  O   UNL     1      10.930   3.988   3.422  0.00  0.00    -0.336 OA
ATOM      6  N   UNL     1      11.316   6.106   4.043  0.00  0.00    -0.190 NA
ATOM      7  N   UNL     1      10.141   4.211   4.558  0.00  0.00    -0.056 NA
ATOM     15  C   UNL     1      11.589   5.154   3.187  0.00  0.00    +0.245 A 
ATOM     19  C   UNL     1      10.423   5.481   4.864  0.00  0.00    +0.207 A 
BRANCH  19  23
ATOM      9  N   UNL     1       8.139   7.632   6.876  0.00  0.00    -0.221 NA
ATOM     23  C   UNL     1       9.832   6.154   5.986  0.00  0.00    +0.084 A 
ATOM     24  C   UNL     1       8.728   6.979   5.849  0.00  0.00    +0.226 A 
ATOM     25  C   UNL     1      10.367   5.988   7.258  0.00  0.00    +0.018 A 
ATOM     26  C   UNL     1       9.788   6.643   8.340  0.00  0.00    +0.021 A 
ATOM     28  C   UNL     1       8.686   7.446   8.098  0.00  0.00    +0.114 A 
BRANCH  24   2
ATOM      2  O   UNL     1       8.165   7.175   4.613  0.00  0.00    -0.474 OA
BRANCH   2  29
ATOM     29  C   UNL     1       7.908   8.522   4.234  0.00  0.00    +0.258 C 
BRANCH  29  31
ATOM     31  C   UNL     1       8.013   8.640   2.726  0.00  0.00    +0.200 C 
BRANCH  31   4
ATOM      4  O   UNL     1       9.298   8.191   2.313  0.00  0.00    -0.380 OA
ATOM     32  C   UNL     1      10.276   9.212   2.452  0.00  0.00    +0.194 C 
ENDBRANCH  31   4
ENDBRANCH  29  31
ENDBRANCH   2  29
ENDBRANCH  24   2
ENDBRANCH  19  23
ENDBRANCH  10  15
BRANCH   5  14
ATOM     14  C   UNL     1      14.017   7.085   2.311  0.00  0.00    +0.120 C 
BRANCH  14  16
ATOM     16  C   UNL     1      15.040   7.573   3.301  0.00  0.00    -0.033 A 
ATOM     17  C   UNL     1      14.822   7.406   4.669  0.00  0.00    +0.007 A 
ATOM     18  C   UNL     1      16.206   8.192   2.851  0.00  0.00    +0.007 A 
ATOM     20  C   UNL     1      15.770   7.859   5.587  0.00  0.00    +0.023 A 
ATOM     21  C   UNL     1      17.155   8.644   3.769  0.00  0.00    +0.023 A 
ATOM     22  C   UNL     1      16.936   8.478   5.137  0.00  0.00    +0.033 A 
BRANCH  22   8
ATOM      3  O   UNL     1      19.846   7.772   5.452  0.00  0.00    -0.276 OA
ATOM      8  N   UNL     1      17.884   8.931   6.055  0.00  0.00    -0.286 N 
ATOM     27  C   UNL     1      19.233   8.565   6.158  0.00  0.00    +0.214 C 
ATOM     30  C   UNL     1      19.922   9.284   7.290  0.00  0.00    +0.109 C 
ATOM     33  H   UNL     1      17.543   9.612   6.730  0.00  0.00    +0.155 HD
ENDBRANCH  22   8
ENDBRANCH  14  16
ENDBRANCH   5  14
TORSDOF 9
ENDMDL
MODEL 8
REMARK VINA RESULT:      -5.5     22.946     25.768
REMARK  Name = 45783427
REMARK  11 active torsions:
REMARK  status: ('A' for Active; 'I' for Inactive)
REMARK    1  A    between atoms: O_2  and  C_24
REMARK    2  A    between atoms: O_2  and  C_29
REMARK    3  A    between atoms: O_4  and  C_31
REMARK    4  A    between atoms: O_4  and  C_32
REMARK    5  A    between atoms: N_5  and  C_14
REMARK    6  A    between atoms: N_8  and  C_22
REMARK    7  A    between atoms: C_10  and  C_15
REMARK    8  A    between atoms: C_14  and  C_16
REMARK    9  A    between atoms: C_19  and  C_23
REMARK   10  A    between atoms: C_27  and  C_30
REMARK   11  A    between atoms: C_29  and  C_31
REMARK                            x       y       z     vdW  Elec       q    Type
REMARK                         _______ _______ _______ _____ _____    ______ ____
ROOT
ATOM      5  N   UNL     1      12.703   4.253  -0.156  0.00  0.00    -0.287 NA
ATOM     10  C   UNL     1      12.661   3.528   1.130  0.00  0.00    +0.146 C 
ATOM     11  C   UNL     1      14.133   3.442   1.577  0.00  0.00    +0.030 C 
ATOM     12  C   UNL     1      14.928   4.089   0.452  0.00  0.00    +0.017 C 
ATOM     13  C   UNL     1      14.011   3.971  -0.747  0.00  0.00    +0.085 C 
ENDROOT
BRANCH  10  15
ATOM      1  O   UNL     1      11.175   3.403   3.066  0.00  0.00    -0.336 OA
ATOM      6  N   UNL     1      11.501   5.482   2.297  0.00  0.00    -0.190 NA
ATOM      7  N   UNL     1      10.423   4.247   3.893  0.00  0.00    -0.056 NA
ATOM     15  C   UNL     1      11.778   4.210   2.154  0.00  0.00    +0.245 A 
ATOM     19  C   UNL     1      10.666   5.455   3.376  0.00  0.00    +0.207 A 
BRANCH  19  23
ATOM      9  N   UNL     1       9.886   8.234   5.733  0.00  0.00    -0.221 NA
ATOM     23  C   UNL     1      10.092   6.654   3.914  0.00  0.00    +0.084 A 
ATOM     24  C   UNL     1      10.402   7.111   5.186  0.00  0.00    +0.226 A 
ATOM     25  C   UNL     1       9.195   7.398   3.157  0.00  0.00    +0.018 A 
ATOM     26  C   UNL     1       8.643   8.560   3.685  0.00  0.00    +0.021 A 
ATOM     28  C   UNL     1       9.017   8.931   4.967  0.00  0.00    +0.114 A 
BRANCH  24   2
ATOM      2  O   UNL     1      11.281   6.411   5.972  0.00  0.00    -0.474 OA
BRANCH   2  29
ATOM     29  C   UNL     1      10.920   6.239   7.337  0.00  0.00    +0.258 C 
BRANCH  29  31
ATOM     31  C   UNL     1       9.933   5.092   7.446  0.00  0.00    +0.200 C 
BRANCH  31   4
ATOM      4  O   UNL     1      10.257   4.308   8.588  0.00  0.00    -0.380 OA
ATOM     32  C   UNL     1       9.300   4.477   9.624  0.00  0.00    +0.194 C 
ENDBRANCH  31   4
ENDBRANCH  29  31
ENDBRANCH   2  29
ENDBRANCH  24   2
ENDBRANCH  19  23
ENDBRANCH  10  15
BRANCH   5  14
ATOM     14  C   UNL     1      11.608   3.897  -1.051  0.00  0.00    +0.120 C 
BRANCH  14  16
ATOM     16  C   UNL     1      10.716   5.074  -1.341  0.00  0.00    -0.033 A 
ATOM     17  C   UNL     1       9.528   4.890  -2.048  0.00  0.00    +0.007 A 
ATOM     18  C   UNL     1      11.079   6.348  -0.905  0.00  0.00    +0.007 A 
ATOM     20  C   UNL     1       8.701   5.981  -2.318  0.00  0.00    +0.023 A 
ATOM     21  C   UNL     1      10.252   7.439  -1.175  0.00  0.00    +0.023 A 
ATOM     22  C   UNL     1       9.064   7.256  -1.882  0.00  0.00    +0.033 A 
BRANCH  22   8
ATOM      3  O   UNL     1       7.659   9.154  -0.015  0.00  0.00    -0.276 OA
ATOM      8  N   UNL     1       8.238   8.347  -2.153  0.00  0.00    -0.286 N 
ATOM     27  C   UNL     1       7.605   9.201  -1.239  0.00  0.00    +0.214 C 
ATOM     30  C   UNL     1       6.794  10.264  -1.937  0.00  0.00    +0.109 C 
ATOM     33  H   UNL     1       8.081   8.538  -3.140  0.00  0.00    +0.155 HD
ENDBRANCH  22   8
ENDBRANCH  14  16
ENDBRANCH   5  14
TORSDOF 9
ENDMDL
MODEL 9
REMARK VINA RESULT:      -5.5     23.905     26.495
REMARK  Name = 45783427
REMARK  11 active torsions:
REMARK  status: ('A' for Active; 'I' for Inactive)
REMARK    1  A    between atoms: O_2  and  C_24
REMARK    2  A    between atoms: O_2  and  C_29
REMARK    3  A    between atoms: O_4  and  C_31
REMARK    4  A    between atoms: O_4  and  C_32
REMARK    5  A    between atoms: N_5  and  C_14
REMARK    6  A    between atoms: N_8  and  C_22
REMARK    7  A    between atoms: C_10  and  C_15
REMARK    8  A    between atoms: C_14  and  C_16
REMARK    9  A    between atoms: C_19  and  C_23
REMARK   10  A    between atoms: C_27  and  C_30
REMARK   11  A    between atoms: C_29  and  C_31
REMARK                            x       y       z     vdW  Elec       q    Type
REMARK                         _______ _______ _______ _____ _____    ______ ____
ROOT
ATOM      5  N   UNL     1       9.765   6.069   5.821  0.00  0.00    -0.287 NA
ATOM     10  C   UNL     1       8.527   6.874   5.848  0.00  0.00    +0.146 C 
ATOM     11  C   UNL     1       8.532   7.552   7.231  0.00  0.00    +0.030 C 
ATOM     12  C   UNL     1       9.775   7.019   7.930  0.00  0.00    +0.017 C 
ATOM     13  C   UNL     1      10.059   5.717   7.210  0.00  0.00    +0.085 C 
ENDROOT
BRANCH  10  15
ATOM      1  O   UNL     1       8.872   9.135   4.986  0.00  0.00    -0.336 OA
ATOM      6  N   UNL     1       8.048   7.696   3.478  0.00  0.00    -0.190 NA
ATOM      7  N   UNL     1       8.715   9.862   3.799  0.00  0.00    -0.056 NA
ATOM     15  C   UNL     1       8.457   7.870   4.710  0.00  0.00    +0.245 A 
ATOM     19  C   UNL     1       8.225   8.946   2.958  0.00  0.00    +0.207 A 
BRANCH  19  23
ATOM      9  N   UNL     1       8.569   9.368  -0.729  0.00  0.00    -0.221 NA
ATOM     23  C   UNL     1       7.904   9.246   1.592  0.00  0.00    +0.084 A 
ATOM     24  C   UNL     1       8.828   9.097   0.570  0.00  0.00    +0.226 A 
ATOM     25  C   UNL     1       6.634   9.702   1.260  0.00  0.00    +0.018 A 
ATOM     26  C   UNL     1       6.330   9.990  -0.066  0.00  0.00    +0.021 A 
ATOM     28  C   UNL     1       7.324   9.809  -1.014  0.00  0.00    +0.114 A 
BRANCH  24   2
ATOM      2  O   UNL     1      10.095   8.651   0.848  0.00  0.00    -0.474 OA
BRANCH   2  29
ATOM     29  C   UNL     1      10.615   7.636  -0.002  0.00  0.00    +0.258 C 
BRANCH  29  31
ATOM     31  C   UNL     1       9.952   6.316   0.341  0.00  0.00    +0.200 C 
BRANCH  31   4
ATOM      4  O   UNL     1       9.616   5.639  -0.864  0.00  0.00    -0.380 OA
ATOM     32  C   UNL     1      10.649   4.749  -1.266  0.00  0.00    +0.194 C 
ENDBRANCH  31   4
ENDBRANCH  29  31
ENDBRANCH   2  29
ENDBRANCH  24   2
ENDBRANCH  19  23
ENDBRANCH  10  15
BRANCH   5  14
ATOM     14  C   UNL     1       9.665   4.892   4.966  0.00  0.00    +0.120 C 
BRANCH  14  16
ATOM     16  C   UNL     1      10.749   4.865   3.922  0.00  0.00    -0.033 A 
ATOM     17  C   UNL     1      11.580   5.972   3.749  0.00  0.00    +0.007 A 
ATOM     18  C   UNL     1      10.921   3.732   3.125  0.00  0.00    +0.007 A 
ATOM     20  C   UNL     1      12.584   5.946   2.781  0.00  0.00    +0.023 A 
ATOM     21  C   UNL     1      11.925   3.707   2.157  0.00  0.00    +0.023 A 
ATOM     22  C   UNL     1      12.755   4.814   1.984  0.00  0.00    +0.033 A 
BRANCH  22   8
ATOM      3  O   UNL     1      15.267   3.162   1.814  0.00  0.00    -0.276 OA
ATOM      8  N   UNL     1      13.758   4.788   1.015  0.00  0.00    -0.286 N 
ATOM     27  C   UNL     1      14.914   3.996   0.987  0.00  0.00    +0.214 C 
ATOM     30  C   UNL     1      15.749   4.270  -0.239  0.00  0.00    +0.109 C 
ATOM     33  H   UNL     1      13.625   5.429   0.235  0.00  0.00    +0.155 HD
ENDBRANCH  22   8
ENDBRANCH  14  16
ENDBRANCH   5  14
TORSDOF 9
ENDMDL
MODEL 10
REMARK VINA RESULT:      -5.4     22.958     25.703
REMARK  Name = 45783427
REMARK  11 active torsions:
REMARK  status: ('A' for Active; 'I' for Inactive)
REMARK    1  A    between atoms: O_2  and  C_24
REMARK    2  A    between atoms: O_2  and  C_29
REMARK    3  A    between atoms: O_4  and  C_31
REMARK    4  A    between atoms: O_4  and  C_32
REMARK    5  A    between atoms: N_5  and  C_14
REMARK    6  A    between atoms: N_8  and  C_22
REMARK    7  A    between atoms: C_10  and  C_15
REMARK    8  A    between atoms: C_14  and  C_16
REMARK    9  A    between atoms: C_19  and  C_23
REMARK   10  A    between atoms: C_27  and  C_30
REMARK   11  A    between atoms: C_29  and  C_31
REMARK                            x       y       z     vdW  Elec       q    Type
REMARK                         _______ _______ _______ _____ _____    ______ ____
ROOT
ATOM      5  N   UNL     1      12.494   6.441   1.888  0.00  0.00    -0.287 NA
ATOM     10  C   UNL     1      12.783   6.761   3.300  0.00  0.00    +0.146 C 
ATOM     11  C   UNL     1      13.059   8.277   3.309  0.00  0.00    +0.030 C 
ATOM     12  C   UNL     1      12.963   8.706   1.852  0.00  0.00    +0.017 C 
ATOM     13  C   UNL     1      13.219   7.426   1.084  0.00  0.00    +0.085 C 
ENDROOT
BRANCH  10  15
ATOM      1  O   UNL     1      10.449   6.124   3.647  0.00  0.00    -0.336 OA
ATOM      6  N   UNL     1      11.660   6.224   5.530  0.00  0.00    -0.190 NA
ATOM      7  N   UNL     1       9.578   5.785   4.690  0.00  0.00    -0.056 NA
ATOM     15  C   UNL     1      11.654   6.368   4.228  0.00  0.00    +0.245 A 
ATOM     19  C   UNL     1      10.364   5.866   5.766  0.00  0.00    +0.207 A 
BRANCH  19  23
ATOM      9  N   UNL     1       8.822   6.360   9.123  0.00  0.00    -0.221 NA
ATOM     23  C   UNL     1       9.887   5.595   7.092  0.00  0.00    +0.084 A 
ATOM     24  C   UNL     1       9.285   6.571   7.871  0.00  0.00    +0.226 A 
ATOM     25  C   UNL     1      10.024   4.322   7.635  0.00  0.00    +0.018 A 
ATOM     26  C   UNL     1       9.559   4.067   8.920  0.00  0.00    +0.021 A 
ATOM     28  C   UNL     1       8.971   5.111   9.617  0.00  0.00    +0.114 A 
BRANCH  24   2
ATOM      2  O   UNL     1       9.129   7.842   7.380  0.00  0.00    -0.474 OA
BRANCH   2  29
ATOM     29  C   UNL     1      10.068   8.816   7.820  0.00  0.00    +0.258 C 
BRANCH  29  31
ATOM     31  C   UNL     1      10.093   9.962   6.828  0.00  0.00    +0.200 C 
BRANCH  31   4
ATOM      4  O   UNL     1      10.685   9.514   5.614  0.00  0.00    -0.380 OA
ATOM     32  C   UNL     1       9.784   9.630   4.521  0.00  0.00    +0.194 C 
ENDBRANCH  31   4
ENDBRANCH  29  31
ENDBRANCH   2  29
ENDBRANCH  24   2
ENDBRANCH  19  23
ENDBRANCH  10  15
BRANCH   5  14
ATOM     14  C   UNL     1      12.843   5.073   1.526  0.00  0.00    +0.120 C 
BRANCH  14  16
ATOM     16  C   UNL     1      12.313   4.699   0.168  0.00  0.00    -0.033 A 
ATOM     17  C   UNL     1      13.129   4.022  -0.737  0.00  0.00    +0.007 A 
ATOM     18  C   UNL     1      11.005   5.032  -0.185  0.00  0.00    +0.007 A 
ATOM     20  C   UNL     1      12.638   3.675  -1.996  0.00  0.00    +0.023 A 
ATOM     21  C   UNL     1      10.513   4.685  -1.444  0.00  0.00    +0.023 A 
ATOM     22  C   UNL     1      11.330   4.008  -2.349  0.00  0.00    +0.033 A 
BRANCH  22   8
ATOM      3  O   UNL     1       9.439   1.815  -3.176  0.00  0.00    -0.276 OA
ATOM      8  N   UNL     1      10.838   3.662  -3.609  0.00  0.00    -0.286 N 
ATOM     27  C   UNL     1       9.956   2.625  -3.938  0.00  0.00    +0.214 C 
ATOM     30  C   UNL     1       9.669   2.583  -5.418  0.00  0.00    +0.109 C 
ATOM     33  H   UNL     1      11.168   4.243  -4.377  0.00  0.00    +0.155 HD
ENDBRANCH  22   8
ENDBRANCH  14  16
ENDBRANCH   5  14
TORSDOF 9
ENDMDL
