REMARK  Name = 75536819
REMARK  7 active torsions:
REMARK  status: ('A' for Active; 'I' for Inactive)
REMARK    1  A    between atoms: O_3  and  C_9
REMARK    2  A    between atoms: N_5  and  C_8
REMARK    3  A    between atoms: N_5  and  C_13
REMARK    4  A    between atoms: N_6  and  C_12
REMARK    5  A    between atoms: C_10  and  C_12
REMARK    6  A    between atoms: C_13  and  C_14
REMARK    7  A    between atoms: C_15  and  C_18
REMARK                            x       y       z     vdW  Elec       q    Type
REMARK                         _______ _______ _______ _____ _____    ______ ____
ROOT
ATOM      2  O   UNL     1       0.688   0.994  -0.033  0.00  0.00    -0.371 OA
ATOM      8  C   UNL     1      -1.350  -0.179   0.306  0.00  0.00    +0.111 C 
ATOM      9  C   UNL     1      -0.428  -1.026  -0.551  0.00  0.00    +0.164 C 
ATOM     10  C   UNL     1       0.926  -0.411  -0.223  0.00  0.00    +0.165 C 
ATOM     11  C   UNL     1      -0.724   1.198   0.150  0.00  0.00    +0.181 C 
ENDROOT
BRANCH   9   3
ATOM      3  O   UNL     1      -0.479  -2.399  -0.214  0.00  0.00    -0.388 OA
ATOM     25  H   UNL     1      -0.269  -2.490   0.731  0.00  0.00    +0.210 HD
ENDBRANCH   9   3
BRANCH   8   5
ATOM      5  N   UNL     1      -2.740  -0.220  -0.116  0.00  0.00    -0.305 NA
ATOM     24  H   UNL     1      -3.005  -1.188  -0.299  0.00  0.00    +0.123 HD
BRANCH   5  13
ATOM     13  C   UNL     1      -3.619   0.322   0.914  0.00  0.00    +0.116 C 
BRANCH  13  14
ATOM      7  N   UNL     1      -7.743   0.268  -0.305  0.00  0.00    -0.263 NA
ATOM     14  C   UNL     1      -5.062   0.303   0.487  0.00  0.00    -0.031 A 
ATOM     16  C   UNL     1      -5.535   1.247  -0.417  0.00  0.00    +0.024 A 
ATOM     17  C   UNL     1      -5.928  -0.659   0.996  0.00  0.00    +0.024 A 
ATOM     19  C   UNL     1      -6.872   1.187  -0.778  0.00  0.00    +0.111 A 
ATOM     20  C   UNL     1      -7.247  -0.634   0.572  0.00  0.00    +0.111 A 
ENDBRANCH  13  14
ENDBRANCH   5  13
ENDBRANCH   8   5
BRANCH  10  12
ATOM     12  C   UNL     1       1.958  -0.614  -1.317  0.00  0.00    +0.138 C 
BRANCH  12   6
ATOM      4  O   UNL     1       4.122  -1.869   0.093  0.00  0.00    -0.270 OA
ATOM      6  N   UNL     1       3.214  -0.015  -0.966  0.00  0.00    -0.308 N 
ATOM     15  C   UNL     1       4.210  -0.702  -0.279  0.00  0.00    +0.251 C 
ATOM     26  H   UNL     1       3.351   0.954  -1.230  0.00  0.00    +0.149 HD
BRANCH  15  18
ATOM      1  S   UNL     1       6.717  -0.705   0.875  0.00  0.00    -0.092 S 
ATOM     18  C   UNL     1       5.443   0.068   0.032  0.00  0.00    +0.074 A 
ATOM     21  C   UNL     1       5.741   1.379  -0.268  0.00  0.00    +0.021 A 
ATOM     22  C   UNL     1       7.033   1.754   0.201  0.00  0.00    +0.008 A 
ATOM     23  C   UNL     1       7.673   0.716   0.841  0.00  0.00    +0.046 A 
ENDBRANCH  15  18
ENDBRANCH  12   6
ENDBRANCH  10  12
TORSDOF 7
