MODEL 1
REMARK VINA RESULT:      -7.4      0.000      0.000
REMARK  Name = 75536096
REMARK  9 active torsions:
REMARK  status: ('A' for Active; 'I' for Inactive)
REMARK    1  A    between atoms: S_1  and  N_10
REMARK    2  A    between atoms: S_1  and  C_19
REMARK    3  A    between atoms: O_5  and  C_13
REMARK    4  A    between atoms: O_6  and  C_15
REMARK    5  A    between atoms: O_9  and  C_22
REMARK    6  A    between atoms: O_9  and  C_29
REMARK    7  A    between atoms: N_10  and  C_11
REMARK    8  A    between atoms: C_12  and  C_16
REMARK    9  A    between atoms: C_27  and  C_28
REMARK                            x       y       z     vdW  Elec       q    Type
REMARK                         _______ _______ _______ _____ _____    ______ ____
ROOT
ATOM     11  C   UNL     1      12.747   8.780  21.044  0.00  0.00    +0.115 C 
ATOM     12  C   UNL     1      12.033   9.176  22.366  0.00  0.00    +0.043 C 
ATOM     13  C   UNL     1      12.017   7.531  20.532  0.00  0.00    +0.162 C 
ATOM     14  C   UNL     1      10.840   8.215  22.490  0.00  0.00    +0.043 C 
ATOM     15  C   UNL     1      11.326   6.967  21.770  0.00  0.00    +0.145 C 
ENDROOT
BRANCH  12  16
ATOM     16  C   UNL     1      11.631  10.633  22.435  0.00  0.00    -0.042 A 
ATOM     17  C   UNL     1      11.060  11.145  23.600  0.00  0.00    +0.007 A 
ATOM     18  C   UNL     1      11.833  11.465  21.333  0.00  0.00    +0.007 A 
ATOM     20  C   UNL     1      10.690  12.489  23.664  0.00  0.00    +0.046 A 
ATOM     21  C   UNL     1      11.462  12.808  21.396  0.00  0.00    +0.046 A 
ATOM     22  C   UNL     1      10.891  13.320  22.561  0.00  0.00    +0.120 A 
BRANCH  22   9
ATOM      9  O   UNL     1      10.530  14.631  22.623  0.00  0.00    -0.495 OA
ATOM     29  C   UNL     1       9.529  14.983  23.577  0.00  0.00    +0.277 C 
ENDBRANCH  22   9
ENDBRANCH  12  16
BRANCH  13   5
ATOM      5  O   UNL     1      11.055   7.947  19.564  0.00  0.00    -0.388 OA
ATOM     31  H   UNL     1      10.271   7.381  19.668  0.00  0.00    +0.210 HD
ENDBRANCH  13   5
BRANCH  15   6
ATOM      6  O   UNL     1      10.255   6.102  21.451  0.00  0.00    -0.389 OA
ATOM     32  H   UNL     1       9.504   6.655  21.177  0.00  0.00    +0.210 HD
ENDBRANCH  15   6
BRANCH  11  10
ATOM     10  N   UNL     1      14.164   8.438  21.335  0.00  0.00    -0.184 NA
ATOM     30  H   UNL     1      14.347   7.686  22.010  0.00  0.00    +0.148 HD
BRANCH  10   1
ATOM      1  S   UNL     1      15.406   9.487  20.845  0.00  0.00    +0.059 S 
ATOM      7  O   UNL     1      15.631  10.484  21.874  0.00  0.00    -0.153 OA
ATOM      8  O   UNL     1      15.160   9.895  19.475  0.00  0.00    -0.153 OA
BRANCH   1  19
ATOM     19  C   UNL     1      16.806   8.407  20.816  0.00  0.00    +0.105 A 
ATOM     23  C   UNL     1      16.759   7.225  20.078  0.00  0.00    +0.029 A 
ATOM     24  C   UNL     1      17.956   8.737  21.535  0.00  0.00    +0.029 A 
ATOM     25  C   UNL     1      17.862   6.372  20.057  0.00  0.00    +0.014 A 
ATOM     26  C   UNL     1      19.059   7.883  21.513  0.00  0.00    +0.014 A 
ATOM     27  C   UNL     1      19.012   6.700  20.775  0.00  0.00    +0.055 A 
BRANCH  27  28
ATOM      2  F   UNL     1      20.601   5.428  22.003  0.00  0.00    -0.166 F 
ATOM      3  F   UNL     1      19.965   4.616  20.089  0.00  0.00    -0.166 F 
ATOM      4  F   UNL     1      21.291   6.331  20.149  0.00  0.00    -0.166 F 
ATOM     28  C   UNL     1      20.191   5.788  20.752  0.00  0.00    +0.417 C 
ENDBRANCH  27  28
ENDBRANCH   1  19
ENDBRANCH  10   1
ENDBRANCH  11  10
TORSDOF 8
ENDMDL
MODEL 2
REMARK VINA RESULT:      -7.3      3.678      5.914
REMARK  Name = 75536096
REMARK  9 active torsions:
REMARK  status: ('A' for Active; 'I' for Inactive)
REMARK    1  A    between atoms: S_1  and  N_10
REMARK    2  A    between atoms: S_1  and  C_19
REMARK    3  A    between atoms: O_5  and  C_13
REMARK    4  A    between atoms: O_6  and  C_15
REMARK    5  A    between atoms: O_9  and  C_22
REMARK    6  A    between atoms: O_9  and  C_29
REMARK    7  A    between atoms: N_10  and  C_11
REMARK    8  A    between atoms: C_12  and  C_16
REMARK    9  A    between atoms: C_27  and  C_28
REMARK                            x       y       z     vdW  Elec       q    Type
REMARK                         _______ _______ _______ _____ _____    ______ ____
ROOT
ATOM     11  C   UNL     1      13.603  11.630  22.968  0.00  0.00    +0.115 C 
ATOM     12  C   UNL     1      12.252  11.407  22.234  0.00  0.00    +0.043 C 
ATOM     13  C   UNL     1      13.253  12.340  24.282  0.00  0.00    +0.162 C 
ATOM     14  C   UNL     1      11.169  11.882  23.216  0.00  0.00    +0.043 C 
ATOM     15  C   UNL     1      11.882  12.958  24.021  0.00  0.00    +0.145 C 
ENDROOT
BRANCH  12  16
ATOM     16  C   UNL     1      12.038   9.987  21.756  0.00  0.00    -0.042 A 
ATOM     17  C   UNL     1      11.129   9.725  20.732  0.00  0.00    +0.007 A 
ATOM     18  C   UNL     1      12.752   8.941  22.340  0.00  0.00    +0.007 A 
ATOM     20  C   UNL     1      10.932   8.416  20.292  0.00  0.00    +0.046 A 
ATOM     21  C   UNL     1      12.555   7.632  21.901  0.00  0.00    +0.046 A 
ATOM     22  C   UNL     1      11.645   7.369  20.876  0.00  0.00    +0.120 A 
BRANCH  22   9
ATOM      9  O   UNL     1      11.453   6.092  20.447  0.00  0.00    -0.495 OA
ATOM     29  C   UNL     1      11.087   5.125  21.430  0.00  0.00    +0.277 C 
ENDBRANCH  22   9
ENDBRANCH  12  16
BRANCH  13   5
ATOM      5  O   UNL     1      13.174  11.354  25.310  0.00  0.00    -0.388 OA
ATOM     31  H   UNL     1      12.273  10.987  25.294  0.00  0.00    +0.210 HD
ENDBRANCH  13   5
BRANCH  15   6
ATOM      6  O   UNL     1      11.185  13.262  25.211  0.00  0.00    -0.389 OA
ATOM     32  H   UNL     1      11.731  13.884  25.720  0.00  0.00    +0.210 HD
ENDBRANCH  15   6
BRANCH  11  10
ATOM     10  N   UNL     1      14.469  12.514  22.145  0.00  0.00    -0.184 NA
ATOM     30  H   UNL     1      14.102  13.438  21.886  0.00  0.00    +0.148 HD
BRANCH  10   1
ATOM      1  S   UNL     1      15.842  11.877  21.376  0.00  0.00    +0.059 S 
ATOM      7  O   UNL     1      16.563  11.026  22.304  0.00  0.00    -0.153 OA
ATOM      8  O   UNL     1      16.532  12.949  20.684  0.00  0.00    -0.153 OA
BRANCH   1  19
ATOM     19  C   UNL     1      15.120  10.844  20.137  0.00  0.00    +0.105 A 
ATOM     23  C   UNL     1      15.420   9.482  20.104  0.00  0.00    +0.029 A 
ATOM     24  C   UNL     1      14.254  11.391  19.190  0.00  0.00    +0.029 A 
ATOM     25  C   UNL     1      14.852   8.667  19.125  0.00  0.00    +0.014 A 
ATOM     26  C   UNL     1      13.686  10.575  18.211  0.00  0.00    +0.014 A 
ATOM     27  C   UNL     1      13.986   9.213  18.178  0.00  0.00    +0.055 A 
BRANCH  27  28
ATOM      2  F   UNL     1      14.295   7.893  16.225  0.00  0.00    -0.166 F 
ATOM      3  F   UNL     1      12.780   7.220  17.632  0.00  0.00    -0.166 F 
ATOM      4  F   UNL     1      12.410   8.964  16.396  0.00  0.00    -0.166 F 
ATOM     28  C   UNL     1      13.379   8.341  17.132  0.00  0.00    +0.417 C 
ENDBRANCH  27  28
ENDBRANCH   1  19
ENDBRANCH  10   1
ENDBRANCH  11  10
TORSDOF 8
ENDMDL
MODEL 3
REMARK VINA RESULT:      -7.3     26.206     28.578
REMARK  Name = 75536096
REMARK  9 active torsions:
REMARK  status: ('A' for Active; 'I' for Inactive)
REMARK    1  A    between atoms: S_1  and  N_10
REMARK    2  A    between atoms: S_1  and  C_19
REMARK    3  A    between atoms: O_5  and  C_13
REMARK    4  A    between atoms: O_6  and  C_15
REMARK    5  A    between atoms: O_9  and  C_22
REMARK    6  A    between atoms: O_9  and  C_29
REMARK    7  A    between atoms: N_10  and  C_11
REMARK    8  A    between atoms: C_12  and  C_16
REMARK    9  A    between atoms: C_27  and  C_28
REMARK                            x       y       z     vdW  Elec       q    Type
REMARK                         _______ _______ _______ _____ _____    ______ ____
ROOT
ATOM     11  C   UNL     1     -14.889   7.321  22.654  0.00  0.00    +0.115 C 
ATOM     12  C   UNL     1     -15.033   6.946  21.153  0.00  0.00    +0.043 C 
ATOM     13  C   UNL     1     -15.306   6.070  23.439  0.00  0.00    +0.162 C 
ATOM     14  C   UNL     1     -15.403   5.454  21.137  0.00  0.00    +0.043 C 
ATOM     15  C   UNL     1     -16.148   5.270  22.450  0.00  0.00    +0.145 C 
ENDROOT
BRANCH  12  16
ATOM     16  C   UNL     1     -13.811   7.264  20.319  0.00  0.00    -0.042 A 
ATOM     17  C   UNL     1     -13.959   7.771  19.029  0.00  0.00    +0.007 A 
ATOM     18  C   UNL     1     -12.536   7.049  20.843  0.00  0.00    +0.007 A 
ATOM     20  C   UNL     1     -12.832   8.064  18.260  0.00  0.00    +0.046 A 
ATOM     21  C   UNL     1     -11.409   7.341  20.075  0.00  0.00    +0.046 A 
ATOM     22  C   UNL     1     -11.557   7.849  18.783  0.00  0.00    +0.120 A 
BRANCH  22   9
ATOM      9  O   UNL     1     -10.457   8.135  18.034  0.00  0.00    -0.495 OA
ATOM     29  C   UNL     1     -10.674   8.456  16.661  0.00  0.00    +0.277 C 
ENDBRANCH  22   9
ENDBRANCH  12  16
BRANCH  13   5
ATOM      5  O   UNL     1     -14.124   5.353  23.789  0.00  0.00    -0.388 OA
ATOM     31  H   UNL     1     -13.582   5.271  22.985  0.00  0.00    +0.210 HD
ENDBRANCH  13   5
BRANCH  15   6
ATOM      6  O   UNL     1     -16.252   3.905  22.799  0.00  0.00    -0.389 OA
ATOM     32  H   UNL     1     -16.226   3.848  23.769  0.00  0.00    +0.210 HD
ENDBRANCH  15   6
BRANCH  11  10
ATOM     10  N   UNL     1     -15.818   8.436  22.973  0.00  0.00    -0.184 NA
ATOM     30  H   UNL     1     -16.786   8.364  22.638  0.00  0.00    +0.148 HD
BRANCH  10   1
ATOM      1  S   UNL     1     -15.205   9.910  23.549  0.00  0.00    +0.059 S 
ATOM      7  O   UNL     1     -14.372   9.666  24.711  0.00  0.00    -0.153 OA
ATOM      8  O   UNL     1     -16.287  10.874  23.617  0.00  0.00    -0.153 OA
BRANCH   1  19
ATOM     19  C   UNL     1     -14.152  10.412  22.220  0.00  0.00    +0.105 A 
ATOM     23  C   UNL     1     -12.766  10.354  22.370  0.00  0.00    +0.029 A 
ATOM     24  C   UNL     1     -14.707  10.867  21.024  0.00  0.00    +0.029 A 
ATOM     25  C   UNL     1     -11.935  10.752  21.322  0.00  0.00    +0.014 A 
ATOM     26  C   UNL     1     -13.875  11.264  19.976  0.00  0.00    +0.014 A 
ATOM     27  C   UNL     1     -12.489  11.206  20.125  0.00  0.00    +0.055 A 
BRANCH  27  28
ATOM      2  F   UNL     1     -12.130  11.350  17.780  0.00  0.00    -0.166 F 
ATOM      3  F   UNL     1     -11.337  12.971  18.994  0.00  0.00    -0.166 F 
ATOM      4  F   UNL     1     -10.375  11.027  19.022  0.00  0.00    -0.166 F 
ATOM     28  C   UNL     1     -11.601  11.631  19.006  0.00  0.00    +0.417 C 
ENDBRANCH  27  28
ENDBRANCH   1  19
ENDBRANCH  10   1
ENDBRANCH  11  10
TORSDOF 8
ENDMDL
MODEL 4
REMARK VINA RESULT:      -7.3     18.499     20.575
REMARK  Name = 75536096
REMARK  9 active torsions:
REMARK  status: ('A' for Active; 'I' for Inactive)
REMARK    1  A    between atoms: S_1  and  N_10
REMARK    2  A    between atoms: S_1  and  C_19
REMARK    3  A    between atoms: O_5  and  C_13
REMARK    4  A    between atoms: O_6  and  C_15
REMARK    5  A    between atoms: O_9  and  C_22
REMARK    6  A    between atoms: O_9  and  C_29
REMARK    7  A    between atoms: N_10  and  C_11
REMARK    8  A    between atoms: C_12  and  C_16
REMARK    9  A    between atoms: C_27  and  C_28
REMARK                            x       y       z     vdW  Elec       q    Type
REMARK                         _______ _______ _______ _____ _____    ______ ____
ROOT
ATOM     11  C   UNL     1      12.694   5.201   1.737  0.00  0.00    +0.115 C 
ATOM     12  C   UNL     1      12.209   3.939   0.972  0.00  0.00    +0.043 C 
ATOM     13  C   UNL     1      14.213   5.041   1.888  0.00  0.00    +0.162 C 
ATOM     14  C   UNL     1      13.487   3.168   0.602  0.00  0.00    +0.043 C 
ATOM     15  C   UNL     1      14.451   3.543   1.717  0.00  0.00    +0.145 C 
ENDROOT
BRANCH  12  16
ATOM     16  C   UNL     1      11.333   4.243  -0.223  0.00  0.00    -0.042 A 
ATOM     17  C   UNL     1      10.324   5.200  -0.122  0.00  0.00    +0.007 A 
ATOM     18  C   UNL     1      11.535   3.566  -1.425  0.00  0.00    +0.007 A 
ATOM     20  C   UNL     1       9.515   5.481  -1.224  0.00  0.00    +0.046 A 
ATOM     21  C   UNL     1      10.727   3.845  -2.527  0.00  0.00    +0.046 A 
ATOM     22  C   UNL     1       9.717   4.803  -2.427  0.00  0.00    +0.120 A 
BRANCH  22   9
ATOM      9  O   UNL     1       8.929   5.076  -3.502  0.00  0.00    -0.495 OA
ATOM     29  C   UNL     1       9.477   4.812  -4.792  0.00  0.00    +0.277 C 
ENDBRANCH  22   9
ENDBRANCH  12  16
BRANCH  13   5
ATOM      5  O   UNL     1      14.842   5.774   0.839  0.00  0.00    -0.388 OA
ATOM     31  H   UNL     1      15.345   5.140   0.299  0.00  0.00    +0.210 HD
ENDBRANCH  13   5
BRANCH  15   6
ATOM      6  O   UNL     1      15.787   3.239   1.372  0.00  0.00    -0.389 OA
ATOM     32  H   UNL     1      15.951   2.315   1.625  0.00  0.00    +0.210 HD
ENDBRANCH  15   6
BRANCH  11  10
ATOM     10  N   UNL     1      12.065   5.231   3.084  0.00  0.00    -0.184 NA
ATOM     30  H   UNL     1      11.652   4.361   3.439  0.00  0.00    +0.148 HD
BRANCH  10   1
ATOM      1  S   UNL     1      11.733   6.720   3.829  0.00  0.00    +0.059 S 
ATOM      7  O   UNL     1      10.668   7.393   3.110  0.00  0.00    -0.153 OA
ATOM      8  O   UNL     1      12.985   7.404   4.087  0.00  0.00    -0.153 OA
BRANCH   1  19
ATOM     19  C   UNL     1      11.094   6.208   5.397  0.00  0.00    +0.105 A 
ATOM     23  C   UNL     1      10.177   5.158   5.466  0.00  0.00    +0.029 A 
ATOM     24  C   UNL     1      11.504   6.856   6.562  0.00  0.00    +0.029 A 
ATOM     25  C   UNL     1       9.672   4.756   6.702  0.00  0.00    +0.014 A 
ATOM     26  C   UNL     1      10.997   6.452   7.798  0.00  0.00    +0.014 A 
ATOM     27  C   UNL     1      10.081   5.403   7.868  0.00  0.00    +0.055 A 
BRANCH  27  28
ATOM      2  F   UNL     1       9.098   3.680   9.180  0.00  0.00    -0.166 F 
ATOM      3  F   UNL     1      10.452   5.041  10.203  0.00  0.00    -0.166 F 
ATOM      4  F   UNL     1       8.478   5.719   9.614  0.00  0.00    -0.166 F 
ATOM     28  C   UNL     1       9.540   4.972   9.189  0.00  0.00    +0.417 C 
ENDBRANCH  27  28
ENDBRANCH   1  19
ENDBRANCH  10   1
ENDBRANCH  11  10
TORSDOF 8
ENDMDL
MODEL 5
REMARK VINA RESULT:      -7.2      3.947      4.573
REMARK  Name = 75536096
REMARK  9 active torsions:
REMARK  status: ('A' for Active; 'I' for Inactive)
REMARK    1  A    between atoms: S_1  and  N_10
REMARK    2  A    between atoms: S_1  and  C_19
REMARK    3  A    between atoms: O_5  and  C_13
REMARK    4  A    between atoms: O_6  and  C_15
REMARK    5  A    between atoms: O_9  and  C_22
REMARK    6  A    between atoms: O_9  and  C_29
REMARK    7  A    between atoms: N_10  and  C_11
REMARK    8  A    between atoms: C_12  and  C_16
REMARK    9  A    between atoms: C_27  and  C_28
REMARK                            x       y       z     vdW  Elec       q    Type
REMARK                         _______ _______ _______ _____ _____    ______ ____
ROOT
ATOM     11  C   UNL     1      12.849   8.076  21.087  0.00  0.00    +0.115 C 
ATOM     12  C   UNL     1      12.511   9.033  22.264  0.00  0.00    +0.043 C 
ATOM     13  C   UNL     1      11.584   7.239  20.852  0.00  0.00    +0.162 C 
ATOM     14  C   UNL     1      11.023   8.795  22.570  0.00  0.00    +0.043 C 
ATOM     15  C   UNL     1      10.816   7.344  22.166  0.00  0.00    +0.145 C 
ENDROOT
BRANCH  12  16
ATOM     16  C   UNL     1      12.835  10.485  21.989  0.00  0.00    -0.042 A 
ATOM     17  C   UNL     1      12.246  11.139  20.907  0.00  0.00    +0.007 A 
ATOM     18  C   UNL     1      13.723  11.170  22.819  0.00  0.00    +0.007 A 
ATOM     20  C   UNL     1      12.545  12.478  20.653  0.00  0.00    +0.046 A 
ATOM     21  C   UNL     1      14.022  12.508  22.565  0.00  0.00    +0.046 A 
ATOM     22  C   UNL     1      13.433  13.163  21.483  0.00  0.00    +0.120 A 
BRANCH  22   9
ATOM      9  O   UNL     1      13.725  14.469  21.236  0.00  0.00    -0.495 OA
ATOM     29  C   UNL     1      13.037  15.094  20.154  0.00  0.00    +0.277 C 
ENDBRANCH  22   9
ENDBRANCH  12  16
BRANCH  13   5
ATOM      5  O   UNL     1      10.848   7.840  19.788  0.00  0.00    -0.388 OA
ATOM     31  H   UNL     1      10.182   7.195  19.493  0.00  0.00    +0.210 HD
ENDBRANCH  13   5
BRANCH  15   6
ATOM      6  O   UNL     1       9.444   7.037  22.022  0.00  0.00    -0.389 OA
ATOM     32  H   UNL     1       9.007   7.250  22.863  0.00  0.00    +0.210 HD
ENDBRANCH  15   6
BRANCH  11  10
ATOM     10  N   UNL     1      13.966   7.181  21.488  0.00  0.00    -0.184 NA
ATOM     30  H   UNL     1      13.929   6.758  22.423  0.00  0.00    +0.148 HD
BRANCH  10   1
ATOM      1  S   UNL     1      15.399   7.156  20.578  0.00  0.00    +0.059 S 
ATOM      7  O   UNL     1      15.263   6.208  19.489  0.00  0.00    -0.153 OA
ATOM      8  O   UNL     1      16.528   7.069  21.484  0.00  0.00    -0.153 OA
BRANCH   1  19
ATOM     19  C   UNL     1      15.419   8.783  19.885  0.00  0.00    +0.105 A 
ATOM     23  C   UNL     1      14.690   9.056  18.728  0.00  0.00    +0.029 A 
ATOM     24  C   UNL     1      16.166   9.791  20.494  0.00  0.00    +0.029 A 
ATOM     25  C   UNL     1      14.708  10.338  18.180  0.00  0.00    +0.014 A 
ATOM     26  C   UNL     1      16.183  11.074  19.946  0.00  0.00    +0.014 A 
ATOM     27  C   UNL     1      15.454  11.348  18.788  0.00  0.00    +0.055 A 
BRANCH  27  28
ATOM      2  F   UNL     1      14.241  13.124  17.775  0.00  0.00    -0.166 F 
ATOM      3  F   UNL     1      15.893  13.681  19.074  0.00  0.00    -0.166 F 
ATOM      4  F   UNL     1      16.294  12.838  17.117  0.00  0.00    -0.166 F 
ATOM     28  C   UNL     1      15.473  12.718  18.202  0.00  0.00    +0.417 C 
ENDBRANCH  27  28
ENDBRANCH   1  19
ENDBRANCH  10   1
ENDBRANCH  11  10
TORSDOF 8
ENDMDL
MODEL 6
REMARK VINA RESULT:      -7.1     27.730     30.292
REMARK  Name = 75536096
REMARK  9 active torsions:
REMARK  status: ('A' for Active; 'I' for Inactive)
REMARK    1  A    between atoms: S_1  and  N_10
REMARK    2  A    between atoms: S_1  and  C_19
REMARK    3  A    between atoms: O_5  and  C_13
REMARK    4  A    between atoms: O_6  and  C_15
REMARK    5  A    between atoms: O_9  and  C_22
REMARK    6  A    between atoms: O_9  and  C_29
REMARK    7  A    between atoms: N_10  and  C_11
REMARK    8  A    between atoms: C_12  and  C_16
REMARK    9  A    between atoms: C_27  and  C_28
REMARK                            x       y       z     vdW  Elec       q    Type
REMARK                         _______ _______ _______ _____ _____    ______ ____
ROOT
ATOM     11  C   UNL     1      -4.485 -11.225  15.137  0.00  0.00    +0.115 C 
ATOM     12  C   UNL     1      -4.285 -10.616  16.552  0.00  0.00    +0.043 C 
ATOM     13  C   UNL     1      -3.091 -11.671  14.673  0.00  0.00    +0.162 C 
ATOM     14  C   UNL     1      -2.805 -10.856  16.896  0.00  0.00    +0.043 C 
ATOM     15  C   UNL     1      -2.131 -10.855  15.533  0.00  0.00    +0.145 C 
ENDROOT
BRANCH  12  16
ATOM     16  C   UNL     1      -5.233 -11.163  17.597  0.00  0.00    -0.042 A 
ATOM     17  C   UNL     1      -5.840 -12.404  17.406  0.00  0.00    +0.007 A 
ATOM     18  C   UNL     1      -5.498 -10.427  18.751  0.00  0.00    +0.007 A 
ATOM     20  C   UNL     1      -6.714 -12.909  18.369  0.00  0.00    +0.046 A 
ATOM     21  C   UNL     1      -6.372 -10.931  19.714  0.00  0.00    +0.046 A 
ATOM     22  C   UNL     1      -6.980 -12.172  19.524  0.00  0.00    +0.120 A 
BRANCH  22   9
ATOM      9  O   UNL     1      -7.832 -12.664  20.464  0.00  0.00    -0.495 OA
ATOM     29  C   UNL     1      -8.902 -13.488  20.001  0.00  0.00    +0.277 C 
ENDBRANCH  22   9
ENDBRANCH  12  16
BRANCH  13   5
ATOM      5  O   UNL     1      -2.958 -13.064  14.951  0.00  0.00    -0.388 OA
ATOM     31  H   UNL     1      -3.219 -13.549  14.149  0.00  0.00    +0.210 HD
ENDBRANCH  13   5
BRANCH  15   6
ATOM      6  O   UNL     1      -0.838 -11.422  15.595  0.00  0.00    -0.389 OA
ATOM     32  H   UNL     1      -0.895 -12.224  16.141  0.00  0.00    +0.210 HD
ENDBRANCH  15   6
BRANCH  11  10
ATOM     10  N   UNL     1      -4.997 -10.174  14.219  0.00  0.00    -0.184 NA
ATOM     30  H   UNL     1      -4.516  -9.267  14.213  0.00  0.00    +0.148 HD
BRANCH  10   1
ATOM      1  S   UNL     1      -6.519 -10.358  13.489  0.00  0.00    +0.059 S 
ATOM      7  O   UNL     1      -6.609 -11.672  12.882  0.00  0.00    -0.153 OA
ATOM      8  O   UNL     1      -6.809  -9.172  12.706  0.00  0.00    -0.153 OA
BRANCH   1  19
ATOM     19  C   UNL     1      -7.600 -10.328  14.887  0.00  0.00    +0.105 A 
ATOM     23  C   UNL     1      -7.579  -9.241  15.761  0.00  0.00    +0.029 A 
ATOM     24  C   UNL     1      -8.472 -11.393  15.118  0.00  0.00    +0.029 A 
ATOM     25  C   UNL     1      -8.430  -9.219  16.866  0.00  0.00    +0.014 A 
ATOM     26  C   UNL     1      -9.323 -11.369  16.223  0.00  0.00    +0.014 A 
ATOM     27  C   UNL     1      -9.302 -10.282  17.097  0.00  0.00    +0.055 A 
BRANCH  27  28
ATOM      2  F   UNL     1     -11.034 -11.346  18.331  0.00  0.00    -0.166 F 
ATOM      3  F   UNL     1      -9.556 -10.235  19.475  0.00  0.00    -0.166 F 
ATOM      4  F   UNL     1     -11.041  -9.172  18.306  0.00  0.00    -0.166 F 
ATOM     28  C   UNL     1     -10.212 -10.257  18.278  0.00  0.00    +0.417 C 
ENDBRANCH  27  28
ENDBRANCH   1  19
ENDBRANCH  10   1
ENDBRANCH  11  10
TORSDOF 8
ENDMDL
MODEL 7
REMARK VINA RESULT:      -7.1      4.022      5.055
REMARK  Name = 75536096
REMARK  9 active torsions:
REMARK  status: ('A' for Active; 'I' for Inactive)
REMARK    1  A    between atoms: S_1  and  N_10
REMARK    2  A    between atoms: S_1  and  C_19
REMARK    3  A    between atoms: O_5  and  C_13
REMARK    4  A    between atoms: O_6  and  C_15
REMARK    5  A    between atoms: O_9  and  C_22
REMARK    6  A    between atoms: O_9  and  C_29
REMARK    7  A    between atoms: N_10  and  C_11
REMARK    8  A    between atoms: C_12  and  C_16
REMARK    9  A    between atoms: C_27  and  C_28
REMARK                            x       y       z     vdW  Elec       q    Type
REMARK                         _______ _______ _______ _____ _____    ______ ____
ROOT
ATOM     11  C   UNL     1      13.433   8.962  18.386  0.00  0.00    +0.115 C 
ATOM     12  C   UNL     1      12.034   8.522  18.899  0.00  0.00    +0.043 C 
ATOM     13  C   UNL     1      13.207   9.500  16.966  0.00  0.00    +0.162 C 
ATOM     14  C   UNL     1      11.044   8.945  17.802  0.00  0.00    +0.043 C 
ATOM     15  C   UNL     1      11.883   8.876  16.536  0.00  0.00    +0.145 C 
ENDROOT
BRANCH  12  16
ATOM     16  C   UNL     1      11.678   9.071  20.263  0.00  0.00    -0.042 A 
ATOM     17  C   UNL     1      11.146   8.227  21.238  0.00  0.00    +0.007 A 
ATOM     18  C   UNL     1      11.884  10.421  20.546  0.00  0.00    +0.007 A 
ATOM     20  C   UNL     1      10.818   8.734  22.496  0.00  0.00    +0.046 A 
ATOM     21  C   UNL     1      11.556  10.928  21.803  0.00  0.00    +0.046 A 
ATOM     22  C   UNL     1      11.023  10.085  22.778  0.00  0.00    +0.120 A 
BRANCH  22   9
ATOM      9  O   UNL     1      10.704  10.579  24.006  0.00  0.00    -0.495 OA
ATOM     29  C   UNL     1      11.114  11.915  24.293  0.00  0.00    +0.277 C 
ENDBRANCH  22   9
ENDBRANCH  12  16
BRANCH  13   5
ATOM      5  O   UNL     1      13.094  10.919  17.044  0.00  0.00    -0.388 OA
ATOM     31  H   UNL     1      13.151  11.268  16.137  0.00  0.00    +0.210 HD
ENDBRANCH  13   5
BRANCH  15   6
ATOM      6  O   UNL     1      11.271   9.575  15.471  0.00  0.00    -0.389 OA
ATOM     32  H   UNL     1      10.323   9.362  15.486  0.00  0.00    +0.210 HD
ENDBRANCH  15   6
BRANCH  11  10
ATOM     10  N   UNL     1      14.329   7.778  18.328  0.00  0.00    -0.184 NA
ATOM     30  H   UNL     1      14.262   7.165  17.507  0.00  0.00    +0.148 HD
BRANCH  10   1
ATOM      1  S   UNL     1      15.160   7.277  19.721  0.00  0.00    +0.059 S 
ATOM      7  O   UNL     1      16.515   6.898  19.366  0.00  0.00    -0.153 OA
ATOM      8  O   UNL     1      14.318   6.360  20.465  0.00  0.00    -0.153 OA
BRANCH   1  19
ATOM     19  C   UNL     1      15.241   8.775  20.657  0.00  0.00    +0.105 A 
ATOM     23  C   UNL     1      15.726   9.941  20.063  0.00  0.00    +0.029 A 
ATOM     24  C   UNL     1      14.822   8.791  21.987  0.00  0.00    +0.029 A 
ATOM     25  C   UNL     1      15.792  11.123  20.802  0.00  0.00    +0.014 A 
ATOM     26  C   UNL     1      14.888   9.973  22.725  0.00  0.00    +0.014 A 
ATOM     27  C   UNL     1      15.373  11.139  22.132  0.00  0.00    +0.055 A 
BRANCH  27  28
ATOM      2  F   UNL     1      14.242  13.046  22.990  0.00  0.00    -0.166 F 
ATOM      3  F   UNL     1      15.836  12.219  24.215  0.00  0.00    -0.166 F 
ATOM      4  F   UNL     1      16.319  13.318  22.409  0.00  0.00    -0.166 F 
ATOM     28  C   UNL     1      15.443  12.403  22.920  0.00  0.00    +0.417 C 
ENDBRANCH  27  28
ENDBRANCH   1  19
ENDBRANCH  10   1
ENDBRANCH  11  10
TORSDOF 8
ENDMDL
MODEL 8
REMARK VINA RESULT:      -7.1     26.237     28.005
REMARK  Name = 75536096
REMARK  9 active torsions:
REMARK  status: ('A' for Active; 'I' for Inactive)
REMARK    1  A    between atoms: S_1  and  N_10
REMARK    2  A    between atoms: S_1  and  C_19
REMARK    3  A    between atoms: O_5  and  C_13
REMARK    4  A    between atoms: O_6  and  C_15
REMARK    5  A    between atoms: O_9  and  C_22
REMARK    6  A    between atoms: O_9  and  C_29
REMARK    7  A    between atoms: N_10  and  C_11
REMARK    8  A    between atoms: C_12  and  C_16
REMARK    9  A    between atoms: C_27  and  C_28
REMARK                            x       y       z     vdW  Elec       q    Type
REMARK                         _______ _______ _______ _____ _____    ______ ____
ROOT
ATOM     11  C   UNL     1     -12.194   9.353  16.756  0.00  0.00    +0.115 C 
ATOM     12  C   UNL     1     -11.311   8.581  17.775  0.00  0.00    +0.043 C 
ATOM     13  C   UNL     1     -11.828   8.791  15.375  0.00  0.00    +0.162 C 
ATOM     14  C   UNL     1     -10.568   7.518  16.949  0.00  0.00    +0.043 C 
ATOM     15  C   UNL     1     -10.451   8.166  15.579  0.00  0.00    +0.145 C 
ENDROOT
BRANCH  12  16
ATOM     16  C   UNL     1     -12.081   7.997  18.939  0.00  0.00    -0.042 A 
ATOM     17  C   UNL     1     -13.467   7.865  18.862  0.00  0.00    +0.007 A 
ATOM     18  C   UNL     1     -11.404   7.590  20.088  0.00  0.00    +0.007 A 
ATOM     20  C   UNL     1     -14.178   7.326  19.935  0.00  0.00    +0.046 A 
ATOM     21  C   UNL     1     -12.114   7.052  21.161  0.00  0.00    +0.046 A 
ATOM     22  C   UNL     1     -13.501   6.920  21.085  0.00  0.00    +0.120 A 
BRANCH  22   9
ATOM      9  O   UNL     1     -14.193   6.394  22.132  0.00  0.00    -0.495 OA
ATOM     29  C   UNL     1     -14.235   4.971  22.233  0.00  0.00    +0.277 C 
ENDBRANCH  22   9
ENDBRANCH  12  16
BRANCH  13   5
ATOM      5  O   UNL     1     -12.789   7.795  15.035  0.00  0.00    -0.388 OA
ATOM     31  H   UNL     1     -13.671   8.200  15.112  0.00  0.00    +0.210 HD
ENDBRANCH  13   5
BRANCH  15   6
ATOM      6  O   UNL     1     -10.131   7.216  14.583  0.00  0.00    -0.389 OA
ATOM     32  H   UNL     1     -10.674   6.426  14.746  0.00  0.00    +0.210 HD
ENDBRANCH  15   6
BRANCH  11  10
ATOM     10  N   UNL     1     -11.853  10.799  16.807  0.00  0.00    -0.184 NA
ATOM     30  H   UNL     1     -10.866  11.062  16.702  0.00  0.00    +0.148 HD
BRANCH  10   1
ATOM      1  S   UNL     1     -12.997  11.919  17.371  0.00  0.00    +0.059 S 
ATOM      7  O   UNL     1     -14.282  11.650  16.752  0.00  0.00    -0.153 OA
ATOM      8  O   UNL     1     -12.422  13.249  17.308  0.00  0.00    -0.153 OA
BRANCH   1  19
ATOM     19  C   UNL     1     -13.116  11.489  19.082  0.00  0.00    +0.105 A 
ATOM     23  C   UNL     1     -14.359  11.190  19.640  0.00  0.00    +0.029 A 
ATOM     24  C   UNL     1     -11.967  11.452  19.873  0.00  0.00    +0.029 A 
ATOM     25  C   UNL     1     -14.453  10.853  20.990  0.00  0.00    +0.014 A 
ATOM     26  C   UNL     1     -12.062  11.114  21.223  0.00  0.00    +0.014 A 
ATOM     27  C   UNL     1     -13.305  10.815  21.782  0.00  0.00    +0.055 A 
BRANCH  27  28
ATOM      2  F   UNL     1     -13.934   9.211  23.421  0.00  0.00    -0.166 F 
ATOM      3  F   UNL     1     -12.204  10.449  23.874  0.00  0.00    -0.166 F 
ATOM      4  F   UNL     1     -14.196  11.305  23.947  0.00  0.00    -0.166 F 
ATOM     28  C   UNL     1     -13.406  10.455  23.225  0.00  0.00    +0.417 C 
ENDBRANCH  27  28
ENDBRANCH   1  19
ENDBRANCH  10   1
ENDBRANCH  11  10
TORSDOF 8
ENDMDL
MODEL 9
REMARK VINA RESULT:      -6.9     16.584     18.162
REMARK  Name = 75536096
REMARK  9 active torsions:
REMARK  status: ('A' for Active; 'I' for Inactive)
REMARK    1  A    between atoms: S_1  and  N_10
REMARK    2  A    between atoms: S_1  and  C_19
REMARK    3  A    between atoms: O_5  and  C_13
REMARK    4  A    between atoms: O_6  and  C_15
REMARK    5  A    between atoms: O_9  and  C_22
REMARK    6  A    between atoms: O_9  and  C_29
REMARK    7  A    between atoms: N_10  and  C_11
REMARK    8  A    between atoms: C_12  and  C_16
REMARK    9  A    between atoms: C_27  and  C_28
REMARK                            x       y       z     vdW  Elec       q    Type
REMARK                         _______ _______ _______ _____ _____    ______ ____
ROOT
ATOM     11  C   UNL     1      10.166   7.868   2.073  0.00  0.00    +0.115 C 
ATOM     12  C   UNL     1       8.802   8.068   2.790  0.00  0.00    +0.043 C 
ATOM     13  C   UNL     1      10.082   8.690   0.779  0.00  0.00    +0.162 C 
ATOM     14  C   UNL     1       8.041   9.099   1.942  0.00  0.00    +0.043 C 
ATOM     15  C   UNL     1       8.585   8.864   0.542  0.00  0.00    +0.145 C 
ENDROOT
BRANCH  12  16
ATOM     16  C   UNL     1       8.924   8.469   4.244  0.00  0.00    -0.042 A 
ATOM     17  C   UNL     1       8.066   7.916   5.194  0.00  0.00    +0.007 A 
ATOM     18  C   UNL     1       9.896   9.391   4.633  0.00  0.00    +0.007 A 
ATOM     20  C   UNL     1       8.179   8.286   6.535  0.00  0.00    +0.046 A 
ATOM     21  C   UNL     1      10.009   9.761   5.973  0.00  0.00    +0.046 A 
ATOM     22  C   UNL     1       9.151   9.209   6.924  0.00  0.00    +0.120 A 
BRANCH  22   9
ATOM      9  O   UNL     1       9.261   9.569   8.232  0.00  0.00    -0.495 OA
ATOM     29  C   UNL     1      10.381  10.378   8.589  0.00  0.00    +0.277 C 
ENDBRANCH  22   9
ENDBRANCH  12  16
BRANCH  13   5
ATOM      5  O   UNL     1      10.705   9.951   1.016  0.00  0.00    -0.388 OA
ATOM     31  H   UNL     1      10.206  10.396   1.723  0.00  0.00    +0.210 HD
ENDBRANCH  13   5
BRANCH  15   6
ATOM      6  O   UNL     1       8.291   9.946  -0.318  0.00  0.00    -0.389 OA
ATOM     32  H   UNL     1       7.401  10.265  -0.092  0.00  0.00    +0.210 HD
ENDBRANCH  15   6
BRANCH  11  10
ATOM     10  N   UNL     1      10.337   6.431   1.734  0.00  0.00    -0.184 NA
ATOM     30  H   UNL     1       9.568   5.960   1.244  0.00  0.00    +0.148 HD
BRANCH  10   1
ATOM      1  S   UNL     1      11.592   5.537   2.448  0.00  0.00    +0.059 S 
ATOM      7  O   UNL     1      12.826   6.297   2.380  0.00  0.00    -0.153 OA
ATOM      8  O   UNL     1      11.543   4.178   1.944  0.00  0.00    -0.153 OA
BRANCH   1  19
ATOM     19  C   UNL     1      11.081   5.478   4.140  0.00  0.00    +0.105 A 
ATOM     23  C   UNL     1      11.704   6.294   5.084  0.00  0.00    +0.029 A 
ATOM     24  C   UNL     1      10.058   4.613   4.530  0.00  0.00    +0.029 A 
ATOM     25  C   UNL     1      11.303   6.246   6.419  0.00  0.00    +0.014 A 
ATOM     26  C   UNL     1       9.657   4.566   5.865  0.00  0.00    +0.014 A 
ATOM     27  C   UNL     1      10.280   5.382   6.810  0.00  0.00    +0.055 A 
BRANCH  27  28
ATOM      2  F   UNL     1       8.771   6.127   8.490  0.00  0.00    -0.166 F 
ATOM      3  F   UNL     1       9.493   4.082   8.657  0.00  0.00    -0.166 F 
ATOM      4  F   UNL     1      10.818   5.738   9.113  0.00  0.00    -0.166 F 
ATOM     28  C   UNL     1       9.851   5.332   8.237  0.00  0.00    +0.417 C 
ENDBRANCH  27  28
ENDBRANCH   1  19
ENDBRANCH  10   1
ENDBRANCH  11  10
TORSDOF 8
ENDMDL
MODEL 10
REMARK VINA RESULT:      -6.9     28.201     29.719
REMARK  Name = 75536096
REMARK  9 active torsions:
REMARK  status: ('A' for Active; 'I' for Inactive)
REMARK    1  A    between atoms: S_1  and  N_10
REMARK    2  A    between atoms: S_1  and  C_19
REMARK    3  A    between atoms: O_5  and  C_13
REMARK    4  A    between atoms: O_6  and  C_15
REMARK    5  A    between atoms: O_9  and  C_22
REMARK    6  A    between atoms: O_9  and  C_29
REMARK    7  A    between atoms: N_10  and  C_11
REMARK    8  A    between atoms: C_12  and  C_16
REMARK    9  A    between atoms: C_27  and  C_28
REMARK                            x       y       z     vdW  Elec       q    Type
REMARK                         _______ _______ _______ _____ _____    ______ ____
ROOT
ATOM     11  C   UNL     1      -4.518 -13.522  15.171  0.00  0.00    +0.115 C 
ATOM     12  C   UNL     1      -4.815 -12.001  15.285  0.00  0.00    +0.043 C 
ATOM     13  C   UNL     1      -4.948 -14.134  16.511  0.00  0.00    +0.162 C 
ATOM     14  C   UNL     1      -5.524 -11.823  16.638  0.00  0.00    +0.043 C 
ATOM     15  C   UNL     1      -4.951 -12.953  17.478  0.00  0.00    +0.145 C 
ENDROOT
BRANCH  12  16
ATOM     16  C   UNL     1      -5.605 -11.440  14.123  0.00  0.00    -0.042 A 
ATOM     17  C   UNL     1      -5.500 -10.088  13.796  0.00  0.00    +0.007 A 
ATOM     18  C   UNL     1      -6.438 -12.275  13.378  0.00  0.00    +0.007 A 
ATOM     20  C   UNL     1      -6.229  -9.571  12.724  0.00  0.00    +0.046 A 
ATOM     21  C   UNL     1      -7.166 -11.759  12.307  0.00  0.00    +0.046 A 
ATOM     22  C   UNL     1      -7.062 -10.406  11.979  0.00  0.00    +0.120 A 
BRANCH  22   9
ATOM      9  O   UNL     1      -7.772  -9.902  10.934  0.00  0.00    -0.495 OA
ATOM     29  C   UNL     1      -7.064  -9.684   9.715  0.00  0.00    +0.277 C 
ENDBRANCH  22   9
ENDBRANCH  12  16
BRANCH  13   5
ATOM      5  O   UNL     1      -6.264 -14.660  16.355  0.00  0.00    -0.388 OA
ATOM     31  H   UNL     1      -6.182 -15.622  16.231  0.00  0.00    +0.210 HD
ENDBRANCH  13   5
BRANCH  15   6
ATOM      6  O   UNL     1      -5.736 -13.192  18.629  0.00  0.00    -0.389 OA
ATOM     32  H   UNL     1      -6.180 -14.048  18.508  0.00  0.00    +0.210 HD
ENDBRANCH  15   6
BRANCH  11  10
ATOM     10  N   UNL     1      -3.058 -13.724  14.983  0.00  0.00    -0.184 NA
ATOM     30  H   UNL     1      -2.425 -13.349  15.700  0.00  0.00    +0.148 HD
BRANCH  10   1
ATOM      1  S   UNL     1      -2.461 -14.231  13.476  0.00  0.00    +0.059 S 
ATOM      7  O   UNL     1      -3.310 -15.283  12.949  0.00  0.00    -0.153 OA
ATOM      8  O   UNL     1      -1.029 -14.435  13.584  0.00  0.00    -0.153 OA
BRANCH   1  19
ATOM     19  C   UNL     1      -2.702 -12.788  12.483  0.00  0.00    +0.105 A 
ATOM     23  C   UNL     1      -3.515 -12.849  11.351  0.00  0.00    +0.029 A 
ATOM     24  C   UNL     1      -2.078 -11.589  12.832  0.00  0.00    +0.029 A 
ATOM     25  C   UNL     1      -3.703 -11.711  10.567  0.00  0.00    +0.014 A 
ATOM     26  C   UNL     1      -2.267 -10.452  12.047  0.00  0.00    +0.014 A 
ATOM     27  C   UNL     1      -3.080 -10.512  10.914  0.00  0.00    +0.055 A 
BRANCH  27  28
ATOM      2  F   UNL     1      -2.122  -8.613   9.853  0.00  0.00    -0.166 F 
ATOM      3  F   UNL     1      -3.793  -9.563   8.838  0.00  0.00    -0.166 F 
ATOM      4  F   UNL     1      -4.141  -8.389  10.627  0.00  0.00    -0.166 F 
ATOM     28  C   UNL     1      -3.282  -9.296  10.075  0.00  0.00    +0.417 C 
ENDBRANCH  27  28
ENDBRANCH   1  19
ENDBRANCH  10   1
ENDBRANCH  11  10
TORSDOF 8
ENDMDL
