MODEL 1
REMARK VINA RESULT:      -6.4      0.000      0.000
REMARK  Name = 40778264
REMARK  13 active torsions:
REMARK  status: ('A' for Active; 'I' for Inactive)
REMARK    1  A    between atoms: O_2  and  C_9
REMARK    2  A    between atoms: O_3  and  C_10
REMARK    3  A    between atoms: N_5  and  C_13
REMARK    4  A    between atoms: N_5  and  C_16
REMARK    5  A    between atoms: N_6  and  C_17
REMARK    6  A    between atoms: N_7  and  C_19
REMARK    7  A    between atoms: N_7  and  C_21
REMARK    8  A    between atoms: N_7  and  C_22
REMARK    9  A    between atoms: C_11  and  C_13
REMARK   10  A    between atoms: C_12  and  C_14
REMARK   11  A    between atoms: C_14  and  C_15
REMARK   12  A    between atoms: C_16  and  C_18
REMARK   13  A    between atoms: C_17  and  C_19
REMARK                            x       y       z     vdW  Elec       q    Type
REMARK                         _______ _______ _______ _____ _____    ______ ____
ROOT
ATOM      1  O   UNL     1      10.561   8.220  20.335  0.00  0.00    -0.366 OA
ATOM      9  C   UNL     1      11.698   6.441  21.430  0.00  0.00    +0.175 C 
ATOM     10  C   UNL     1      12.673   7.195  20.552  0.00  0.00    +0.175 C 
ATOM     11  C   UNL     1      10.544   7.431  21.546  0.00  0.00    +0.163 C 
ATOM     12  C   UNL     1      11.734   7.882  19.575  0.00  0.00    +0.158 C 
ENDROOT
BRANCH   9   2
ATOM      2  O   UNL     1      11.217   5.279  20.755  0.00  0.00    -0.387 OA
ATOM     26  H   UNL     1      11.994   4.770  20.465  0.00  0.00    +0.210 HD
ENDBRANCH   9   2
BRANCH  10   3
ATOM      3  O   UNL     1      13.599   6.355  19.895  0.00  0.00    -0.387 OA
ATOM     27  H   UNL     1      13.090   5.722  19.361  0.00  0.00    +0.210 HD
ENDBRANCH  10   3
BRANCH  11  13
ATOM     13  C   UNL     1      10.692   8.384  22.725  0.00  0.00    +0.115 C 
BRANCH  13   5
ATOM      5  N   UNL     1      10.260   9.728  22.369  0.00  0.00    -0.308 NA
ATOM     28  H   UNL     1       9.892   9.722  21.418  0.00  0.00    +0.122 HD
BRANCH   5  16
ATOM     16  C   UNL     1      11.364  10.673  22.466  0.00  0.00    +0.136 C 
BRANCH  16  18
ATOM      8  N   UNL     1      10.710  13.006  22.689  0.00  0.00    -0.259 NA
ATOM     18  C   UNL     1      11.016  11.856  23.330  0.00  0.00    +0.055 A 
ATOM     20  C   UNL     1      11.025  11.716  24.708  0.00  0.00    +0.024 A 
ATOM     23  C   UNL     1      10.698  12.826  25.478  0.00  0.00    +0.003 A 
ATOM     24  C   UNL     1      10.397  14.065  23.469  0.00  0.00    +0.111 A 
ATOM     25  C   UNL     1      10.377  14.028  24.854  0.00  0.00    +0.020 A 
ENDBRANCH  16  18
ENDBRANCH   5  16
ENDBRANCH  13   5
ENDBRANCH  11  13
BRANCH  12  14
ATOM     14  C   UNL     1      12.323   9.137  18.955  0.00  0.00    +0.130 C 
BRANCH  14  15
ATOM      4  O   UNL     1      13.093   7.806  17.088  0.00  0.00    -0.276 OA
ATOM      6  N   UNL     1      12.887  10.106  16.831  0.00  0.00    -0.314 N 
ATOM     15  C   UNL     1      12.809   8.914  17.535  0.00  0.00    +0.216 C 
ATOM     29  H   UNL     1      12.620  10.973  17.290  0.00  0.00    +0.149 HD
BRANCH   6  17
ATOM     17  C   UNL     1      13.322  10.183  15.455  0.00  0.00    +0.119 C 
BRANCH  17  19
ATOM     19  C   UNL     1      14.828  10.386  15.363  0.00  0.00    +0.102 C 
BRANCH  19   7
ATOM      7  N   UNL     1      15.134  11.784  15.094  0.00  0.00    -0.307 NA
ATOM     21  C   UNL     1      14.120  12.375  14.217  0.00  0.00    +0.104 C 
ATOM     22  C   UNL     1      16.463  11.917  14.492  0.00  0.00    +0.104 C 
ENDBRANCH  19   7
ENDBRANCH  17  19
ENDBRANCH   6  17
ENDBRANCH  14  15
ENDBRANCH  12  14
TORSDOF 11
ENDMDL
MODEL 2
REMARK VINA RESULT:      -6.4      2.400      4.350
REMARK  Name = 40778264
REMARK  13 active torsions:
REMARK  status: ('A' for Active; 'I' for Inactive)
REMARK    1  A    between atoms: O_2  and  C_9
REMARK    2  A    between atoms: O_3  and  C_10
REMARK    3  A    between atoms: N_5  and  C_13
REMARK    4  A    between atoms: N_5  and  C_16
REMARK    5  A    between atoms: N_6  and  C_17
REMARK    6  A    between atoms: N_7  and  C_19
REMARK    7  A    between atoms: N_7  and  C_21
REMARK    8  A    between atoms: N_7  and  C_22
REMARK    9  A    between atoms: C_11  and  C_13
REMARK   10  A    between atoms: C_12  and  C_14
REMARK   11  A    between atoms: C_14  and  C_15
REMARK   12  A    between atoms: C_16  and  C_18
REMARK   13  A    between atoms: C_17  and  C_19
REMARK                            x       y       z     vdW  Elec       q    Type
REMARK                         _______ _______ _______ _____ _____    ______ ____
ROOT
ATOM      1  O   UNL     1      11.270   8.679  20.233  0.00  0.00    -0.366 OA
ATOM      9  C   UNL     1      10.781   7.620  22.306  0.00  0.00    +0.175 C 
ATOM     10  C   UNL     1      11.787   6.787  21.541  0.00  0.00    +0.175 C 
ATOM     11  C   UNL     1      10.876   8.965  21.594  0.00  0.00    +0.163 C 
ATOM     12  C   UNL     1      11.571   7.277  20.120  0.00  0.00    +0.158 C 
ENDROOT
BRANCH   9   2
ATOM      2  O   UNL     1       9.462   7.108  22.110  0.00  0.00    -0.387 OA
ATOM     26  H   UNL     1       9.247   6.559  22.883  0.00  0.00    +0.210 HD
ENDBRANCH   9   2
BRANCH  10   3
ATOM      3  O   UNL     1      11.569   5.397  21.662  0.00  0.00    -0.387 OA
ATOM     27  H   UNL     1      10.881   5.267  22.336  0.00  0.00    +0.210 HD
ENDBRANCH  10   3
BRANCH  11  13
ATOM     13  C   UNL     1      11.927   9.886  22.200  0.00  0.00    +0.115 C 
BRANCH  13   5
ATOM      5  N   UNL     1      12.999  10.153  21.251  0.00  0.00    -0.308 NA
ATOM     28  H   UNL     1      12.928   9.499  20.472  0.00  0.00    +0.122 HD
BRANCH   5  16
ATOM     16  C   UNL     1      14.302  10.026  21.888  0.00  0.00    +0.136 C 
BRANCH  16  18
ATOM      8  N   UNL     1      15.741   8.986  20.224  0.00  0.00    -0.259 NA
ATOM     18  C   UNL     1      15.060   8.827  21.381  0.00  0.00    +0.055 A 
ATOM     20  C   UNL     1      15.025   7.647  22.105  0.00  0.00    +0.024 A 
ATOM     23  C   UNL     1      15.736   6.559  21.611  0.00  0.00    +0.003 A 
ATOM     24  C   UNL     1      16.420   7.908  19.774  0.00  0.00    +0.111 A 
ATOM     25  C   UNL     1      16.450   6.683  20.423  0.00  0.00    +0.020 A 
ENDBRANCH  16  18
ENDBRANCH   5  16
ENDBRANCH  13   5
ENDBRANCH  11  13
BRANCH  12  14
ATOM     14  C   UNL     1      12.782   7.083  19.225  0.00  0.00    +0.130 C 
BRANCH  14  15
ATOM      4  O   UNL     1      12.264   7.667  16.936  0.00  0.00    -0.276 OA
ATOM      6  N   UNL     1      13.368   9.211  18.276  0.00  0.00    -0.314 N 
ATOM     15  C   UNL     1      12.761   7.992  18.010  0.00  0.00    +0.216 C 
ATOM     29  H   UNL     1      13.743   9.386  19.204  0.00  0.00    +0.149 HD
BRANCH   6  17
ATOM     17  C   UNL     1      13.488  10.263  17.294  0.00  0.00    +0.119 C 
BRANCH  17  19
ATOM     19  C   UNL     1      14.758  11.074  17.505  0.00  0.00    +0.102 C 
BRANCH  19   7
ATOM      7  N   UNL     1      15.191  11.674  16.250  0.00  0.00    -0.307 NA
ATOM     21  C   UNL     1      15.276  13.131  16.376  0.00  0.00    +0.104 C 
ATOM     22  C   UNL     1      14.280  11.312  15.163  0.00  0.00    +0.104 C 
ENDBRANCH  19   7
ENDBRANCH  17  19
ENDBRANCH   6  17
ENDBRANCH  14  15
ENDBRANCH  12  14
TORSDOF 11
ENDMDL
MODEL 3
REMARK VINA RESULT:      -5.9      3.799      7.176
REMARK  Name = 40778264
REMARK  13 active torsions:
REMARK  status: ('A' for Active; 'I' for Inactive)
REMARK    1  A    between atoms: O_2  and  C_9
REMARK    2  A    between atoms: O_3  and  C_10
REMARK    3  A    between atoms: N_5  and  C_13
REMARK    4  A    between atoms: N_5  and  C_16
REMARK    5  A    between atoms: N_6  and  C_17
REMARK    6  A    between atoms: N_7  and  C_19
REMARK    7  A    between atoms: N_7  and  C_21
REMARK    8  A    between atoms: N_7  and  C_22
REMARK    9  A    between atoms: C_11  and  C_13
REMARK   10  A    between atoms: C_12  and  C_14
REMARK   11  A    between atoms: C_14  and  C_15
REMARK   12  A    between atoms: C_16  and  C_18
REMARK   13  A    between atoms: C_17  and  C_19
REMARK                            x       y       z     vdW  Elec       q    Type
REMARK                         _______ _______ _______ _____ _____    ______ ____
ROOT
ATOM      1  O   UNL     1      12.856   8.641  21.787  0.00  0.00    -0.366 OA
ATOM      9  C   UNL     1      11.884   6.711  20.794  0.00  0.00    +0.175 C 
ATOM     10  C   UNL     1      10.787   7.651  21.246  0.00  0.00    +0.175 C 
ATOM     11  C   UNL     1      13.103   7.627  20.787  0.00  0.00    +0.163 C 
ATOM     12  C   UNL     1      11.514   8.493  22.281  0.00  0.00    +0.158 C 
ENDROOT
BRANCH   9   2
ATOM      2  O   UNL     1      12.101   5.694  21.772  0.00  0.00    -0.387 OA
ATOM     26  H   UNL     1      11.229   5.347  22.027  0.00  0.00    +0.210 HD
ENDBRANCH   9   2
BRANCH  10   3
ATOM      3  O   UNL     1       9.670   6.983  21.796  0.00  0.00    -0.387 OA
ATOM     27  H   UNL     1       8.876   7.480  21.534  0.00  0.00    +0.210 HD
ENDBRANCH  10   3
BRANCH  11  13
ATOM     13  C   UNL     1      13.313   8.330  19.452  0.00  0.00    +0.115 C 
BRANCH  13   5
ATOM      5  N   UNL     1      14.707   8.262  19.038  0.00  0.00    -0.308 NA
ATOM     28  H   UNL     1      14.768   8.441  18.035  0.00  0.00    +0.122 HD
BRANCH   5  16
ATOM     16  C   UNL     1      15.278   6.958  19.344  0.00  0.00    +0.136 C 
BRANCH  16  18
ATOM      8  N   UNL     1      16.834   8.129  20.803  0.00  0.00    -0.259 NA
ATOM     18  C   UNL     1      16.639   7.077  19.977  0.00  0.00    +0.055 A 
ATOM     20  C   UNL     1      17.605   6.125  19.691  0.00  0.00    +0.024 A 
ATOM     23  C   UNL     1      18.851   6.262  20.292  0.00  0.00    +0.003 A 
ATOM     24  C   UNL     1      18.058   8.230  21.368  0.00  0.00    +0.111 A 
ATOM     25  C   UNL     1      19.091   7.332  21.148  0.00  0.00    +0.020 A 
ENDBRANCH  16  18
ENDBRANCH   5  16
ENDBRANCH  13   5
ENDBRANCH  11  13
BRANCH  12  14
ATOM     14  C   UNL     1      10.890   9.861  22.490  0.00  0.00    +0.130 C 
BRANCH  14  15
ATOM      4  O   UNL     1      10.967  10.841  24.699  0.00  0.00    -0.276 OA
ATOM      6  N   UNL     1      12.816  11.042  23.306  0.00  0.00    -0.314 N 
ATOM     15  C   UNL     1      11.533  10.627  23.632  0.00  0.00    +0.216 C 
ATOM     29  H   UNL     1      13.198  10.806  22.395  0.00  0.00    +0.149 HD
BRANCH   6  17
ATOM     17  C   UNL     1      13.654  11.793  24.212  0.00  0.00    +0.119 C 
BRANCH  17  19
ATOM     19  C   UNL     1      15.127  11.476  23.993  0.00  0.00    +0.102 C 
BRANCH  19   7
ATOM      7  N   UNL     1      15.822  12.639  23.461  0.00  0.00    -0.307 NA
ATOM     21  C   UNL     1      15.135  13.873  23.849  0.00  0.00    +0.104 C 
ATOM     22  C   UNL     1      15.927  12.556  22.002  0.00  0.00    +0.104 C 
ENDBRANCH  19   7
ENDBRANCH  17  19
ENDBRANCH   6  17
ENDBRANCH  14  15
ENDBRANCH  12  14
TORSDOF 11
ENDMDL
MODEL 4
REMARK VINA RESULT:      -5.9      2.127      2.356
REMARK  Name = 40778264
REMARK  13 active torsions:
REMARK  status: ('A' for Active; 'I' for Inactive)
REMARK    1  A    between atoms: O_2  and  C_9
REMARK    2  A    between atoms: O_3  and  C_10
REMARK    3  A    between atoms: N_5  and  C_13
REMARK    4  A    between atoms: N_5  and  C_16
REMARK    5  A    between atoms: N_6  and  C_17
REMARK    6  A    between atoms: N_7  and  C_19
REMARK    7  A    between atoms: N_7  and  C_21
REMARK    8  A    between atoms: N_7  and  C_22
REMARK    9  A    between atoms: C_11  and  C_13
REMARK   10  A    between atoms: C_12  and  C_14
REMARK   11  A    between atoms: C_14  and  C_15
REMARK   12  A    between atoms: C_16  and  C_18
REMARK   13  A    between atoms: C_17  and  C_19
REMARK                            x       y       z     vdW  Elec       q    Type
REMARK                         _______ _______ _______ _____ _____    ______ ____
ROOT
ATOM      1  O   UNL     1      11.367   7.662  19.486  0.00  0.00    -0.366 OA
ATOM      9  C   UNL     1      12.160   6.896  21.593  0.00  0.00    +0.175 C 
ATOM     10  C   UNL     1      13.334   7.118  20.664  0.00  0.00    +0.175 C 
ATOM     11  C   UNL     1      11.053   7.679  20.897  0.00  0.00    +0.163 C 
ATOM     12  C   UNL     1      12.661   7.063  19.304  0.00  0.00    +0.158 C 
ENDROOT
BRANCH   9   2
ATOM      2  O   UNL     1      11.788   5.517  21.603  0.00  0.00    -0.387 OA
ATOM     26  H   UNL     1      12.552   5.009  21.281  0.00  0.00    +0.210 HD
ENDBRANCH   9   2
BRANCH  10   3
ATOM      3  O   UNL     1      14.344   6.139  20.796  0.00  0.00    -0.387 OA
ATOM     27  H   UNL     1      13.999   5.441  21.378  0.00  0.00    +0.210 HD
ENDBRANCH  10   3
BRANCH  11  13
ATOM     13  C   UNL     1      10.982   9.134  21.341  0.00  0.00    +0.115 C 
BRANCH  13   5
ATOM      5  N   UNL     1      11.495   9.294  22.694  0.00  0.00    -0.308 NA
ATOM     28  H   UNL     1      10.712   9.359  23.345  0.00  0.00    +0.122 HD
BRANCH   5  16
ATOM     16  C   UNL     1      12.326  10.485  22.799  0.00  0.00    +0.136 C 
BRANCH  16  18
ATOM      8  N   UNL     1      11.220  12.521  22.058  0.00  0.00    -0.259 NA
ATOM     18  C   UNL     1      11.511  11.714  23.103  0.00  0.00    +0.055 A 
ATOM     20  C   UNL     1      11.105  11.954  24.405  0.00  0.00    +0.024 A 
ATOM     23  C   UNL     1      10.352  13.096  24.652  0.00  0.00    +0.003 A 
ATOM     24  C   UNL     1      10.487  13.623  22.336  0.00  0.00    +0.111 A 
ATOM     25  C   UNL     1      10.033  13.953  23.603  0.00  0.00    +0.020 A 
ENDBRANCH  16  18
ENDBRANCH   5  16
ENDBRANCH  13   5
ENDBRANCH  11  13
BRANCH  12  14
ATOM     14  C   UNL     1      13.424   7.810  18.224  0.00  0.00    +0.130 C 
BRANCH  14  15
ATOM      4  O   UNL     1      15.161   9.265  19.070  0.00  0.00    -0.276 OA
ATOM      6  N   UNL     1      13.033  10.128  18.715  0.00  0.00    -0.314 N 
ATOM     15  C   UNL     1      13.993   9.127  18.717  0.00  0.00    +0.216 C 
ATOM     29  H   UNL     1      12.093   9.914  18.395  0.00  0.00    +0.149 HD
BRANCH   6  17
ATOM     17  C   UNL     1      13.305  11.482  19.139  0.00  0.00    +0.119 C 
BRANCH  17  19
ATOM     19  C   UNL     1      13.928  12.298  18.015  0.00  0.00    +0.102 C 
BRANCH  19   7
ATOM      7  N   UNL     1      15.020  13.114  18.527  0.00  0.00    -0.307 NA
ATOM     21  C   UNL     1      15.355  12.725  19.899  0.00  0.00    +0.104 C 
ATOM     22  C   UNL     1      14.673  14.536  18.475  0.00  0.00    +0.104 C 
ENDBRANCH  19   7
ENDBRANCH  17  19
ENDBRANCH   6  17
ENDBRANCH  14  15
ENDBRANCH  12  14
TORSDOF 11
ENDMDL
MODEL 5
REMARK VINA RESULT:      -5.8      3.000      5.566
REMARK  Name = 40778264
REMARK  13 active torsions:
REMARK  status: ('A' for Active; 'I' for Inactive)
REMARK    1  A    between atoms: O_2  and  C_9
REMARK    2  A    between atoms: O_3  and  C_10
REMARK    3  A    between atoms: N_5  and  C_13
REMARK    4  A    between atoms: N_5  and  C_16
REMARK    5  A    between atoms: N_6  and  C_17
REMARK    6  A    between atoms: N_7  and  C_19
REMARK    7  A    between atoms: N_7  and  C_21
REMARK    8  A    between atoms: N_7  and  C_22
REMARK    9  A    between atoms: C_11  and  C_13
REMARK   10  A    between atoms: C_12  and  C_14
REMARK   11  A    between atoms: C_14  and  C_15
REMARK   12  A    between atoms: C_16  and  C_18
REMARK   13  A    between atoms: C_17  and  C_19
REMARK                            x       y       z     vdW  Elec       q    Type
REMARK                         _______ _______ _______ _____ _____    ______ ____
ROOT
ATOM      1  O   UNL     1      12.498   9.837  20.340  0.00  0.00    -0.366 OA
ATOM      9  C   UNL     1      11.872   8.541  22.233  0.00  0.00    +0.175 C 
ATOM     10  C   UNL     1      11.357   7.875  20.975  0.00  0.00    +0.175 C 
ATOM     11  C   UNL     1      12.924   9.496  21.678  0.00  0.00    +0.163 C 
ATOM     12  C   UNL     1      11.355   9.036  19.995  0.00  0.00    +0.158 C 
ENDROOT
BRANCH   9   2
ATOM      2  O   UNL     1      10.842   9.321  22.840  0.00  0.00    -0.387 OA
ATOM     26  H   UNL     1      11.036  10.255  22.650  0.00  0.00    +0.210 HD
ENDBRANCH   9   2
BRANCH  10   3
ATOM      3  O   UNL     1      10.072   7.309  21.129  0.00  0.00    -0.387 OA
ATOM     27  H   UNL     1       9.442   8.042  21.241  0.00  0.00    +0.210 HD
ENDBRANCH  10   3
BRANCH  11  13
ATOM     13  C   UNL     1      14.308   8.867  21.581  0.00  0.00    +0.115 C 
BRANCH  13   5
ATOM      5  N   UNL     1      14.256   7.441  21.870  0.00  0.00    -0.308 NA
ATOM     28  H   UNL     1      14.971   7.212  22.560  0.00  0.00    +0.122 HD
BRANCH   5  16
ATOM     16  C   UNL     1      14.466   6.656  20.661  0.00  0.00    +0.136 C 
BRANCH  16  18
ATOM      8  N   UNL     1      16.251   5.943  19.169  0.00  0.00    -0.259 NA
ATOM     18  C   UNL     1      15.929   6.421  20.392  0.00  0.00    +0.055 A 
ATOM     20  C   UNL     1      16.854   6.698  21.385  0.00  0.00    +0.024 A 
ATOM     23  C   UNL     1      18.197   6.471  21.105  0.00  0.00    +0.003 A 
ATOM     24  C   UNL     1      17.566   5.734  18.933  0.00  0.00    +0.111 A 
ATOM     25  C   UNL     1      18.568   5.980  19.857  0.00  0.00    +0.020 A 
ENDBRANCH  16  18
ENDBRANCH   5  16
ENDBRANCH  13   5
ENDBRANCH  11  13
BRANCH  12  14
ATOM     14  C   UNL     1      11.454   8.599  18.544  0.00  0.00    +0.130 C 
BRANCH  14  15
ATOM      4  O   UNL     1      13.691   8.128  17.757  0.00  0.00    -0.276 OA
ATOM      6  N   UNL     1      12.857  10.289  17.572  0.00  0.00    -0.314 N 
ATOM     15  C   UNL     1      12.793   8.948  17.920  0.00  0.00    +0.216 C 
ATOM     29  H   UNL     1      12.052  10.885  17.742  0.00  0.00    +0.149 HD
BRANCH   6  17
ATOM     17  C   UNL     1      14.020  10.889  16.960  0.00  0.00    +0.119 C 
BRANCH  17  19
ATOM     19  C   UNL     1      13.868  10.972  15.448  0.00  0.00    +0.102 C 
BRANCH  19   7
ATOM      7  N   UNL     1      14.772  11.975  14.902  0.00  0.00    -0.307 NA
ATOM     21  C   UNL     1      14.475  12.223  13.490  0.00  0.00    +0.104 C 
ATOM     22  C   UNL     1      16.166  11.555  15.060  0.00  0.00    +0.104 C 
ENDBRANCH  19   7
ENDBRANCH  17  19
ENDBRANCH   6  17
ENDBRANCH  14  15
ENDBRANCH  12  14
TORSDOF 11
ENDMDL
MODEL 6
REMARK VINA RESULT:      -5.8     26.668     28.325
REMARK  Name = 40778264
REMARK  13 active torsions:
REMARK  status: ('A' for Active; 'I' for Inactive)
REMARK    1  A    between atoms: O_2  and  C_9
REMARK    2  A    between atoms: O_3  and  C_10
REMARK    3  A    between atoms: N_5  and  C_13
REMARK    4  A    between atoms: N_5  and  C_16
REMARK    5  A    between atoms: N_6  and  C_17
REMARK    6  A    between atoms: N_7  and  C_19
REMARK    7  A    between atoms: N_7  and  C_21
REMARK    8  A    between atoms: N_7  and  C_22
REMARK    9  A    between atoms: C_11  and  C_13
REMARK   10  A    between atoms: C_12  and  C_14
REMARK   11  A    between atoms: C_14  and  C_15
REMARK   12  A    between atoms: C_16  and  C_18
REMARK   13  A    between atoms: C_17  and  C_19
REMARK                            x       y       z     vdW  Elec       q    Type
REMARK                         _______ _______ _______ _____ _____    ______ ____
ROOT
ATOM      1  O   UNL     1      -5.221  -9.812  17.164  0.00  0.00    -0.366 OA
ATOM      9  C   UNL     1      -4.052 -11.776  16.509  0.00  0.00    +0.175 C 
ATOM     10  C   UNL     1      -4.865 -12.066  17.752  0.00  0.00    +0.175 C 
ATOM     11  C   UNL     1      -4.696 -10.491  16.002  0.00  0.00    +0.163 C 
ATOM     12  C   UNL     1      -5.078 -10.669  18.310  0.00  0.00    +0.158 C 
ENDROOT
BRANCH   9   2
ATOM      2  O   UNL     1      -2.699 -11.485  16.858  0.00  0.00    -0.387 OA
ATOM     26  H   UNL     1      -2.146 -12.200  16.498  0.00  0.00    +0.210 HD
ENDBRANCH   9   2
BRANCH  10   3
ATOM      3  O   UNL     1      -4.201 -12.908  18.671  0.00  0.00    -0.387 OA
ATOM     27  H   UNL     1      -4.609 -12.768  19.543  0.00  0.00    +0.210 HD
ENDBRANCH  10   3
BRANCH  11  13
ATOM     13  C   UNL     1      -5.855 -10.742  15.045  0.00  0.00    +0.115 C 
BRANCH  13   5
ATOM      5  N   UNL     1      -6.070  -9.598  14.172  0.00  0.00    -0.308 NA
ATOM     28  H   UNL     1      -6.840  -9.036  14.537  0.00  0.00    +0.122 HD
BRANCH   5  16
ATOM     16  C   UNL     1      -6.373 -10.028  12.814  0.00  0.00    +0.136 C 
BRANCH  16  18
ATOM      8  N   UNL     1      -4.072 -10.380  12.106  0.00  0.00    -0.259 NA
ATOM     18  C   UNL     1      -5.238  -9.740  11.867  0.00  0.00    +0.055 A 
ATOM     20  C   UNL     1      -5.437  -8.855  10.820  0.00  0.00    +0.024 A 
ATOM     23  C   UNL     1      -4.370  -8.611   9.963  0.00  0.00    +0.003 A 
ATOM     24  C   UNL     1      -3.057 -10.118  11.253  0.00  0.00    +0.111 A 
ATOM     25  C   UNL     1      -3.153  -9.250  10.177  0.00  0.00    +0.020 A 
ENDBRANCH  16  18
ENDBRANCH   5  16
ENDBRANCH  13   5
ENDBRANCH  11  13
BRANCH  12  14
ATOM     14  C   UNL     1      -6.309 -10.554  19.193  0.00  0.00    +0.130 C 
BRANCH  14  15
ATOM      4  O   UNL     1      -8.252 -11.679  18.294  0.00  0.00    -0.276 OA
ATOM      6  N   UNL     1      -7.938  -9.422  17.839  0.00  0.00    -0.314 N 
ATOM     15  C   UNL     1      -7.602 -10.644  18.404  0.00  0.00    +0.216 C 
ATOM     29  H   UNL     1      -7.335  -8.620  17.997  0.00  0.00    +0.149 HD
BRANCH   6  17
ATOM     17  C   UNL     1      -9.122  -9.225  17.034  0.00  0.00    +0.119 C 
BRANCH  17  19
ATOM     19  C   UNL     1      -9.780  -7.887  17.340  0.00  0.00    +0.102 C 
BRANCH  19   7
ATOM      7  N   UNL     1     -10.136  -7.204  16.103  0.00  0.00    -0.307 NA
ATOM     21  C   UNL     1     -11.229  -6.257  16.333  0.00  0.00    +0.104 C 
ATOM     22  C   UNL     1     -10.513  -8.170  15.069  0.00  0.00    +0.104 C 
ENDBRANCH  19   7
ENDBRANCH  17  19
ENDBRANCH   6  17
ENDBRANCH  14  15
ENDBRANCH  12  14
TORSDOF 11
ENDMDL
MODEL 7
REMARK VINA RESULT:      -5.7     25.691     28.461
REMARK  Name = 40778264
REMARK  13 active torsions:
REMARK  status: ('A' for Active; 'I' for Inactive)
REMARK    1  A    between atoms: O_2  and  C_9
REMARK    2  A    between atoms: O_3  and  C_10
REMARK    3  A    between atoms: N_5  and  C_13
REMARK    4  A    between atoms: N_5  and  C_16
REMARK    5  A    between atoms: N_6  and  C_17
REMARK    6  A    between atoms: N_7  and  C_19
REMARK    7  A    between atoms: N_7  and  C_21
REMARK    8  A    between atoms: N_7  and  C_22
REMARK    9  A    between atoms: C_11  and  C_13
REMARK   10  A    between atoms: C_12  and  C_14
REMARK   11  A    between atoms: C_14  and  C_15
REMARK   12  A    between atoms: C_16  and  C_18
REMARK   13  A    between atoms: C_17  and  C_19
REMARK                            x       y       z     vdW  Elec       q    Type
REMARK                         _______ _______ _______ _____ _____    ______ ____
ROOT
ATOM      1  O   UNL     1      -6.205 -10.188  17.397  0.00  0.00    -0.366 OA
ATOM      9  C   UNL     1      -6.704 -11.195  19.493  0.00  0.00    +0.175 C 
ATOM     10  C   UNL     1      -7.993 -10.786  18.812  0.00  0.00    +0.175 C 
ATOM     11  C   UNL     1      -5.712 -11.171  18.335  0.00  0.00    +0.163 C 
ATOM     12  C   UNL     1      -7.499  -9.736  17.832  0.00  0.00    +0.158 C 
ENDROOT
BRANCH   9   2
ATOM      2  O   UNL     1      -6.305 -10.203  20.438  0.00  0.00    -0.387 OA
ATOM     26  H   UNL     1      -7.113  -9.771  20.764  0.00  0.00    +0.210 HD
ENDBRANCH   9   2
BRANCH  10   3
ATOM      3  O   UNL     1      -8.956 -10.267  19.705  0.00  0.00    -0.387 OA
ATOM     27  H   UNL     1      -9.830 -10.557  19.391  0.00  0.00    +0.210 HD
ENDBRANCH  10   3
BRANCH  11  13
ATOM     13  C   UNL     1      -5.616 -12.505  17.605  0.00  0.00    +0.115 C 
BRANCH  13   5
ATOM      5  N   UNL     1      -4.274 -12.721  17.084  0.00  0.00    -0.308 NA
ATOM     28  H   UNL     1      -3.630 -12.071  17.536  0.00  0.00    +0.122 HD
BRANCH   5  16
ATOM     16  C   UNL     1      -4.237 -12.530  15.641  0.00  0.00    +0.136 C 
BRANCH  16  18
ATOM      8  N   UNL     1      -3.090 -11.255  13.915  0.00  0.00    -0.259 NA
ATOM     18  C   UNL     1      -3.159 -11.563  15.229  0.00  0.00    +0.055 A 
ATOM     20  C   UNL     1      -2.307 -11.047  16.193  0.00  0.00    +0.024 A 
ATOM     23  C   UNL     1      -1.323 -10.156  15.781  0.00  0.00    +0.003 A 
ATOM     24  C   UNL     1      -2.121 -10.386  13.551  0.00  0.00    +0.111 A 
ATOM     25  C   UNL     1      -1.220  -9.814  14.436  0.00  0.00    +0.020 A 
ENDBRANCH  16  18
ENDBRANCH   5  16
ENDBRANCH  13   5
ENDBRANCH  11  13
BRANCH  12  14
ATOM     14  C   UNL     1      -8.410  -9.557  16.630  0.00  0.00    +0.130 C 
BRANCH  14  15
ATOM      4  O   UNL     1     -10.110  -8.350  17.855  0.00  0.00    -0.276 OA
ATOM      6  N   UNL     1      -9.507  -7.618  15.734  0.00  0.00    -0.314 N 
ATOM     15  C   UNL     1      -9.437  -8.459  16.835  0.00  0.00    +0.216 C 
ATOM     29  H   UNL     1      -8.898  -7.789  14.938  0.00  0.00    +0.149 HD
BRANCH   6  17
ATOM     17  C   UNL     1     -10.404  -6.488  15.662  0.00  0.00    +0.119 C 
BRANCH  17  19
ATOM     19  C   UNL     1     -11.574  -6.770  14.730  0.00  0.00    +0.102 C 
BRANCH  19   7
ATOM      7  N   UNL     1     -12.651  -5.819  14.966  0.00  0.00    -0.307 NA
ATOM     21  C   UNL     1     -13.845  -6.504  15.468  0.00  0.00    +0.104 C 
ATOM     22  C   UNL     1     -12.968  -5.082  13.741  0.00  0.00    +0.104 C 
ENDBRANCH  19   7
ENDBRANCH  17  19
ENDBRANCH   6  17
ENDBRANCH  14  15
ENDBRANCH  12  14
TORSDOF 11
ENDMDL
MODEL 8
REMARK VINA RESULT:      -5.7     14.291     17.742
REMARK  Name = 40778264
REMARK  13 active torsions:
REMARK  status: ('A' for Active; 'I' for Inactive)
REMARK    1  A    between atoms: O_2  and  C_9
REMARK    2  A    between atoms: O_3  and  C_10
REMARK    3  A    between atoms: N_5  and  C_13
REMARK    4  A    between atoms: N_5  and  C_16
REMARK    5  A    between atoms: N_6  and  C_17
REMARK    6  A    between atoms: N_7  and  C_19
REMARK    7  A    between atoms: N_7  and  C_21
REMARK    8  A    between atoms: N_7  and  C_22
REMARK    9  A    between atoms: C_11  and  C_13
REMARK   10  A    between atoms: C_12  and  C_14
REMARK   11  A    between atoms: C_14  and  C_15
REMARK   12  A    between atoms: C_16  and  C_18
REMARK   13  A    between atoms: C_17  and  C_19
REMARK                            x       y       z     vdW  Elec       q    Type
REMARK                         _______ _______ _______ _____ _____    ______ ____
ROOT
ATOM      1  O   UNL     1      -2.454   0.233  25.218  0.00  0.00    -0.366 OA
ATOM      9  C   UNL     1      -1.519  -1.798  24.407  0.00  0.00    +0.175 C 
ATOM     10  C   UNL     1      -2.982  -1.731  24.026  0.00  0.00    +0.175 C 
ATOM     11  C   UNL     1      -1.214  -0.344  24.751  0.00  0.00    +0.163 C 
ATOM     12  C   UNL     1      -3.513  -0.722  25.030  0.00  0.00    +0.158 C 
ENDROOT
BRANCH   9   2
ATOM      2  O   UNL     1      -1.350  -2.578  25.590  0.00  0.00    -0.387 OA
ATOM     26  H   UNL     1      -1.173  -3.493  25.312  0.00  0.00    +0.210 HD
ENDBRANCH   9   2
BRANCH  10   3
ATOM      3  O   UNL     1      -3.643  -2.975  24.124  0.00  0.00    -0.387 OA
ATOM     27  H   UNL     1      -3.486  -3.455  23.293  0.00  0.00    +0.210 HD
ENDBRANCH  10   3
BRANCH  11  13
ATOM     13  C   UNL     1      -0.745   0.467  23.550  0.00  0.00    +0.115 C 
BRANCH  13   5
ATOM      5  N   UNL     1       0.684   0.735  23.625  0.00  0.00    -0.308 NA
ATOM     28  H   UNL     1       0.856   1.710  23.380  0.00  0.00    +0.122 HD
BRANCH   5  16
ATOM     16  C   UNL     1       1.425  -0.139  22.726  0.00  0.00    +0.136 C 
BRANCH  16  18
ATOM      8  N   UNL     1       3.378  -1.328  23.559  0.00  0.00    -0.259 NA
ATOM     18  C   UNL     1       2.894  -0.170  23.059  0.00  0.00    +0.055 A 
ATOM     20  C   UNL     1       3.662   0.962  22.840  0.00  0.00    +0.024 A 
ATOM     23  C   UNL     1       5.015   0.902  23.156  0.00  0.00    +0.003 A 
ATOM     24  C   UNL     1       4.697  -1.350  23.855  0.00  0.00    +0.111 A 
ATOM     25  C   UNL     1       5.550  -0.273  23.674  0.00  0.00    +0.020 A 
ENDBRANCH  16  18
ENDBRANCH   5  16
ENDBRANCH  13   5
ENDBRANCH  11  13
BRANCH  12  14
ATOM     14  C   UNL     1      -4.769  -0.009  24.562  0.00  0.00    +0.130 C 
BRANCH  14  15
ATOM      4  O   UNL     1      -5.544   1.797  25.971  0.00  0.00    -0.276 OA
ATOM      6  N   UNL     1      -4.005   2.251  24.291  0.00  0.00    -0.314 N 
ATOM     15  C   UNL     1      -4.835   1.430  25.039  0.00  0.00    +0.216 C 
ATOM     29  H   UNL     1      -3.450   1.847  23.542  0.00  0.00    +0.149 HD
BRANCH   6  17
ATOM     17  C   UNL     1      -3.876   3.670  24.531  0.00  0.00    +0.119 C 
BRANCH  17  19
ATOM     19  C   UNL     1      -2.877   3.954  25.644  0.00  0.00    +0.102 C 
BRANCH  19   7
ATOM      7  N   UNL     1      -1.516   3.759  25.164  0.00  0.00    -0.307 NA
ATOM     21  C   UNL     1      -0.723   3.020  26.148  0.00  0.00    +0.104 C 
ATOM     22  C   UNL     1      -0.883   5.046  24.868  0.00  0.00    +0.104 C 
ENDBRANCH  19   7
ENDBRANCH  17  19
ENDBRANCH   6  17
ENDBRANCH  14  15
ENDBRANCH  12  14
TORSDOF 11
ENDMDL
MODEL 9
REMARK VINA RESULT:      -5.6     13.779     17.113
REMARK  Name = 40778264
REMARK  13 active torsions:
REMARK  status: ('A' for Active; 'I' for Inactive)
REMARK    1  A    between atoms: O_2  and  C_9
REMARK    2  A    between atoms: O_3  and  C_10
REMARK    3  A    between atoms: N_5  and  C_13
REMARK    4  A    between atoms: N_5  and  C_16
REMARK    5  A    between atoms: N_6  and  C_17
REMARK    6  A    between atoms: N_7  and  C_19
REMARK    7  A    between atoms: N_7  and  C_21
REMARK    8  A    between atoms: N_7  and  C_22
REMARK    9  A    between atoms: C_11  and  C_13
REMARK   10  A    between atoms: C_12  and  C_14
REMARK   11  A    between atoms: C_14  and  C_15
REMARK   12  A    between atoms: C_16  and  C_18
REMARK   13  A    between atoms: C_17  and  C_19
REMARK                            x       y       z     vdW  Elec       q    Type
REMARK                         _______ _______ _______ _____ _____    ______ ____
ROOT
ATOM      1  O   UNL     1       9.626   6.396   4.174  0.00  0.00    -0.366 OA
ATOM      9  C   UNL     1       8.675   8.490   4.780  0.00  0.00    +0.175 C 
ATOM     10  C   UNL     1       8.840   7.636   6.018  0.00  0.00    +0.175 C 
ATOM     11  C   UNL     1       9.593   7.788   3.786  0.00  0.00    +0.163 C 
ATOM     12  C   UNL     1       8.922   6.243   5.419  0.00  0.00    +0.158 C 
ENDROOT
BRANCH   9   2
ATOM      2  O   UNL     1       7.337   8.398   4.288  0.00  0.00    -0.387 OA
ATOM     26  H   UNL     1       7.383   8.430   3.317  0.00  0.00    +0.210 HD
ENDBRANCH   9   2
BRANCH  10   3
ATOM      3  O   UNL     1       7.767   7.758   6.929  0.00  0.00    -0.387 OA
ATOM     27  H   UNL     1       6.959   7.480   6.466  0.00  0.00    +0.210 HD
ENDBRANCH  10   3
BRANCH  11  13
ATOM     13  C   UNL     1      11.022   8.316   3.819  0.00  0.00    +0.115 C 
BRANCH  13   5
ATOM      5  N   UNL     1      11.982   7.223   3.887  0.00  0.00    -0.308 NA
ATOM     28  H   UNL     1      12.606   7.373   4.679  0.00  0.00    +0.122 HD
BRANCH   5  16
ATOM     16  C   UNL     1      12.756   7.134   2.657  0.00  0.00    +0.136 C 
BRANCH  16  18
ATOM      8  N   UNL     1      11.901   4.877   2.349  0.00  0.00    -0.259 NA
ATOM     18  C   UNL     1      12.962   5.706   2.226  0.00  0.00    +0.055 A 
ATOM     20  C   UNL     1      14.197   5.317   1.734  0.00  0.00    +0.024 A 
ATOM     23  C   UNL     1      14.354   3.992   1.343  0.00  0.00    +0.003 A 
ATOM     24  C   UNL     1      12.091   3.596   1.960  0.00  0.00    +0.111 A 
ATOM     25  C   UNL     1      13.285   3.108   1.455  0.00  0.00    +0.020 A 
ENDBRANCH  16  18
ENDBRANCH   5  16
ENDBRANCH  13   5
ENDBRANCH  11  13
BRANCH  12  14
ATOM     14  C   UNL     1       9.655   5.249   6.303  0.00  0.00    +0.130 C 
BRANCH  14  15
ATOM      4  O   UNL     1      10.425   6.271   8.355  0.00  0.00    -0.276 OA
ATOM      6  N   UNL     1      11.899   6.064   6.570  0.00  0.00    -0.314 N 
ATOM     15  C   UNL     1      10.676   5.915   7.207  0.00  0.00    +0.216 C 
ATOM     29  H   UNL     1      12.007   5.728   5.617  0.00  0.00    +0.149 HD
BRANCH   6  17
ATOM     17  C   UNL     1      13.048   6.670   7.202  0.00  0.00    +0.119 C 
BRANCH  17  19
ATOM     19  C   UNL     1      13.026   8.185   7.052  0.00  0.00    +0.102 C 
BRANCH  19   7
ATOM      7  N   UNL     1      14.018   8.611   6.075  0.00  0.00    -0.307 NA
ATOM     21  C   UNL     1      15.091   7.620   5.963  0.00  0.00    +0.104 C 
ATOM     22  C   UNL     1      14.572   9.917   6.436  0.00  0.00    +0.104 C 
ENDBRANCH  19   7
ENDBRANCH  17  19
ENDBRANCH   6  17
ENDBRANCH  14  15
ENDBRANCH  12  14
TORSDOF 11
ENDMDL
MODEL 10
REMARK VINA RESULT:      -5.6     27.805     29.340
REMARK  Name = 40778264
REMARK  13 active torsions:
REMARK  status: ('A' for Active; 'I' for Inactive)
REMARK    1  A    between atoms: O_2  and  C_9
REMARK    2  A    between atoms: O_3  and  C_10
REMARK    3  A    between atoms: N_5  and  C_13
REMARK    4  A    between atoms: N_5  and  C_16
REMARK    5  A    between atoms: N_6  and  C_17
REMARK    6  A    between atoms: N_7  and  C_19
REMARK    7  A    between atoms: N_7  and  C_21
REMARK    8  A    between atoms: N_7  and  C_22
REMARK    9  A    between atoms: C_11  and  C_13
REMARK   10  A    between atoms: C_12  and  C_14
REMARK   11  A    between atoms: C_14  and  C_15
REMARK   12  A    between atoms: C_16  and  C_18
REMARK   13  A    between atoms: C_17  and  C_19
REMARK                            x       y       z     vdW  Elec       q    Type
REMARK                         _______ _______ _______ _____ _____    ______ ____
ROOT
ATOM      1  O   UNL     1     -11.968  -8.554  15.774  0.00  0.00    -0.366 OA
ATOM      9  C   UNL     1      -9.680  -8.070  16.203  0.00  0.00    +0.175 C 
ATOM     10  C   UNL     1     -10.457  -6.775  16.098  0.00  0.00    +0.175 C 
ATOM     11  C   UNL     1     -10.792  -9.090  16.420  0.00  0.00    +0.163 C 
ATOM     12  C   UNL     1     -11.685  -7.219  15.322  0.00  0.00    +0.158 C 
ENDROOT
BRANCH   9   2
ATOM      2  O   UNL     1      -9.042  -8.368  14.961  0.00  0.00    -0.387 OA
ATOM     26  H   UNL     1      -8.148  -8.691  15.164  0.00  0.00    +0.210 HD
ENDBRANCH   9   2
BRANCH  10   3
ATOM      3  O   UNL     1      -9.749  -5.751  15.430  0.00  0.00    -0.387 OA
ATOM     27  H   UNL     1      -9.644  -5.014  16.056  0.00  0.00    +0.210 HD
ENDBRANCH  10   3
BRANCH  11  13
ATOM     13  C   UNL     1     -11.125  -9.305  17.891  0.00  0.00    +0.115 C 
BRANCH  13   5
ATOM      5  N   UNL     1      -9.916  -9.333  18.702  0.00  0.00    -0.308 NA
ATOM     28  H   UNL     1      -9.200  -8.759  18.258  0.00  0.00    +0.122 HD
BRANCH   5  16
ATOM     16  C   UNL     1      -9.428 -10.696  18.862  0.00  0.00    +0.136 C 
BRANCH  16  18
ATOM      8  N   UNL     1      -7.294 -11.188  19.923  0.00  0.00    -0.259 NA
ATOM     18  C   UNL     1      -7.925 -10.764  18.805  0.00  0.00    +0.055 A 
ATOM     20  C   UNL     1      -7.274 -10.400  17.638  0.00  0.00    +0.024 A 
ATOM     23  C   UNL     1      -5.886 -10.475  17.616  0.00  0.00    +0.003 A 
ATOM     24  C   UNL     1      -5.945 -11.248  19.865  0.00  0.00    +0.111 A 
ATOM     25  C   UNL     1      -5.200 -10.906  18.748  0.00  0.00    +0.020 A 
ENDBRANCH  16  18
ENDBRANCH   5  16
ENDBRANCH  13   5
ENDBRANCH  11  13
BRANCH  12  14
ATOM     14  C   UNL     1     -12.896  -6.332  15.553  0.00  0.00    +0.130 C 
BRANCH  14  15
ATOM      4  O   UNL     1     -14.419  -5.597  13.825  0.00  0.00    -0.276 OA
ATOM      6  N   UNL     1     -12.234  -4.808  13.819  0.00  0.00    -0.314 N 
ATOM     15  C   UNL     1     -13.294  -5.554  14.312  0.00  0.00    +0.216 C 
ATOM     29  H   UNL     1     -11.340  -4.834  14.302  0.00  0.00    +0.149 HD
BRANCH   6  17
ATOM     17  C   UNL     1     -12.336  -3.974  12.643  0.00  0.00    +0.119 C 
BRANCH  17  19
ATOM     19  C   UNL     1     -12.049  -4.768  11.377  0.00  0.00    +0.102 C 
BRANCH  19   7
ATOM      7  N   UNL     1     -11.851  -3.868  10.249  0.00  0.00    -0.307 NA
ATOM     21  C   UNL     1     -13.132  -3.545   9.616  0.00  0.00    +0.104 C 
ATOM     22  C   UNL     1     -10.937  -4.459   9.269  0.00  0.00    +0.104 C 
ENDBRANCH  19   7
ENDBRANCH  17  19
ENDBRANCH   6  17
ENDBRANCH  14  15
ENDBRANCH  12  14
TORSDOF 11
ENDMDL
