MODEL 1
REMARK VINA RESULT:      -7.0      0.000      0.000
REMARK  Name = 7662775
REMARK  6 active torsions:
REMARK  status: ('A' for Active; 'I' for Inactive)
REMARK    1  A    between atoms: O_3  and  C_29
REMARK    2  A    between atoms: N_4  and  C_14
REMARK    3  A    between atoms: C_14  and  C_19
REMARK    4  A    between atoms: C_15  and  C_20
REMARK    5  A    between atoms: C_24  and  C_29
REMARK    6  A    between atoms: C_26  and  C_30
REMARK                            x       y       z     vdW  Elec       q    Type
REMARK                         _______ _______ _______ _____ _____    ______ ____
ROOT
ATOM      1  O   UNL     1      -3.711 -12.546  19.296  0.00  0.00    -0.268 OA
ATOM      4  N   UNL     1      -5.784 -11.721  14.837  0.00  0.00    -0.294 NA
ATOM      5  N   UNL     1      -5.610 -12.444  17.930  0.00  0.00    -0.311 N 
ATOM      7  C   UNL     1      -5.896 -13.984  15.898  0.00  0.00    +0.024 C 
ATOM      8  C   UNL     1      -7.618 -12.328  16.425  0.00  0.00    +0.051 C 
ATOM      9  C   UNL     1      -7.381 -13.814  16.169  0.00  0.00    +0.017 C 
ATOM     10  C   UNL     1      -5.476 -13.147  14.673  0.00  0.00    +0.090 C 
ATOM     11  C   UNL     1      -7.199 -11.518  15.175  0.00  0.00    +0.094 C 
ATOM     12  C   UNL     1      -5.124 -13.598  17.163  0.00  0.00    +0.130 C 
ATOM     13  C   UNL     1      -6.859 -11.848  17.665  0.00  0.00    +0.034 A 
ATOM     15  C   UNL     1      -7.333 -10.874  18.486  0.00  0.00    +0.002 A 
ATOM     16  C   UNL     1      -4.801 -12.050  19.011  0.00  0.00    +0.252 A 
ATOM     17  C   UNL     1      -6.524 -10.439  19.609  0.00  0.00    +0.015 A 
ATOM     18  C   UNL     1      -5.327 -10.965  19.869  0.00  0.00    +0.071 A 
ENDROOT
BRANCH  15  20
ATOM     20  C   UNL     1      -8.647 -10.235  18.259  0.00  0.00    -0.015 A 
ATOM     22  C   UNL     1      -8.745  -9.136  17.412  0.00  0.00    +0.027 A 
ATOM     23  C   UNL     1      -9.778 -10.738  18.896  0.00  0.00    +0.008 A 
ATOM     26  C   UNL     1      -9.985  -8.532  17.200  0.00  0.00    +0.052 A 
ATOM     27  C   UNL     1     -11.018 -10.135  18.683  0.00  0.00    +0.002 A 
ATOM     28  C   UNL     1     -11.121  -9.032  17.836  0.00  0.00    +0.019 A 
BRANCH  26  30
ATOM      6  N   UNL     1     -10.177  -6.485  15.624  0.00  0.00    -0.191 NA
ATOM     30  C   UNL     1     -10.091  -7.402  16.331  0.00  0.00    +0.099 C 
ENDBRANCH  26  30
ENDBRANCH  15  20
BRANCH   4  14
ATOM     14  C   UNL     1      -5.417 -10.966  13.641  0.00  0.00    +0.158 C 
BRANCH  14  19
ATOM      2  O   UNL     1      -3.316 -10.613  14.752  0.00  0.00    -0.461 OA
ATOM     19  C   UNL     1      -3.933 -10.726  13.564  0.00  0.00    +0.119 A 
ATOM     21  C   UNL     1      -3.089 -10.600  12.516  0.00  0.00    +0.046 A 
ATOM     24  C   UNL     1      -2.006 -10.404  14.456  0.00  0.00    +0.131 A 
ATOM     25  C   UNL     1      -1.816 -10.387  13.094  0.00  0.00    +0.047 A 
BRANCH  24  29
ATOM     29  C   UNL     1      -1.099 -10.244  15.601  0.00  0.00    +0.230 C 
BRANCH  29   3
ATOM      3  O   UNL     1      -1.590 -11.054  16.671  0.00  0.00    -0.387 OA
ATOM     31  H   UNL     1      -1.014 -10.903  17.441  0.00  0.00    +0.210 HD
ENDBRANCH  29   3
ENDBRANCH  24  29
ENDBRANCH  14  19
ENDBRANCH   4  14
TORSDOF 6
ENDMDL
MODEL 2
REMARK VINA RESULT:      -6.6     26.957     29.381
REMARK  Name = 7662775
REMARK  6 active torsions:
REMARK  status: ('A' for Active; 'I' for Inactive)
REMARK    1  A    between atoms: O_3  and  C_29
REMARK    2  A    between atoms: N_4  and  C_14
REMARK    3  A    between atoms: C_14  and  C_19
REMARK    4  A    between atoms: C_15  and  C_20
REMARK    5  A    between atoms: C_24  and  C_29
REMARK    6  A    between atoms: C_26  and  C_30
REMARK                            x       y       z     vdW  Elec       q    Type
REMARK                         _______ _______ _______ _____ _____    ______ ____
ROOT
ATOM      1  O   UNL     1      17.133   7.623  20.461  0.00  0.00    -0.268 OA
ATOM      4  N   UNL     1      13.045   8.820  17.870  0.00  0.00    -0.294 NA
ATOM      5  N   UNL     1      14.882   8.265  20.407  0.00  0.00    -0.311 N 
ATOM      7  C   UNL     1      13.082   6.788  19.328  0.00  0.00    +0.024 C 
ATOM      8  C   UNL     1      12.466   8.947  20.299  0.00  0.00    +0.051 C 
ATOM      9  C   UNL     1      12.152   7.453  20.328  0.00  0.00    +0.017 C 
ATOM     10  C   UNL     1      12.854   7.365  17.917  0.00  0.00    +0.090 C 
ATOM     11  C   UNL     1      12.215   9.497  18.875  0.00  0.00    +0.094 C 
ATOM     12  C   UNL     1      14.524   6.971  19.809  0.00  0.00    +0.130 C 
ATOM     13  C   UNL     1      13.905   9.223  20.745  0.00  0.00    +0.034 A 
ATOM     15  C   UNL     1      14.262  10.344  21.423  0.00  0.00    +0.002 A 
ATOM     16  C   UNL     1      16.242   8.433  20.720  0.00  0.00    +0.252 A 
ATOM     17  C   UNL     1      15.657  10.554  21.759  0.00  0.00    +0.015 A 
ATOM     18  C   UNL     1      16.608   9.680  21.429  0.00  0.00    +0.071 A 
ENDROOT
BRANCH  15  20
ATOM     20  C   UNL     1      13.268  11.366  21.817  0.00  0.00    -0.015 A 
ATOM     22  C   UNL     1      12.666  11.301  23.070  0.00  0.00    +0.027 A 
ATOM     23  C   UNL     1      12.941  12.388  20.930  0.00  0.00    +0.008 A 
ATOM     26  C   UNL     1      11.727  12.263  23.439  0.00  0.00    +0.052 A 
ATOM     27  C   UNL     1      12.002  13.351  21.300  0.00  0.00    +0.002 A 
ATOM     28  C   UNL     1      11.395  13.289  22.554  0.00  0.00    +0.019 A 
BRANCH  26  30
ATOM      6  N   UNL     1      10.601  12.149  25.770  0.00  0.00    -0.191 NA
ATOM     30  C   UNL     1      11.106  12.201  24.725  0.00  0.00    +0.099 C 
ENDBRANCH  26  30
ENDBRANCH  15  20
BRANCH   4  14
ATOM     14  C   UNL     1      12.774   9.339  16.531  0.00  0.00    +0.158 C 
BRANCH  14  19
ATOM      2  O   UNL     1      13.890  10.556  14.784  0.00  0.00    -0.461 OA
ATOM     19  C   UNL     1      13.796  10.362  16.111  0.00  0.00    +0.119 A 
ATOM     21  C   UNL     1      14.648  11.135  16.820  0.00  0.00    +0.046 A 
ATOM     24  C   UNL     1      14.852  11.503  14.629  0.00  0.00    +0.131 A 
ATOM     25  C   UNL     1      15.350  11.891  15.851  0.00  0.00    +0.047 A 
BRANCH  24  29
ATOM     29  C   UNL     1      15.154  11.901  13.247  0.00  0.00    +0.230 C 
BRANCH  29   3
ATOM      3  O   UNL     1      15.737  10.780  12.580  0.00  0.00    -0.387 OA
ATOM     31  H   UNL     1      16.683  10.970  12.457  0.00  0.00    +0.210 HD
ENDBRANCH  29   3
ENDBRANCH  24  29
ENDBRANCH  14  19
ENDBRANCH   4  14
TORSDOF 6
ENDMDL
MODEL 3
REMARK VINA RESULT:      -6.4     25.635     28.811
REMARK  Name = 7662775
REMARK  6 active torsions:
REMARK  status: ('A' for Active; 'I' for Inactive)
REMARK    1  A    between atoms: O_3  and  C_29
REMARK    2  A    between atoms: N_4  and  C_14
REMARK    3  A    between atoms: C_14  and  C_19
REMARK    4  A    between atoms: C_15  and  C_20
REMARK    5  A    between atoms: C_24  and  C_29
REMARK    6  A    between atoms: C_26  and  C_30
REMARK                            x       y       z     vdW  Elec       q    Type
REMARK                         _______ _______ _______ _____ _____    ______ ____
ROOT
ATOM      1  O   UNL     1       7.230   9.152   4.239  0.00  0.00    -0.268 OA
ATOM      4  N   UNL     1      11.403   7.906   6.664  0.00  0.00    -0.294 NA
ATOM      5  N   UNL     1       8.830   7.548   4.829  0.00  0.00    -0.311 N 
ATOM      7  C   UNL     1       9.214   6.859   7.271  0.00  0.00    +0.024 C 
ATOM      8  C   UNL     1      10.567   5.859   5.495  0.00  0.00    +0.051 C 
ATOM      9  C   UNL     1       9.649   5.533   6.670  0.00  0.00    +0.017 C 
ATOM     10  C   UNL     1      10.442   7.660   7.746  0.00  0.00    +0.090 C 
ATOM     11  C   UNL     1      11.794   6.652   6.006  0.00  0.00    +0.094 C 
ATOM     12  C   UNL     1       8.388   7.618   6.229  0.00  0.00    +0.130 C 
ATOM     13  C   UNL     1       9.826   6.644   4.408  0.00  0.00    +0.034 A 
ATOM     15  C   UNL     1      10.106   6.512   3.086  0.00  0.00    +0.002 A 
ATOM     16  C   UNL     1       8.118   8.358   3.927  0.00  0.00    +0.252 A 
ATOM     17  C   UNL     1       9.395   7.335   2.126  0.00  0.00    +0.015 A 
ATOM     18  C   UNL     1       8.467   8.219   2.495  0.00  0.00    +0.071 A 
ENDROOT
BRANCH  15  20
ATOM     20  C   UNL     1      11.128   5.562   2.597  0.00  0.00    -0.015 A 
ATOM     22  C   UNL     1      12.371   6.032   2.186  0.00  0.00    +0.027 A 
ATOM     23  C   UNL     1      10.838   4.201   2.550  0.00  0.00    +0.008 A 
ATOM     26  C   UNL     1      13.334   5.135   1.723  0.00  0.00    +0.052 A 
ATOM     27  C   UNL     1      11.801   3.304   2.087  0.00  0.00    +0.002 A 
ATOM     28  C   UNL     1      13.048   3.771   1.673  0.00  0.00    +0.019 A 
BRANCH  26  30
ATOM      6  N   UNL     1      15.652   6.002   0.956  0.00  0.00    -0.191 NA
ATOM     30  C   UNL     1      14.612   5.614   1.300  0.00  0.00    +0.099 C 
ENDBRANCH  26  30
ENDBRANCH  15  20
BRANCH   4  14
ATOM     14  C   UNL     1      12.576   8.624   7.160  0.00  0.00    +0.158 C 
BRANCH  14  19
ATOM      2  O   UNL     1      14.676   8.349   6.026  0.00  0.00    -0.461 OA
ATOM     19  C   UNL     1      13.508   9.012   6.043  0.00  0.00    +0.119 A 
ATOM     21  C   UNL     1      13.394   9.909   5.039  0.00  0.00    +0.046 A 
ATOM     24  C   UNL     1      15.352   8.844   4.956  0.00  0.00    +0.131 A 
ATOM     25  C   UNL     1      14.606   9.807   4.316  0.00  0.00    +0.047 A 
BRANCH  24  29
ATOM     29  C   UNL     1      16.685   8.277   4.710  0.00  0.00    +0.230 C 
BRANCH  29   3
ATOM      3  O   UNL     1      16.542   7.190   3.793  0.00  0.00    -0.387 OA
ATOM     31  H   UNL     1      15.783   7.390   3.217  0.00  0.00    +0.210 HD
ENDBRANCH  29   3
ENDBRANCH  24  29
ENDBRANCH  14  19
ENDBRANCH   4  14
TORSDOF 6
ENDMDL
MODEL 4
REMARK VINA RESULT:      -6.4      2.675      6.900
REMARK  Name = 7662775
REMARK  6 active torsions:
REMARK  status: ('A' for Active; 'I' for Inactive)
REMARK    1  A    between atoms: O_3  and  C_29
REMARK    2  A    between atoms: N_4  and  C_14
REMARK    3  A    between atoms: C_14  and  C_19
REMARK    4  A    between atoms: C_15  and  C_20
REMARK    5  A    between atoms: C_24  and  C_29
REMARK    6  A    between atoms: C_26  and  C_30
REMARK                            x       y       z     vdW  Elec       q    Type
REMARK                         _______ _______ _______ _____ _____    ______ ____
ROOT
ATOM      1  O   UNL     1      -5.715 -15.402  16.676  0.00  0.00    -0.268 OA
ATOM      4  N   UNL     1      -6.294 -10.453  16.860  0.00  0.00    -0.294 NA
ATOM      5  N   UNL     1      -4.873 -13.247  16.316  0.00  0.00    -0.311 N 
ATOM      7  C   UNL     1      -4.546 -11.586  18.244  0.00  0.00    +0.024 C 
ATOM      8  C   UNL     1      -4.010 -10.915  15.953  0.00  0.00    +0.051 C 
ATOM      9  C   UNL     1      -3.443 -11.019  17.367  0.00  0.00    +0.017 C 
ATOM     10  C   UNL     1      -5.780 -10.662  18.219  0.00  0.00    +0.090 C 
ATOM     11  C   UNL     1      -5.238  -9.973  15.959  0.00  0.00    +0.094 C 
ATOM     12  C   UNL     1      -4.867 -13.004  17.765  0.00  0.00    +0.130 C 
ATOM     13  C   UNL     1      -4.383 -12.294  15.401  0.00  0.00    +0.034 A 
ATOM     15  C   UNL     1      -4.277 -12.612  14.084  0.00  0.00    +0.002 A 
ATOM     16  C   UNL     1      -5.294 -14.528  15.917  0.00  0.00    +0.252 A 
ATOM     17  C   UNL     1      -4.705 -13.923  13.635  0.00  0.00    +0.015 A 
ATOM     18  C   UNL     1      -5.199 -14.836  14.473  0.00  0.00    +0.071 A 
ENDROOT
BRANCH  15  20
ATOM     20  C   UNL     1      -3.749 -11.651  13.091  0.00  0.00    -0.015 A 
ATOM     22  C   UNL     1      -4.627 -10.850  12.368  0.00  0.00    +0.027 A 
ATOM     23  C   UNL     1      -2.376 -11.556  12.887  0.00  0.00    +0.008 A 
ATOM     26  C   UNL     1      -4.128  -9.947  11.430  0.00  0.00    +0.052 A 
ATOM     27  C   UNL     1      -1.877 -10.651  11.949  0.00  0.00    +0.002 A 
ATOM     28  C   UNL     1      -2.752  -9.847  11.220  0.00  0.00    +0.019 A 
BRANCH  26  30
ATOM      6  N   UNL     1      -5.755  -8.451  10.078  0.00  0.00    -0.191 NA
ATOM     30  C   UNL     1      -5.026  -9.122  10.683  0.00  0.00    +0.099 C 
ENDBRANCH  26  30
ENDBRANCH  15  20
BRANCH   4  14
ATOM     14  C   UNL     1      -7.432  -9.536  16.867  0.00  0.00    +0.158 C 
BRANCH  14  19
ATOM      2  O   UNL     1      -9.168 -10.044  18.450  0.00  0.00    -0.461 OA
ATOM     19  C   UNL     1      -8.719 -10.244  17.199  0.00  0.00    +0.119 A 
ATOM     21  C   UNL     1      -9.522 -11.052  16.472  0.00  0.00    +0.046 A 
ATOM     24  C   UNL     1     -10.320 -10.759  18.535  0.00  0.00    +0.131 A 
ATOM     25  C   UNL     1     -10.581 -11.398  17.344  0.00  0.00    +0.047 A 
BRANCH  24  29
ATOM     29  C   UNL     1     -11.022 -10.710  19.824  0.00  0.00    +0.230 C 
BRANCH  29   3
ATOM      3  O   UNL     1     -10.164 -10.069  20.771  0.00  0.00    -0.387 OA
ATOM     31  H   UNL     1     -10.729  -9.585  21.398  0.00  0.00    +0.210 HD
ENDBRANCH  29   3
ENDBRANCH  24  29
ENDBRANCH  14  19
ENDBRANCH   4  14
TORSDOF 6
ENDMDL
MODEL 5
REMARK VINA RESULT:      -6.3     24.342     28.238
REMARK  Name = 7662775
REMARK  6 active torsions:
REMARK  status: ('A' for Active; 'I' for Inactive)
REMARK    1  A    between atoms: O_3  and  C_29
REMARK    2  A    between atoms: N_4  and  C_14
REMARK    3  A    between atoms: C_14  and  C_19
REMARK    4  A    between atoms: C_15  and  C_20
REMARK    5  A    between atoms: C_24  and  C_29
REMARK    6  A    between atoms: C_26  and  C_30
REMARK                            x       y       z     vdW  Elec       q    Type
REMARK                         _______ _______ _______ _____ _____    ______ ____
ROOT
ATOM      1  O   UNL     1       8.980  11.510   4.037  0.00  0.00    -0.268 OA
ATOM      4  N   UNL     1      13.054   8.644   3.829  0.00  0.00    -0.294 NA
ATOM      5  N   UNL     1      10.400   9.929   5.021  0.00  0.00    -0.311 N 
ATOM      7  C   UNL     1      12.856  10.459   5.539  0.00  0.00    +0.024 C 
ATOM      8  C   UNL     1      11.956   8.240   6.040  0.00  0.00    +0.051 C 
ATOM      9  C   UNL     1      12.685   9.435   6.648  0.00  0.00    +0.017 C 
ATOM     10  C   UNL     1      13.671   9.859   4.376  0.00  0.00    +0.090 C 
ATOM     11  C   UNL     1      12.804   7.654   4.885  0.00  0.00    +0.094 C 
ATOM     12  C   UNL     1      11.469  10.934   5.098  0.00  0.00    +0.130 C 
ATOM     13  C   UNL     1      10.560   8.631   5.547  0.00  0.00    +0.034 A 
ATOM     15  C   UNL     1       9.502   7.779   5.581  0.00  0.00    +0.002 A 
ATOM     16  C   UNL     1       9.178  10.383   4.494  0.00  0.00    +0.252 A 
ATOM     17  C   UNL     1       8.227   8.212   5.042  0.00  0.00    +0.015 A 
ATOM     18  C   UNL     1       8.051   9.423   4.514  0.00  0.00    +0.071 A 
ENDROOT
BRANCH  15  20
ATOM     20  C   UNL     1       9.619   6.416   6.141  0.00  0.00    -0.015 A 
ATOM     22  C   UNL     1       9.626   6.232   7.520  0.00  0.00    +0.027 A 
ATOM     23  C   UNL     1       9.720   5.324   5.284  0.00  0.00    +0.008 A 
ATOM     26  C   UNL     1       9.739   4.946   8.048  0.00  0.00    +0.052 A 
ATOM     27  C   UNL     1       9.831   4.037   5.811  0.00  0.00    +0.002 A 
ATOM     28  C   UNL     1       9.841   3.848   7.193  0.00  0.00    +0.019 A 
BRANCH  26  30
ATOM      6  N   UNL     1       9.754   4.594  10.615  0.00  0.00    -0.191 NA
ATOM     30  C   UNL     1       9.747   4.751   9.464  0.00  0.00    +0.099 C 
ENDBRANCH  26  30
ENDBRANCH  15  20
BRANCH   4  14
ATOM     14  C   UNL     1      13.876   8.076   2.763  0.00  0.00    +0.158 C 
BRANCH  14  19
ATOM      2  O   UNL     1      14.406   5.854   2.017  0.00  0.00    -0.461 OA
ATOM     19  C   UNL     1      13.421   6.691   2.384  0.00  0.00    +0.119 A 
ATOM     21  C   UNL     1      12.198   6.120   2.342  0.00  0.00    +0.046 A 
ATOM     24  C   UNL     1      13.786   4.681   1.723  0.00  0.00    +0.131 A 
ATOM     25  C   UNL     1      12.427   4.793   1.907  0.00  0.00    +0.047 A 
BRANCH  24  29
ATOM     29  C   UNL     1      14.654   3.579   1.286  0.00  0.00    +0.230 C 
BRANCH  29   3
ATOM      3  O   UNL     1      15.479   3.200   2.390  0.00  0.00    -0.387 OA
ATOM     31  H   UNL     1      16.392   3.462   2.178  0.00  0.00    +0.210 HD
ENDBRANCH  29   3
ENDBRANCH  24  29
ENDBRANCH  14  19
ENDBRANCH   4  14
TORSDOF 6
ENDMDL
MODEL 6
REMARK VINA RESULT:      -6.2     19.130     21.549
REMARK  Name = 7662775
REMARK  6 active torsions:
REMARK  status: ('A' for Active; 'I' for Inactive)
REMARK    1  A    between atoms: O_3  and  C_29
REMARK    2  A    between atoms: N_4  and  C_14
REMARK    3  A    between atoms: C_14  and  C_19
REMARK    4  A    between atoms: C_15  and  C_20
REMARK    5  A    between atoms: C_24  and  C_29
REMARK    6  A    between atoms: C_26  and  C_30
REMARK                            x       y       z     vdW  Elec       q    Type
REMARK                         _______ _______ _______ _____ _____    ______ ____
ROOT
ATOM      1  O   UNL     1     -14.460   5.816  23.099  0.00  0.00    -0.268 OA
ATOM      4  N   UNL     1     -16.239   8.863  19.577  0.00  0.00    -0.294 NA
ATOM      5  N   UNL     1     -14.237   7.736  21.777  0.00  0.00    -0.311 N 
ATOM      7  C   UNL     1     -15.912   9.674  21.921  0.00  0.00    +0.024 C 
ATOM      8  C   UNL     1     -14.046   9.789  20.343  0.00  0.00    +0.051 C 
ATOM      9  C   UNL     1     -14.731  10.527  21.491  0.00  0.00    +0.017 C 
ATOM     10  C   UNL     1     -16.887   9.476  20.743  0.00  0.00    +0.090 C 
ATOM     11  C   UNL     1     -15.046   9.618  19.174  0.00  0.00    +0.094 C 
ATOM     12  C   UNL     1     -15.380   8.347  22.469  0.00  0.00    +0.130 C 
ATOM     13  C   UNL     1     -13.502   8.432  20.798  0.00  0.00    +0.034 A 
ATOM     15  C   UNL     1     -12.369   7.884  20.284  0.00  0.00    +0.002 A 
ATOM     16  C   UNL     1     -13.862   6.460  22.237  0.00  0.00    +0.252 A 
ATOM     17  C   UNL     1     -11.954   6.569  20.731  0.00  0.00    +0.015 A 
ATOM     18  C   UNL     1     -12.644   5.873  21.636  0.00  0.00    +0.071 A 
ENDROOT
BRANCH  15  20
ATOM     20  C   UNL     1     -11.555   8.588  19.270  0.00  0.00    -0.015 A 
ATOM     22  C   UNL     1     -11.461   8.075  17.980  0.00  0.00    +0.027 A 
ATOM     23  C   UNL     1     -10.886   9.759  19.614  0.00  0.00    +0.008 A 
ATOM     26  C   UNL     1     -10.690   8.738  17.025  0.00  0.00    +0.052 A 
ATOM     27  C   UNL     1     -10.116  10.422  18.658  0.00  0.00    +0.002 A 
ATOM     28  C   UNL     1     -10.017   9.912  17.364  0.00  0.00    +0.019 A 
BRANCH  26  30
ATOM      6  N   UNL     1     -10.509   7.789  14.621  0.00  0.00    -0.191 NA
ATOM     30  C   UNL     1     -10.590   8.215  15.699  0.00  0.00    +0.099 C 
ENDBRANCH  26  30
ENDBRANCH  15  20
BRANCH   4  14
ATOM     14  C   UNL     1     -17.178   8.734  18.465  0.00  0.00    +0.158 C 
BRANCH  14  19
ATOM      2  O   UNL     1     -17.365   7.071  16.740  0.00  0.00    -0.461 OA
ATOM     19  C   UNL     1     -17.378   7.297  18.065  0.00  0.00    +0.119 A 
ATOM     21  C   UNL     1     -17.571   6.173  18.791  0.00  0.00    +0.046 A 
ATOM     24  C   UNL     1     -17.558   5.733  16.604  0.00  0.00    +0.131 A 
ATOM     25  C   UNL     1     -17.691   5.136  17.836  0.00  0.00    +0.047 A 
BRANCH  24  29
ATOM     29  C   UNL     1     -17.586   5.218  15.228  0.00  0.00    +0.230 C 
BRANCH  29   3
ATOM      3  O   UNL     1     -16.822   4.011  15.191  0.00  0.00    -0.387 OA
ATOM     31  H   UNL     1     -16.304   3.966  16.014  0.00  0.00    +0.210 HD
ENDBRANCH  29   3
ENDBRANCH  24  29
ENDBRANCH  14  19
ENDBRANCH   4  14
TORSDOF 6
ENDMDL
MODEL 7
REMARK VINA RESULT:      -6.1     19.017     21.042
REMARK  Name = 7662775
REMARK  6 active torsions:
REMARK  status: ('A' for Active; 'I' for Inactive)
REMARK    1  A    between atoms: O_3  and  C_29
REMARK    2  A    between atoms: N_4  and  C_14
REMARK    3  A    between atoms: C_14  and  C_19
REMARK    4  A    between atoms: C_15  and  C_20
REMARK    5  A    between atoms: C_24  and  C_29
REMARK    6  A    between atoms: C_26  and  C_30
REMARK                            x       y       z     vdW  Elec       q    Type
REMARK                         _______ _______ _______ _____ _____    ______ ____
ROOT
ATOM      1  O   UNL     1     -15.064   5.106  22.812  0.00  0.00    -0.268 OA
ATOM      4  N   UNL     1     -16.284   7.166  18.440  0.00  0.00    -0.294 NA
ATOM      5  N   UNL     1     -14.875   6.862  21.276  0.00  0.00    -0.311 N 
ATOM      7  C   UNL     1     -16.901   8.281  20.592  0.00  0.00    +0.024 C 
ATOM      8  C   UNL     1     -14.710   8.726  19.599  0.00  0.00    +0.051 C 
ATOM      9  C   UNL     1     -15.868   9.370  20.358  0.00  0.00    +0.017 C 
ATOM     10  C   UNL     1     -17.385   7.703  19.247  0.00  0.00    +0.090 C 
ATOM     11  C   UNL     1     -15.225   8.168  18.251  0.00  0.00    +0.094 C 
ATOM     12  C   UNL     1     -16.285   7.213  21.500  0.00  0.00    +0.130 C 
ATOM     13  C   UNL     1     -14.045   7.623  20.428  0.00  0.00    +0.034 A 
ATOM     15  C   UNL     1     -12.717   7.349  20.357  0.00  0.00    +0.002 A 
ATOM     16  C   UNL     1     -14.387   5.792  22.046  0.00  0.00    +0.252 A 
ATOM     17  C   UNL     1     -12.178   6.249  21.134  0.00  0.00    +0.015 A 
ATOM     18  C   UNL     1     -12.942   5.494  21.924  0.00  0.00    +0.071 A 
ENDROOT
BRANCH  15  20
ATOM     20  C   UNL     1     -11.804   8.134  19.497  0.00  0.00    -0.015 A 
ATOM     22  C   UNL     1     -11.630   7.775  18.164  0.00  0.00    +0.027 A 
ATOM     23  C   UNL     1     -11.126   9.226  20.028  0.00  0.00    +0.008 A 
ATOM     26  C   UNL     1     -10.767   8.514  17.355  0.00  0.00    +0.052 A 
ATOM     27  C   UNL     1     -10.264   9.966  19.218  0.00  0.00    +0.002 A 
ATOM     28  C   UNL     1     -10.084   9.610  17.882  0.00  0.00    +0.019 A 
BRANCH  26  30
ATOM      6  N   UNL     1     -10.435   7.854  14.872  0.00  0.00    -0.191 NA
ATOM     30  C   UNL     1     -10.584   8.149  15.985  0.00  0.00    +0.099 C 
ENDBRANCH  26  30
ENDBRANCH  15  20
BRANCH   4  14
ATOM     14  C   UNL     1     -16.771   6.671  17.154  0.00  0.00    +0.158 C 
BRANCH  14  19
ATOM      2  O   UNL     1     -15.329   7.225  15.312  0.00  0.00    -0.461 OA
ATOM     19  C   UNL     1     -16.407   7.597  16.024  0.00  0.00    +0.119 A 
ATOM     21  C   UNL     1     -16.963   8.745  15.579  0.00  0.00    +0.046 A 
ATOM     24  C   UNL     1     -15.182   8.182  14.360  0.00  0.00    +0.131 A 
ATOM     25  C   UNL     1     -16.162   9.140  14.482  0.00  0.00    +0.047 A 
BRANCH  24  29
ATOM     29  C   UNL     1     -14.054   8.009  13.434  0.00  0.00    +0.230 C 
BRANCH  29   3
ATOM      3  O   UNL     1     -13.275   6.900  13.887  0.00  0.00    -0.387 OA
ATOM     31  H   UNL     1     -13.129   7.014  14.842  0.00  0.00    +0.210 HD
ENDBRANCH  29   3
ENDBRANCH  24  29
ENDBRANCH  14  19
ENDBRANCH   4  14
TORSDOF 6
ENDMDL
MODEL 8
REMARK VINA RESULT:      -6.1      2.521      3.828
REMARK  Name = 7662775
REMARK  6 active torsions:
REMARK  status: ('A' for Active; 'I' for Inactive)
REMARK    1  A    between atoms: O_3  and  C_29
REMARK    2  A    between atoms: N_4  and  C_14
REMARK    3  A    between atoms: C_14  and  C_19
REMARK    4  A    between atoms: C_15  and  C_20
REMARK    5  A    between atoms: C_24  and  C_29
REMARK    6  A    between atoms: C_26  and  C_30
REMARK                            x       y       z     vdW  Elec       q    Type
REMARK                         _______ _______ _______ _____ _____    ______ ____
ROOT
ATOM      1  O   UNL     1      -9.085 -12.733  19.827  0.00  0.00    -0.268 OA
ATOM      4  N   UNL     1      -7.442 -10.628  15.617  0.00  0.00    -0.294 NA
ATOM      5  N   UNL     1      -9.522 -11.681  17.781  0.00  0.00    -0.311 N 
ATOM      7  C   UNL     1      -8.808 -12.723  15.548  0.00  0.00    +0.024 C 
ATOM      8  C   UNL     1      -9.942 -10.555  15.575  0.00  0.00    +0.051 C 
ATOM      9  C   UNL     1      -9.997 -11.963  14.987  0.00  0.00    +0.017 C 
ATOM     10  C   UNL     1      -7.491 -12.022  15.158  0.00  0.00    +0.090 C 
ATOM     11  C   UNL     1      -8.616  -9.875  15.156  0.00  0.00    +0.094 C 
ATOM     12  C   UNL     1      -8.980 -12.843  17.064  0.00  0.00    +0.130 C 
ATOM     13  C   UNL     1     -10.082 -10.582  17.099  0.00  0.00    +0.034 A 
ATOM     15  C   UNL     1     -10.698  -9.594  17.799  0.00  0.00    +0.002 A 
ATOM     16  C   UNL     1      -9.546 -11.790  19.183  0.00  0.00    +0.252 A 
ATOM     17  C   UNL     1     -10.738  -9.670  19.247  0.00  0.00    +0.015 A 
ATOM     18  C   UNL     1     -10.193 -10.683  19.922  0.00  0.00    +0.071 A 
ENDROOT
BRANCH  15  20
ATOM     20  C   UNL     1     -11.318  -8.432  17.125  0.00  0.00    -0.015 A 
ATOM     22  C   UNL     1     -12.631  -8.514  16.672  0.00  0.00    +0.027 A 
ATOM     23  C   UNL     1     -10.582  -7.265  16.947  0.00  0.00    +0.008 A 
ATOM     26  C   UNL     1     -13.213  -7.419  16.034  0.00  0.00    +0.052 A 
ATOM     27  C   UNL     1     -11.164  -6.169  16.310  0.00  0.00    +0.002 A 
ATOM     28  C   UNL     1     -12.480  -6.246  15.853  0.00  0.00    +0.019 A 
BRANCH  26  30
ATOM      6  N   UNL     1     -15.658  -7.561  15.188  0.00  0.00    -0.191 NA
ATOM     30  C   UNL     1     -14.562  -7.497  15.567  0.00  0.00    +0.099 C 
ENDBRANCH  26  30
ENDBRANCH  15  20
BRANCH   4  14
ATOM     14  C   UNL     1      -6.204  -9.981  15.189  0.00  0.00    +0.158 C 
BRANCH  14  19
ATOM      2  O   UNL     1      -5.299 -10.891  17.221  0.00  0.00    -0.461 OA
ATOM     19  C   UNL     1      -5.017 -10.467  15.978  0.00  0.00    +0.119 A 
ATOM     21  C   UNL     1      -3.704 -10.562  15.672  0.00  0.00    +0.046 A 
ATOM     24  C   UNL     1      -4.107 -11.280  17.745  0.00  0.00    +0.131 A 
ATOM     25  C   UNL     1      -3.095 -11.097  16.831  0.00  0.00    +0.047 A 
BRANCH  24  29
ATOM     29  C   UNL     1      -4.139 -11.794  19.121  0.00  0.00    +0.230 C 
BRANCH  29   3
ATOM      3  O   UNL     1      -2.810 -12.172  19.484  0.00  0.00    -0.387 OA
ATOM     31  H   UNL     1      -2.253 -11.375  19.432  0.00  0.00    +0.210 HD
ENDBRANCH  29   3
ENDBRANCH  24  29
ENDBRANCH  14  19
ENDBRANCH   4  14
TORSDOF 6
ENDMDL
MODEL 9
REMARK VINA RESULT:      -6.0     24.436     28.202
REMARK  Name = 7662775
REMARK  6 active torsions:
REMARK  status: ('A' for Active; 'I' for Inactive)
REMARK    1  A    between atoms: O_3  and  C_29
REMARK    2  A    between atoms: N_4  and  C_14
REMARK    3  A    between atoms: C_14  and  C_19
REMARK    4  A    between atoms: C_15  and  C_20
REMARK    5  A    between atoms: C_24  and  C_29
REMARK    6  A    between atoms: C_26  and  C_30
REMARK                            x       y       z     vdW  Elec       q    Type
REMARK                         _______ _______ _______ _____ _____    ______ ____
ROOT
ATOM      1  O   UNL     1       7.495  11.582   4.358  0.00  0.00    -0.268 OA
ATOM      4  N   UNL     1      11.832  10.458   6.545  0.00  0.00    -0.294 NA
ATOM      5  N   UNL     1       8.710  10.360   5.943  0.00  0.00    -0.311 N 
ATOM      7  C   UNL     1       9.978  11.512   7.853  0.00  0.00    +0.024 C 
ATOM      8  C   UNL     1      10.054   9.076   7.633  0.00  0.00    +0.051 C 
ATOM      9  C   UNL     1       9.728  10.212   8.599  0.00  0.00    +0.017 C 
ATOM     10  C   UNL     1      11.448  11.592   7.394  0.00  0.00    +0.090 C 
ATOM     11  C   UNL     1      11.537   9.178   7.202  0.00  0.00    +0.094 C 
ATOM     12  C   UNL     1       8.995  11.597   6.683  0.00  0.00    +0.130 C 
ATOM     13  C   UNL     1       9.129   9.099   6.413  0.00  0.00    +0.034 A 
ATOM     15  C   UNL     1       8.725   7.970   5.775  0.00  0.00    +0.002 A 
ATOM     16  C   UNL     1       7.900  10.508   4.803  0.00  0.00    +0.252 A 
ATOM     17  C   UNL     1       7.894   8.084   4.592  0.00  0.00    +0.015 A 
ATOM     18  C   UNL     1       7.503   9.263   4.107  0.00  0.00    +0.071 A 
ENDROOT
BRANCH  15  20
ATOM     20  C   UNL     1       9.123   6.625   6.245  0.00  0.00    -0.015 A 
ATOM     22  C   UNL     1       9.219   6.369   7.609  0.00  0.00    +0.027 A 
ATOM     23  C   UNL     1       9.400   5.625   5.318  0.00  0.00    +0.008 A 
ATOM     26  C   UNL     1       9.597   5.101   8.050  0.00  0.00    +0.052 A 
ATOM     27  C   UNL     1       9.777   4.356   5.759  0.00  0.00    +0.002 A 
ATOM     28  C   UNL     1       9.876   4.094   7.126  0.00  0.00    +0.019 A 
BRANCH  26  30
ATOM      6  N   UNL     1       9.778   4.613  10.589  0.00  0.00    -0.191 NA
ATOM     30  C   UNL     1       9.697   4.832   9.451  0.00  0.00    +0.099 C 
ENDBRANCH  26  30
ENDBRANCH  15  20
BRANCH   4  14
ATOM     14  C   UNL     1      13.242  10.541   6.168  0.00  0.00    +0.158 C 
BRANCH  14  19
ATOM      2  O   UNL     1      14.576   8.790   5.203  0.00  0.00    -0.461 OA
ATOM     19  C   UNL     1      13.562   9.648   4.999  0.00  0.00    +0.119 A 
ATOM     21  C   UNL     1      13.017   9.539   3.767  0.00  0.00    +0.046 A 
ATOM     24  C   UNL     1      14.693   8.093   4.043  0.00  0.00    +0.131 A 
ATOM     25  C   UNL     1      13.757   8.516   3.128  0.00  0.00    +0.047 A 
BRANCH  24  29
ATOM     29  C   UNL     1      15.750   7.072   4.003  0.00  0.00    +0.230 C 
BRANCH  29   3
ATOM      3  O   UNL     1      15.293   5.993   3.185  0.00  0.00    -0.387 OA
ATOM     31  H   UNL     1      16.049   5.684   2.656  0.00  0.00    +0.210 HD
ENDBRANCH  29   3
ENDBRANCH  24  29
ENDBRANCH  14  19
ENDBRANCH   4  14
TORSDOF 6
ENDMDL
MODEL 10
REMARK VINA RESULT:      -6.0     24.052     28.268
REMARK  Name = 7662775
REMARK  6 active torsions:
REMARK  status: ('A' for Active; 'I' for Inactive)
REMARK    1  A    between atoms: O_3  and  C_29
REMARK    2  A    between atoms: N_4  and  C_14
REMARK    3  A    between atoms: C_14  and  C_19
REMARK    4  A    between atoms: C_15  and  C_20
REMARK    5  A    between atoms: C_24  and  C_29
REMARK    6  A    between atoms: C_26  and  C_30
REMARK                            x       y       z     vdW  Elec       q    Type
REMARK                         _______ _______ _______ _____ _____    ______ ____
ROOT
ATOM      1  O   UNL     1      14.442   9.679   6.455  0.00  0.00    -0.268 OA
ATOM      4  N   UNL     1       9.598   8.507   6.336  0.00  0.00    -0.294 NA
ATOM      5  N   UNL     1      12.505   9.183   5.236  0.00  0.00    -0.311 N 
ATOM      7  C   UNL     1      10.414  10.663   5.365  0.00  0.00    +0.024 C 
ATOM      8  C   UNL     1      10.400   8.652   3.971  0.00  0.00    +0.051 C 
ATOM      9  C   UNL     1      10.156  10.159   3.955  0.00  0.00    +0.017 C 
ATOM     10  C   UNL     1       9.467   9.969   6.364  0.00  0.00    +0.090 C 
ATOM     11  C   UNL     1       9.428   7.985   4.973  0.00  0.00    +0.094 C 
ATOM     12  C   UNL     1      11.890  10.434   5.701  0.00  0.00    +0.130 C 
ATOM     13  C   UNL     1      11.855   8.328   4.325  0.00  0.00    +0.034 A 
ATOM     15  C   UNL     1      12.514   7.256   3.813  0.00  0.00    +0.002 A 
ATOM     16  C   UNL     1      13.823   8.957   5.673  0.00  0.00    +0.252 A 
ATOM     17  C   UNL     1      13.873   6.989   4.244  0.00  0.00    +0.015 A 
ATOM     18  C   UNL     1      14.506   7.763   5.125  0.00  0.00    +0.071 A 
ENDROOT
BRANCH  15  20
ATOM     20  C   UNL     1      11.878   6.343   2.838  0.00  0.00    -0.015 A 
ATOM     22  C   UNL     1      11.982   6.604   1.476  0.00  0.00    +0.027 A 
ATOM     23  C   UNL     1      11.179   5.228   3.291  0.00  0.00    +0.008 A 
ATOM     26  C   UNL     1      11.380   5.744   0.557  0.00  0.00    +0.052 A 
ATOM     27  C   UNL     1      10.578   4.368   2.373  0.00  0.00    +0.002 A 
ATOM     28  C   UNL     1      10.677   4.626   1.006  0.00  0.00    +0.019 A 
BRANCH  26  30
ATOM      6  N   UNL     1      11.567   6.222  -1.982  0.00  0.00    -0.191 NA
ATOM     30  C   UNL     1      11.483   6.008  -0.844  0.00  0.00    +0.099 C 
ENDBRANCH  26  30
ENDBRANCH  15  20
BRANCH   4  14
ATOM     14  C   UNL     1       8.654   7.880   7.258  0.00  0.00    +0.158 C 
BRANCH  14  19
ATOM      2  O   UNL     1       8.867   6.233   8.995  0.00  0.00    -0.461 OA
ATOM     19  C   UNL     1       9.130   6.525   7.710  0.00  0.00    +0.119 A 
ATOM     21  C   UNL     1       9.778   5.531   7.064  0.00  0.00    +0.046 A 
ATOM     24  C   UNL     1       9.372   4.986   9.188  0.00  0.00    +0.131 A 
ATOM     25  C   UNL     1       9.943   4.511   8.031  0.00  0.00    +0.047 A 
BRANCH  24  29
ATOM     29  C   UNL     1       9.214   4.423  10.536  0.00  0.00    +0.230 C 
BRANCH  29   3
ATOM      3  O   UNL     1       7.929   4.810  11.030  0.00  0.00    -0.387 OA
ATOM     31  H   UNL     1       7.836   5.768  10.887  0.00  0.00    +0.210 HD
ENDBRANCH  29   3
ENDBRANCH  24  29
ENDBRANCH  14  19
ENDBRANCH   4  14
TORSDOF 6
ENDMDL
