MODEL 1
REMARK VINA RESULT:      -7.4      0.000      0.000
REMARK  Name = 26745445
REMARK  7 active torsions:
REMARK  status: ('A' for Active; 'I' for Inactive)
REMARK    1  A    between atoms: S_1  and  N_6
REMARK    2  A    between atoms: S_1  and  C_17
REMARK    3  A    between atoms: O_4  and  C_14
REMARK    4  A    between atoms: O_4  and  C_25
REMARK    5  A    between atoms: N_7  and  C_15
REMARK    6  A    between atoms: C_9  and  C_14
REMARK    7  A    between atoms: C_15  and  C_18
REMARK                            x       y       z     vdW  Elec       q    Type
REMARK                         _______ _______ _______ _____ _____    ______ ____
ROOT
ATOM      6  N   UNL     1      13.592   8.154  19.960  0.00  0.00    -0.157 NA
ATOM      7  N   UNL     1      11.870  10.047  22.689  0.00  0.00    -0.328 N 
ATOM      8  N   UNL     1      10.535   8.257  22.778  0.00  0.00    -0.240 NA
ATOM      9  C   UNL     1      12.377   7.344  19.587  0.00  0.00    +0.194 C 
ATOM     10  C   UNL     1      13.332   9.452  20.687  0.00  0.00    +0.165 C 
ATOM     11  C   UNL     1      11.520   6.989  20.821  0.00  0.00    +0.089 C 
ATOM     12  C   UNL     1      12.261   9.225  21.675  0.00  0.00    +0.057 A 
ATOM     13  C   UNL     1      11.425   8.137  21.748  0.00  0.00    +0.066 A 
ATOM     16  C   UNL     1      10.828   9.421  23.325  0.00  0.00    +0.200 A 
ENDROOT
BRANCH   6   1
ATOM      1  S   UNL     1      14.867   8.198  18.817  0.00  0.00    +0.062 S 
ATOM      2  O   UNL     1      14.981   9.540  18.289  0.00  0.00    -0.153 OA
ATOM      3  O   UNL     1      14.744   7.058  17.935  0.00  0.00    -0.153 OA
BRANCH   1  17
ATOM     17  C   UNL     1      16.246   7.917  19.881  0.00  0.00    +0.106 A 
ATOM     19  C   UNL     1      16.861   6.665  19.909  0.00  0.00    +0.028 A 
ATOM     20  C   UNL     1      16.721   8.945  20.695  0.00  0.00    +0.028 A 
ATOM     23  C   UNL     1      17.951   6.441  20.750  0.00  0.00    +0.002 A 
ATOM     24  C   UNL     1      17.811   8.722  21.536  0.00  0.00    +0.002 A 
ATOM     26  C   UNL     1      18.426   7.470  21.564  0.00  0.00    +0.000 A 
ENDBRANCH   1  17
ENDBRANCH   6   1
BRANCH   9  14
ATOM      5  O   UNL     1      10.559   8.701  18.791  0.00  0.00    -0.249 OA
ATOM     14  C   UNL     1      11.595   8.093  18.556  0.00  0.00    +0.326 C 
BRANCH  14   4
ATOM      4  O   UNL     1      12.214   7.985  17.346  0.00  0.00    -0.467 OA
ATOM     25  C   UNL     1      12.019   9.088  16.455  0.00  0.00    +0.280 C 
ENDBRANCH  14   4
ENDBRANCH   9  14
BRANCH   7  15
ATOM     15  C   UNL     1      12.427  11.332  23.035  0.00  0.00    +0.158 C 
BRANCH  15  18
ATOM     18  C   UNL     1      11.422  12.456  22.979  0.00  0.00    -0.028 A 
ATOM     21  C   UNL     1      10.847  12.937  24.155  0.00  0.00    +0.005 A 
ATOM     22  C   UNL     1      11.069  13.014  21.750  0.00  0.00    +0.005 A 
ATOM     27  C   UNL     1       9.918  13.976  24.103  0.00  0.00    +0.000 A 
ATOM     28  C   UNL     1      10.140  14.052  21.698  0.00  0.00    +0.000 A 
ATOM     29  C   UNL     1       9.565  14.534  22.874  0.00  0.00    +0.000 A 
ENDBRANCH  15  18
ENDBRANCH   7  15
TORSDOF 6
ENDMDL
MODEL 2
REMARK VINA RESULT:      -6.5      3.332      6.870
REMARK  Name = 26745445
REMARK  7 active torsions:
REMARK  status: ('A' for Active; 'I' for Inactive)
REMARK    1  A    between atoms: S_1  and  N_6
REMARK    2  A    between atoms: S_1  and  C_17
REMARK    3  A    between atoms: O_4  and  C_14
REMARK    4  A    between atoms: O_4  and  C_25
REMARK    5  A    between atoms: N_7  and  C_15
REMARK    6  A    between atoms: C_9  and  C_14
REMARK    7  A    between atoms: C_15  and  C_18
REMARK                            x       y       z     vdW  Elec       q    Type
REMARK                         _______ _______ _______ _____ _____    ______ ____
ROOT
ATOM      6  N   UNL     1      14.588   9.078  20.185  0.00  0.00    -0.157 NA
ATOM      7  N   UNL     1      17.321   6.524  20.262  0.00  0.00    -0.328 N 
ATOM      8  N   UNL     1      16.466   5.882  18.299  0.00  0.00    -0.240 NA
ATOM      9  C   UNL     1      13.682   8.262  19.298  0.00  0.00    +0.194 C 
ATOM     10  C   UNL     1      15.639   8.312  20.952  0.00  0.00    +0.165 C 
ATOM     11  C   UNL     1      14.478   7.449  18.254  0.00  0.00    +0.089 C 
ATOM     12  C   UNL     1      16.206   7.282  20.061  0.00  0.00    +0.057 A 
ATOM     13  C   UNL     1      15.698   6.866  18.855  0.00  0.00    +0.066 A 
ATOM     16  C   UNL     1      17.437   5.697  19.173  0.00  0.00    +0.200 A 
ENDROOT
BRANCH   6   1
ATOM      1  S   UNL     1      13.863  10.377  21.034  0.00  0.00    +0.062 S 
ATOM      2  O   UNL     1      13.404   9.902  22.321  0.00  0.00    -0.153 OA
ATOM      3  O   UNL     1      12.973  11.083  20.139  0.00  0.00    -0.153 OA
BRANCH   1  17
ATOM     17  C   UNL     1      15.279  11.395  21.307  0.00  0.00    +0.106 A 
ATOM     19  C   UNL     1      15.958  11.950  20.222  0.00  0.00    +0.028 A 
ATOM     20  C   UNL     1      15.719  11.644  22.606  0.00  0.00    +0.028 A 
ATOM     23  C   UNL     1      17.077  12.755  20.436  0.00  0.00    +0.002 A 
ATOM     24  C   UNL     1      16.838  12.449  22.821  0.00  0.00    +0.002 A 
ATOM     26  C   UNL     1      17.517  13.004  21.737  0.00  0.00    +0.000 A 
ENDBRANCH   1  17
ENDBRANCH   6   1
BRANCH   9  14
ATOM      5  O   UNL     1      13.262   6.592  20.976  0.00  0.00    -0.249 OA
ATOM     14  C   UNL     1      12.824   7.388  20.155  0.00  0.00    +0.326 C 
BRANCH  14   4
ATOM      4  O   UNL     1      11.511   7.621  19.874  0.00  0.00    -0.467 OA
ATOM     25  C   UNL     1      10.709   8.040  20.984  0.00  0.00    +0.280 C 
ENDBRANCH  14   4
ENDBRANCH   9  14
BRANCH   7  15
ATOM     15  C   UNL     1      18.212   6.567  21.395  0.00  0.00    +0.158 C 
BRANCH  15  18
ATOM     18  C   UNL     1      19.372   7.513  21.208  0.00  0.00    -0.028 A 
ATOM     21  C   UNL     1      20.607   7.028  20.778  0.00  0.00    +0.005 A 
ATOM     22  C   UNL     1      19.209   8.875  21.466  0.00  0.00    +0.005 A 
ATOM     27  C   UNL     1      21.680   7.904  20.606  0.00  0.00    +0.000 A 
ATOM     28  C   UNL     1      20.281   9.749  21.294  0.00  0.00    +0.000 A 
ATOM     29  C   UNL     1      21.517   9.265  20.864  0.00  0.00    +0.000 A 
ENDBRANCH  15  18
ENDBRANCH   7  15
TORSDOF 6
ENDMDL
MODEL 3
REMARK VINA RESULT:      -6.5     24.629     27.057
REMARK  Name = 26745445
REMARK  7 active torsions:
REMARK  status: ('A' for Active; 'I' for Inactive)
REMARK    1  A    between atoms: S_1  and  N_6
REMARK    2  A    between atoms: S_1  and  C_17
REMARK    3  A    between atoms: O_4  and  C_14
REMARK    4  A    between atoms: O_4  and  C_25
REMARK    5  A    between atoms: N_7  and  C_15
REMARK    6  A    between atoms: C_9  and  C_14
REMARK    7  A    between atoms: C_15  and  C_18
REMARK                            x       y       z     vdW  Elec       q    Type
REMARK                         _______ _______ _______ _____ _____    ______ ____
ROOT
ATOM      6  N   UNL     1     -11.735   9.008  17.533  0.00  0.00    -0.157 NA
ATOM      7  N   UNL     1     -14.308   8.282  14.917  0.00  0.00    -0.328 N 
ATOM      8  N   UNL     1     -12.557   7.601  13.707  0.00  0.00    -0.240 NA
ATOM      9  C   UNL     1     -10.608   9.192  16.549  0.00  0.00    +0.194 C 
ATOM     10  C   UNL     1     -13.132   9.188  16.989  0.00  0.00    +0.165 C 
ATOM     11  C   UNL     1     -10.733   8.236  15.344  0.00  0.00    +0.089 C 
ATOM     12  C   UNL     1     -13.199   8.553  15.659  0.00  0.00    +0.057 A 
ATOM     13  C   UNL     1     -12.138   8.131  14.895  0.00  0.00    +0.066 A 
ATOM     16  C   UNL     1     -13.871   7.708  13.749  0.00  0.00    +0.200 A 
ENDROOT
BRANCH   6   1
ATOM      1  S   UNL     1     -11.481   9.617  19.114  0.00  0.00    +0.062 S 
ATOM      2  O   UNL     1     -12.238  10.838  19.277  0.00  0.00    -0.153 OA
ATOM      3  O   UNL     1     -10.066   9.571  19.411  0.00  0.00    -0.153 OA
BRANCH   1  17
ATOM     17  C   UNL     1     -12.276   8.357  20.060  0.00  0.00    +0.106 A 
ATOM     19  C   UNL     1     -13.620   8.489  20.407  0.00  0.00    +0.028 A 
ATOM     20  C   UNL     1     -11.559   7.230  20.462  0.00  0.00    +0.028 A 
ATOM     23  C   UNL     1     -14.249   7.493  21.155  0.00  0.00    +0.002 A 
ATOM     24  C   UNL     1     -12.188   6.234  21.210  0.00  0.00    +0.002 A 
ATOM     26  C   UNL     1     -13.532   6.366  21.557  0.00  0.00    +0.000 A 
ENDBRANCH   1  17
ENDBRANCH   6   1
BRANCH   9  14
ATOM      5  O   UNL     1     -11.382  11.144  15.378  0.00  0.00    -0.249 OA
ATOM     14  C   UNL     1     -10.564  10.626  16.126  0.00  0.00    +0.326 C 
BRANCH  14   4
ATOM      4  O   UNL     1      -9.489  11.238  16.699  0.00  0.00    -0.467 OA
ATOM     25  C   UNL     1      -9.755  12.506  17.309  0.00  0.00    +0.280 C 
ENDBRANCH  14   4
ENDBRANCH   9  14
BRANCH   7  15
ATOM     15  C   UNL     1     -15.681   8.546  15.270  0.00  0.00    +0.158 C 
BRANCH  15  18
ATOM     18  C   UNL     1     -16.308   7.452  16.098  0.00  0.00    -0.028 A 
ATOM     21  C   UNL     1     -16.356   7.569  17.488  0.00  0.00    +0.005 A 
ATOM     22  C   UNL     1     -16.839   6.324  15.474  0.00  0.00    +0.005 A 
ATOM     27  C   UNL     1     -16.935   6.556  18.253  0.00  0.00    +0.000 A 
ATOM     28  C   UNL     1     -17.418   5.312  16.239  0.00  0.00    +0.000 A 
ATOM     29  C   UNL     1     -17.467   5.428  17.629  0.00  0.00    +0.000 A 
ENDBRANCH  15  18
ENDBRANCH   7  15
TORSDOF 6
ENDMDL
MODEL 4
REMARK VINA RESULT:      -6.4      3.221      6.258
REMARK  Name = 26745445
REMARK  7 active torsions:
REMARK  status: ('A' for Active; 'I' for Inactive)
REMARK    1  A    between atoms: S_1  and  N_6
REMARK    2  A    between atoms: S_1  and  C_17
REMARK    3  A    between atoms: O_4  and  C_14
REMARK    4  A    between atoms: O_4  and  C_25
REMARK    5  A    between atoms: N_7  and  C_15
REMARK    6  A    between atoms: C_9  and  C_14
REMARK    7  A    between atoms: C_15  and  C_18
REMARK                            x       y       z     vdW  Elec       q    Type
REMARK                         _______ _______ _______ _____ _____    ______ ____
ROOT
ATOM      6  N   UNL     1      12.171   9.929  19.949  0.00  0.00    -0.157 NA
ATOM      7  N   UNL     1      14.053  10.351  16.743  0.00  0.00    -0.328 N 
ATOM      8  N   UNL     1      12.422   9.089  15.883  0.00  0.00    -0.240 NA
ATOM      9  C   UNL     1      11.530   8.626  19.544  0.00  0.00    +0.194 C 
ATOM     10  C   UNL     1      13.437  10.306  19.217  0.00  0.00    +0.165 C 
ATOM     11  C   UNL     1      11.189   8.595  18.039  0.00  0.00    +0.089 C 
ATOM     12  C   UNL     1      13.264   9.978  17.789  0.00  0.00    +0.057 A 
ATOM     13  C   UNL     1      12.274   9.201  17.237  0.00  0.00    +0.066 A 
ATOM     16  C   UNL     1      13.505   9.792  15.616  0.00  0.00    +0.200 A 
ENDROOT
BRANCH   6   1
ATOM      1  S   UNL     1      12.151  10.309  21.619  0.00  0.00    +0.062 S 
ATOM      2  O   UNL     1      13.501  10.239  22.135  0.00  0.00    -0.153 OA
ATOM      3  O   UNL     1      11.072   9.582  22.252  0.00  0.00    -0.153 OA
BRANCH   1  17
ATOM     17  C   UNL     1      11.688  12.010  21.543  0.00  0.00    +0.106 A 
ATOM     19  C   UNL     1      10.845  12.548  22.515  0.00  0.00    +0.028 A 
ATOM     20  C   UNL     1      12.166  12.817  20.511  0.00  0.00    +0.028 A 
ATOM     23  C   UNL     1      10.479  13.892  22.456  0.00  0.00    +0.002 A 
ATOM     24  C   UNL     1      11.800  14.162  20.451  0.00  0.00    +0.002 A 
ATOM     26  C   UNL     1      10.957  14.700  21.423  0.00  0.00    +0.000 A 
ENDBRANCH   1  17
ENDBRANCH   6   1
BRANCH   9  14
ATOM      5  O   UNL     1      13.643   7.606  20.068  0.00  0.00    -0.249 OA
ATOM     14  C   UNL     1      12.431   7.500  19.939  0.00  0.00    +0.326 C 
BRANCH  14   4
ATOM      4  O   UNL     1      11.692   6.370  20.126  0.00  0.00    -0.467 OA
ATOM     25  C   UNL     1      11.303   6.106  21.478  0.00  0.00    +0.280 C 
ENDBRANCH  14   4
ENDBRANCH   9  14
BRANCH   7  15
ATOM     15  C   UNL     1      15.240  11.169  16.794  0.00  0.00    +0.158 C 
BRANCH  15  18
ATOM     18  C   UNL     1      14.983  12.568  17.295  0.00  0.00    -0.028 A 
ATOM     21  C   UNL     1      14.035  13.373  16.661  0.00  0.00    +0.005 A 
ATOM     22  C   UNL     1      15.691  13.057  18.392  0.00  0.00    +0.005 A 
ATOM     27  C   UNL     1      13.798  14.667  17.124  0.00  0.00    +0.000 A 
ATOM     28  C   UNL     1      15.453  14.351  18.855  0.00  0.00    +0.000 A 
ATOM     29  C   UNL     1      14.507  15.156  18.221  0.00  0.00    +0.000 A 
ENDBRANCH  15  18
ENDBRANCH   7  15
TORSDOF 6
ENDMDL
MODEL 5
REMARK VINA RESULT:      -6.4     25.985     28.733
REMARK  Name = 26745445
REMARK  7 active torsions:
REMARK  status: ('A' for Active; 'I' for Inactive)
REMARK    1  A    between atoms: S_1  and  N_6
REMARK    2  A    between atoms: S_1  and  C_17
REMARK    3  A    between atoms: O_4  and  C_14
REMARK    4  A    between atoms: O_4  and  C_25
REMARK    5  A    between atoms: N_7  and  C_15
REMARK    6  A    between atoms: C_9  and  C_14
REMARK    7  A    between atoms: C_15  and  C_18
REMARK                            x       y       z     vdW  Elec       q    Type
REMARK                         _______ _______ _______ _____ _____    ______ ____
ROOT
ATOM      6  N   UNL     1      -5.873 -10.913  16.849  0.00  0.00    -0.157 NA
ATOM      7  N   UNL     1      -8.514 -10.079  14.334  0.00  0.00    -0.328 N 
ATOM      8  N   UNL     1      -9.234  -8.656  15.900  0.00  0.00    -0.240 NA
ATOM      9  C   UNL     1      -6.704 -10.508  18.040  0.00  0.00    +0.194 C 
ATOM     10  C   UNL     1      -6.632 -11.255  15.589  0.00  0.00    +0.165 C 
ATOM     11  C   UNL     1      -7.602  -9.292  17.728  0.00  0.00    +0.089 C 
ATOM     12  C   UNL     1      -7.730 -10.283  15.430  0.00  0.00    +0.057 A 
ATOM     13  C   UNL     1      -8.194  -9.403  16.377  0.00  0.00    +0.066 A 
ATOM     16  C   UNL     1      -9.404  -9.089  14.665  0.00  0.00    +0.200 A 
ENDROOT
BRANCH   6   1
ATOM      1  S   UNL     1      -4.503 -11.891  17.167  0.00  0.00    +0.062 S 
ATOM      2  O   UNL     1      -4.783 -13.246  16.744  0.00  0.00    -0.153 OA
ATOM      3  O   UNL     1      -4.026 -11.610  18.503  0.00  0.00    -0.153 OA
BRANCH   1  17
ATOM     17  C   UNL     1      -3.354 -11.194  16.022  0.00  0.00    +0.106 A 
ATOM     19  C   UNL     1      -3.686 -11.101  14.670  0.00  0.00    +0.028 A 
ATOM     20  C   UNL     1      -2.116 -10.736  16.469  0.00  0.00    +0.028 A 
ATOM     23  C   UNL     1      -2.779 -10.550  13.765  0.00  0.00    +0.002 A 
ATOM     24  C   UNL     1      -1.207 -10.185  15.565  0.00  0.00    +0.002 A 
ATOM     26  C   UNL     1      -1.539 -10.092  14.213  0.00  0.00    +0.000 A 
ENDBRANCH   1  17
ENDBRANCH   6   1
BRANCH   9  14
ATOM      5  O   UNL     1      -7.623 -12.723  17.856  0.00  0.00    -0.249 OA
ATOM     14  C   UNL     1      -7.498 -11.689  18.499  0.00  0.00    +0.326 C 
BRANCH  14   4
ATOM      4  O   UNL     1      -8.041 -11.425  19.722  0.00  0.00    -0.467 OA
ATOM     25  C   UNL     1      -9.436 -11.719  19.851  0.00  0.00    +0.280 C 
ENDBRANCH  14   4
ENDBRANCH   9  14
BRANCH   7  15
ATOM     15  C   UNL     1      -8.439 -10.766  13.068  0.00  0.00    +0.158 C 
BRANCH  15  18
ATOM     18  C   UNL     1      -7.188 -10.447  12.287  0.00  0.00    -0.028 A 
ATOM     21  C   UNL     1      -6.789  -9.121  12.119  0.00  0.00    +0.005 A 
ATOM     22  C   UNL     1      -6.431 -11.479  11.733  0.00  0.00    +0.005 A 
ATOM     27  C   UNL     1      -5.632  -8.828  11.396  0.00  0.00    +0.000 A 
ATOM     28  C   UNL     1      -5.275 -11.186  11.011  0.00  0.00    +0.000 A 
ATOM     29  C   UNL     1      -4.875  -9.860  10.843  0.00  0.00    +0.000 A 
ENDBRANCH  15  18
ENDBRANCH   7  15
TORSDOF 6
ENDMDL
MODEL 6
REMARK VINA RESULT:      -6.3     26.781     28.750
REMARK  Name = 26745445
REMARK  7 active torsions:
REMARK  status: ('A' for Active; 'I' for Inactive)
REMARK    1  A    between atoms: S_1  and  N_6
REMARK    2  A    between atoms: S_1  and  C_17
REMARK    3  A    between atoms: O_4  and  C_14
REMARK    4  A    between atoms: O_4  and  C_25
REMARK    5  A    between atoms: N_7  and  C_15
REMARK    6  A    between atoms: C_9  and  C_14
REMARK    7  A    between atoms: C_15  and  C_18
REMARK                            x       y       z     vdW  Elec       q    Type
REMARK                         _______ _______ _______ _____ _____    ______ ____
ROOT
ATOM      6  N   UNL     1      -3.676 -12.183  12.301  0.00  0.00    -0.157 NA
ATOM      7  N   UNL     1      -3.616 -10.694  15.732  0.00  0.00    -0.328 N 
ATOM      8  N   UNL     1      -1.476 -11.339  15.728  0.00  0.00    -0.240 NA
ATOM      9  C   UNL     1      -2.545 -13.144  12.563  0.00  0.00    +0.194 C 
ATOM     10  C   UNL     1      -4.412 -11.668  13.515  0.00  0.00    +0.165 C 
ATOM     11  C   UNL     1      -1.476 -12.534  13.496  0.00  0.00    +0.089 C 
ATOM     12  C   UNL     1      -3.422 -11.377  14.569  0.00  0.00    +0.057 A 
ATOM     13  C   UNL     1      -2.105 -11.766  14.592  0.00  0.00    +0.066 A 
ATOM     16  C   UNL     1      -2.415 -10.697  16.396  0.00  0.00    +0.200 A 
ENDROOT
BRANCH   6   1
ATOM      1  S   UNL     1      -4.656 -12.506  10.933  0.00  0.00    +0.062 S 
ATOM      2  O   UNL     1      -5.903 -13.091  11.374  0.00  0.00    -0.153 OA
ATOM      3  O   UNL     1      -3.848 -13.148   9.919  0.00  0.00    -0.153 OA
BRANCH   1  17
ATOM     17  C   UNL     1      -4.991 -10.858  10.398  0.00  0.00    +0.106 A 
ATOM     19  C   UNL     1      -6.269 -10.321  10.553  0.00  0.00    +0.028 A 
ATOM     20  C   UNL     1      -3.979 -10.093   9.820  0.00  0.00    +0.028 A 
ATOM     23  C   UNL     1      -6.535  -9.018  10.130  0.00  0.00    +0.002 A 
ATOM     24  C   UNL     1      -4.243  -8.791   9.396  0.00  0.00    +0.002 A 
ATOM     26  C   UNL     1      -5.522  -8.253   9.551  0.00  0.00    +0.000 A 
ENDBRANCH   1  17
ENDBRANCH   6   1
BRANCH   9  14
ATOM      5  O   UNL     1      -3.482 -14.557  14.269  0.00  0.00    -0.249 OA
ATOM     14  C   UNL     1      -3.109 -14.416  13.112  0.00  0.00    +0.326 C 
BRANCH  14   4
ATOM      4  O   UNL     1      -3.135 -15.363  12.131  0.00  0.00    -0.467 OA
ATOM     25  C   UNL     1      -1.861 -15.905  11.766  0.00  0.00    +0.280 C 
ENDBRANCH  14   4
ENDBRANCH   9  14
BRANCH   7  15
ATOM     15  C   UNL     1      -4.839 -10.086  16.193  0.00  0.00    +0.158 C 
BRANCH  15  18
ATOM     18  C   UNL     1      -5.534 -10.881  17.271  0.00  0.00    -0.028 A 
ATOM     21  C   UNL     1      -5.355 -10.543  18.613  0.00  0.00    +0.005 A 
ATOM     22  C   UNL     1      -6.357 -11.953  16.925  0.00  0.00    +0.005 A 
ATOM     27  C   UNL     1      -5.998 -11.279  19.609  0.00  0.00    +0.000 A 
ATOM     28  C   UNL     1      -6.999 -12.687  17.921  0.00  0.00    +0.000 A 
ATOM     29  C   UNL     1      -6.820 -12.351  19.263  0.00  0.00    +0.000 A 
ENDBRANCH  15  18
ENDBRANCH   7  15
TORSDOF 6
ENDMDL
MODEL 7
REMARK VINA RESULT:      -6.3     14.574     17.109
REMARK  Name = 26745445
REMARK  7 active torsions:
REMARK  status: ('A' for Active; 'I' for Inactive)
REMARK    1  A    between atoms: S_1  and  N_6
REMARK    2  A    between atoms: S_1  and  C_17
REMARK    3  A    between atoms: O_4  and  C_14
REMARK    4  A    between atoms: O_4  and  C_25
REMARK    5  A    between atoms: N_7  and  C_15
REMARK    6  A    between atoms: C_9  and  C_14
REMARK    7  A    between atoms: C_15  and  C_18
REMARK                            x       y       z     vdW  Elec       q    Type
REMARK                         _______ _______ _______ _____ _____    ______ ____
ROOT
ATOM      6  N   UNL     1      10.615   6.332   3.510  0.00  0.00    -0.157 NA
ATOM      7  N   UNL     1      11.926   6.404   7.013  0.00  0.00    -0.328 N 
ATOM      8  N   UNL     1       9.809   5.956   7.572  0.00  0.00    -0.240 NA
ATOM      9  C   UNL     1       9.205   6.697   3.898  0.00  0.00    +0.194 C 
ATOM     10  C   UNL     1      11.698   6.710   4.492  0.00  0.00    +0.165 C 
ATOM     11  C   UNL     1       8.802   6.075   5.252  0.00  0.00    +0.089 C 
ATOM     12  C   UNL     1      11.209   6.427   5.854  0.00  0.00    +0.057 A 
ATOM     13  C   UNL     1       9.914   6.154   6.224  0.00  0.00    +0.066 A 
ATOM     16  C   UNL     1      11.040   6.114   8.020  0.00  0.00    +0.200 A 
ENDROOT
BRANCH   6   1
ATOM      1  S   UNL     1      11.028   6.518   1.858  0.00  0.00    +0.062 S 
ATOM      2  O   UNL     1      11.587   7.837   1.657  0.00  0.00    -0.153 OA
ATOM      3  O   UNL     1       9.931   6.041   1.044  0.00  0.00    -0.153 OA
BRANCH   1  17
ATOM     17  C   UNL     1      12.344   5.348   1.736  0.00  0.00    +0.106 A 
ATOM     19  C   UNL     1      13.662   5.791   1.620  0.00  0.00    +0.028 A 
ATOM     20  C   UNL     1      12.067   3.982   1.755  0.00  0.00    +0.028 A 
ATOM     23  C   UNL     1      14.703   4.867   1.524  0.00  0.00    +0.002 A 
ATOM     24  C   UNL     1      13.107   3.057   1.658  0.00  0.00    +0.002 A 
ATOM     26  C   UNL     1      14.425   3.500   1.543  0.00  0.00    +0.000 A 
ENDBRANCH   1  17
ENDBRANCH   6   1
BRANCH   9  14
ATOM      5  O   UNL     1       9.637   8.920   4.705  0.00  0.00    -0.249 OA
ATOM     14  C   UNL     1       9.075   8.187   3.904  0.00  0.00    +0.326 C 
BRANCH  14   4
ATOM      4  O   UNL     1       8.246   8.575   2.893  0.00  0.00    -0.467 OA
ATOM     25  C   UNL     1       7.159   9.422   3.280  0.00  0.00    +0.280 C 
ENDBRANCH  14   4
ENDBRANCH   9  14
BRANCH   7  15
ATOM     15  C   UNL     1      13.340   6.640   7.168  0.00  0.00    +0.158 C 
BRANCH  15  18
ATOM     18  C   UNL     1      13.741   8.071   6.903  0.00  0.00    -0.028 A 
ATOM     21  C   UNL     1      14.982   8.353   6.332  0.00  0.00    +0.005 A 
ATOM     22  C   UNL     1      12.870   9.110   7.230  0.00  0.00    +0.005 A 
ATOM     27  C   UNL     1      15.351   9.676   6.087  0.00  0.00    +0.000 A 
ATOM     28  C   UNL     1      13.240  10.432   6.985  0.00  0.00    +0.000 A 
ATOM     29  C   UNL     1      14.480  10.716   6.413  0.00  0.00    +0.000 A 
ENDBRANCH  15  18
ENDBRANCH   7  15
TORSDOF 6
ENDMDL
MODEL 8
REMARK VINA RESULT:      -6.2     13.724     17.314
REMARK  Name = 26745445
REMARK  7 active torsions:
REMARK  status: ('A' for Active; 'I' for Inactive)
REMARK    1  A    between atoms: S_1  and  N_6
REMARK    2  A    between atoms: S_1  and  C_17
REMARK    3  A    between atoms: O_4  and  C_14
REMARK    4  A    between atoms: O_4  and  C_25
REMARK    5  A    between atoms: N_7  and  C_15
REMARK    6  A    between atoms: C_9  and  C_14
REMARK    7  A    between atoms: C_15  and  C_18
REMARK                            x       y       z     vdW  Elec       q    Type
REMARK                         _______ _______ _______ _____ _____    ______ ____
ROOT
ATOM      6  N   UNL     1      11.374   7.719   5.953  0.00  0.00    -0.157 NA
ATOM      7  N   UNL     1      14.175   7.490   3.484  0.00  0.00    -0.328 N 
ATOM      8  N   UNL     1      15.470   7.907   5.257  0.00  0.00    -0.240 NA
ATOM      9  C   UNL     1      12.125   8.611   6.908  0.00  0.00    +0.194 C 
ATOM     10  C   UNL     1      11.858   7.715   4.522  0.00  0.00    +0.165 C 
ATOM     11  C   UNL     1      13.629   8.265   6.957  0.00  0.00    +0.089 C 
ATOM     12  C   UNL     1      13.333   7.716   4.530  0.00  0.00    +0.057 A 
ATOM     13  C   UNL     1      14.150   7.974   5.604  0.00  0.00    +0.066 A 
ATOM     16  C   UNL     1      15.452   7.614   3.970  0.00  0.00    +0.200 A 
ENDROOT
BRANCH   6   1
ATOM      1  S   UNL     1       9.675   7.640   6.151  0.00  0.00    +0.062 S 
ATOM      2  O   UNL     1       9.074   7.210   4.907  0.00  0.00    -0.153 OA
ATOM      3  O   UNL     1       9.225   8.842   6.820  0.00  0.00    -0.153 OA
BRANCH   1  17
ATOM     17  C   UNL     1       9.559   6.304   7.298  0.00  0.00    +0.106 A 
ATOM     19  C   UNL     1       9.921   5.015   6.907  0.00  0.00    +0.028 A 
ATOM     20  C   UNL     1       9.107   6.537   8.597  0.00  0.00    +0.028 A 
ATOM     23  C   UNL     1       9.830   3.959   7.813  0.00  0.00    +0.002 A 
ATOM     24  C   UNL     1       9.016   5.481   9.504  0.00  0.00    +0.002 A 
ATOM     26  C   UNL     1       9.378   4.192   9.112  0.00  0.00    +0.000 A 
ENDBRANCH   1  17
ENDBRANCH   6   1
BRANCH   9  14
ATOM      5  O   UNL     1      11.742  10.422   5.374  0.00  0.00    -0.249 OA
ATOM     14  C   UNL     1      11.888  10.037   6.526  0.00  0.00    +0.326 C 
BRANCH  14   4
ATOM      4  O   UNL     1      11.865  10.811   7.648  0.00  0.00    -0.467 OA
ATOM     25  C   UNL     1      12.649  12.008   7.585  0.00  0.00    +0.280 C 
ENDBRANCH  14   4
ENDBRANCH   9  14
BRANCH   7  15
ATOM     15  C   UNL     1      13.812   7.183   2.122  0.00  0.00    +0.158 C 
BRANCH  15  18
ATOM     18  C   UNL     1      13.541   5.717   1.890  0.00  0.00    -0.028 A 
ATOM     21  C   UNL     1      14.602   4.837   1.673  0.00  0.00    +0.005 A 
ATOM     22  C   UNL     1      12.230   5.242   1.892  0.00  0.00    +0.005 A 
ATOM     27  C   UNL     1      14.351   3.482   1.458  0.00  0.00    +0.000 A 
ATOM     28  C   UNL     1      11.980   3.887   1.678  0.00  0.00    +0.000 A 
ATOM     29  C   UNL     1      13.040   3.006   1.461  0.00  0.00    +0.000 A 
ENDBRANCH  15  18
ENDBRANCH   7  15
TORSDOF 6
ENDMDL
MODEL 9
REMARK VINA RESULT:      -6.2     26.443     29.154
REMARK  Name = 26745445
REMARK  7 active torsions:
REMARK  status: ('A' for Active; 'I' for Inactive)
REMARK    1  A    between atoms: S_1  and  N_6
REMARK    2  A    between atoms: S_1  and  C_17
REMARK    3  A    between atoms: O_4  and  C_14
REMARK    4  A    between atoms: O_4  and  C_25
REMARK    5  A    between atoms: N_7  and  C_15
REMARK    6  A    between atoms: C_9  and  C_14
REMARK    7  A    between atoms: C_15  and  C_18
REMARK                            x       y       z     vdW  Elec       q    Type
REMARK                         _______ _______ _______ _____ _____    ______ ____
ROOT
ATOM      6  N   UNL     1      -5.661 -12.318  15.967  0.00  0.00    -0.157 NA
ATOM      7  N   UNL     1      -2.269 -11.777  14.486  0.00  0.00    -0.328 N 
ATOM      8  N   UNL     1      -1.873 -10.650  16.375  0.00  0.00    -0.240 NA
ATOM      9  C   UNL     1      -5.618 -11.082  16.830  0.00  0.00    +0.194 C 
ATOM     10  C   UNL     1      -4.742 -12.330  14.770  0.00  0.00    +0.165 C 
ATOM     11  C   UNL     1      -4.197 -10.805  17.368  0.00  0.00    +0.089 C 
ATOM     12  C   UNL     1      -3.445 -11.754  15.174  0.00  0.00    +0.057 A 
ATOM     13  C   UNL     1      -3.178 -11.054  16.325  0.00  0.00    +0.066 A 
ATOM     16  C   UNL     1      -1.352 -11.100  15.250  0.00  0.00    +0.200 A 
ENDROOT
BRANCH   6   1
ATOM      1  S   UNL     1      -7.202 -13.023  15.714  0.00  0.00    +0.062 S 
ATOM      2  O   UNL     1      -7.048 -14.453  15.565  0.00  0.00    -0.153 OA
ATOM      3  O   UNL     1      -7.917 -12.243  14.727  0.00  0.00    -0.153 OA
BRANCH   1  17
ATOM     17  C   UNL     1      -7.942 -12.719  17.287  0.00  0.00    +0.106 A 
ATOM     19  C   UNL     1      -9.221 -12.168  17.361  0.00  0.00    +0.028 A 
ATOM     20  C   UNL     1      -7.249 -13.031  18.456  0.00  0.00    +0.028 A 
ATOM     23  C   UNL     1      -9.807 -11.928  18.604  0.00  0.00    +0.002 A 
ATOM     24  C   UNL     1      -7.834 -12.791  19.699  0.00  0.00    +0.002 A 
ATOM     26  C   UNL     1      -9.113 -12.240  19.773  0.00  0.00    +0.000 A 
ENDBRANCH   1  17
ENDBRANCH   6   1
BRANCH   9  14
ATOM      5  O   UNL     1      -5.848  -9.681  14.889  0.00  0.00    -0.249 OA
ATOM     14  C   UNL     1      -6.157  -9.927  16.047  0.00  0.00    +0.326 C 
BRANCH  14   4
ATOM      4  O   UNL     1      -7.024  -9.216  16.823  0.00  0.00    -0.467 OA
ATOM     25  C   UNL     1      -8.330  -9.024  16.269  0.00  0.00    +0.280 C 
ENDBRANCH  14   4
ENDBRANCH   9  14
BRANCH   7  15
ATOM     15  C   UNL     1      -2.021 -12.385  13.202  0.00  0.00    +0.158 C 
BRANCH  15  18
ATOM     18  C   UNL     1      -2.553 -11.577  12.044  0.00  0.00    -0.028 A 
ATOM     21  C   UNL     1      -3.524 -12.121  11.202  0.00  0.00    +0.005 A 
ATOM     22  C   UNL     1      -2.076 -10.286  11.817  0.00  0.00    +0.005 A 
ATOM     27  C   UNL     1      -4.016 -11.373  10.132  0.00  0.00    +0.000 A 
ATOM     28  C   UNL     1      -2.568  -9.540  10.748  0.00  0.00    +0.000 A 
ATOM     29  C   UNL     1      -3.538 -10.082   9.905  0.00  0.00    +0.000 A 
ENDBRANCH  15  18
ENDBRANCH   7  15
TORSDOF 6
ENDMDL
MODEL 10
REMARK VINA RESULT:      -6.2      2.607      6.298
REMARK  Name = 26745445
REMARK  7 active torsions:
REMARK  status: ('A' for Active; 'I' for Inactive)
REMARK    1  A    between atoms: S_1  and  N_6
REMARK    2  A    between atoms: S_1  and  C_17
REMARK    3  A    between atoms: O_4  and  C_14
REMARK    4  A    between atoms: O_4  and  C_25
REMARK    5  A    between atoms: N_7  and  C_15
REMARK    6  A    between atoms: C_9  and  C_14
REMARK    7  A    between atoms: C_15  and  C_18
REMARK                            x       y       z     vdW  Elec       q    Type
REMARK                         _______ _______ _______ _____ _____    ______ ____
ROOT
ATOM      6  N   UNL     1      14.168   8.693  19.241  0.00  0.00    -0.157 NA
ATOM      7  N   UNL     1      17.293   8.947  21.280  0.00  0.00    -0.328 N 
ATOM      8  N   UNL     1      17.499   6.770  20.820  0.00  0.00    -0.240 NA
ATOM      9  C   UNL     1      13.967   7.223  19.505  0.00  0.00    +0.194 C 
ATOM     10  C   UNL     1      15.020   9.442  20.238  0.00  0.00    +0.165 C 
ATOM     11  C   UNL     1      15.309   6.464  19.587  0.00  0.00    +0.089 C 
ATOM     12  C   UNL     1      16.169   8.590  20.598  0.00  0.00    +0.057 A 
ATOM     13  C   UNL     1      16.317   7.251  20.331  0.00  0.00    +0.066 A 
ATOM     16  C   UNL     1      18.065   7.817  21.389  0.00  0.00    +0.200 A 
ENDROOT
BRANCH   6   1
ATOM      1  S   UNL     1      12.815   9.557  18.641  0.00  0.00    +0.062 S 
ATOM      2  O   UNL     1      11.731   8.629  18.402  0.00  0.00    -0.153 OA
ATOM      3  O   UNL     1      13.261  10.466  17.607  0.00  0.00    -0.153 OA
BRANCH   1  17
ATOM     17  C   UNL     1      12.404  10.514  20.066  0.00  0.00    +0.106 A 
ATOM     19  C   UNL     1      11.576   9.977  21.052  0.00  0.00    +0.028 A 
ATOM     20  C   UNL     1      12.907  11.807  20.206  0.00  0.00    +0.028 A 
ATOM     23  C   UNL     1      11.251  10.733  22.178  0.00  0.00    +0.002 A 
ATOM     24  C   UNL     1      12.582  12.564  21.332  0.00  0.00    +0.002 A 
ATOM     26  C   UNL     1      11.754  12.027  22.318  0.00  0.00    +0.000 A 
ENDBRANCH   1  17
ENDBRANCH   6   1
BRANCH   9  14
ATOM      5  O   UNL     1      13.542   7.373  21.867  0.00  0.00    -0.249 OA
ATOM     14  C   UNL     1      13.154   7.062  20.749  0.00  0.00    +0.326 C 
BRANCH  14   4
ATOM      4  O   UNL     1      11.941   6.523  20.435  0.00  0.00    -0.467 OA
ATOM     25  C   UNL     1      11.221   5.948  21.530  0.00  0.00    +0.280 C 
ENDBRANCH  14   4
ENDBRANCH   9  14
BRANCH   7  15
ATOM     15  C   UNL     1      17.621  10.252  21.800  0.00  0.00    +0.158 C 
BRANCH  15  18
ATOM     18  C   UNL     1      18.443  11.086  20.849  0.00  0.00    -0.028 A 
ATOM     21  C   UNL     1      19.836  11.015  20.883  0.00  0.00    +0.005 A 
ATOM     22  C   UNL     1      17.810  11.928  19.935  0.00  0.00    +0.005 A 
ATOM     27  C   UNL     1      20.596  11.787  20.003  0.00  0.00    +0.000 A 
ATOM     28  C   UNL     1      18.569  12.698  19.055  0.00  0.00    +0.000 A 
ATOM     29  C   UNL     1      19.962  12.628  19.089  0.00  0.00    +0.000 A 
ENDBRANCH  15  18
ENDBRANCH   7  15
TORSDOF 6
ENDMDL
