REMARK  Name = 38026882
REMARK  12 active torsions:
REMARK  status: ('A' for Active; 'I' for Inactive)
REMARK    1  A    between atoms: N_5  and  C_16
REMARK    2  A    between atoms: N_7  and  C_27
REMARK    3  A    between atoms: C_8  and  C_12
REMARK    4  A    between atoms: C_9  and  C_16
REMARK    5  A    between atoms: C_11  and  C_15
REMARK    6  A    between atoms: C_12  and  C_17
REMARK    7  A    between atoms: C_12  and  C_18
REMARK    8  A    between atoms: C_13  and  C_19
REMARK    9  A    between atoms: C_15  and  C_20
REMARK   10  A    between atoms: C_26  and  C_28
REMARK   11  A    between atoms: C_27  and  C_29
REMARK   12  A    between atoms: C_27  and  C_30
REMARK                            x       y       z     vdW  Elec       q    Type
REMARK                         _______ _______ _______ _____ _____    ______ ____
ROOT
ATOM      8  C   UNL     1      -2.575   1.369   0.646  0.00  0.00    +0.000 C 
ATOM      9  C   UNL     1      -3.594   1.295  -0.519  0.00  0.00    +0.032 C 
ATOM     10  C   UNL     1      -1.561   2.496   0.401  0.00  0.00    +0.012 C 
ATOM     11  C   UNL     1      -0.784   2.305  -0.916  0.00  0.00    +0.023 C 
ATOM     13  C   UNL     1      -1.705   1.961  -2.068  0.00  0.00    -0.073 C 
ATOM     14  C   UNL     1      -2.962   1.524  -1.872  0.00  0.00    -0.022 C 
ATOM     19  C   UNL     1      -1.164   2.174  -3.455  0.00  0.00    +0.039 C 
ENDROOT
BRANCH   8  12
ATOM     12  C   UNL     1      -3.269   1.579   1.995  0.00  0.00    -0.013 C 
ATOM     17  C   UNL     1      -2.391   1.064   3.131  0.00  0.00    +0.007 C 
ATOM     18  C   UNL     1      -3.605   3.054   2.196  0.00  0.00    +0.007 C 
ENDBRANCH   8  12
BRANCH  11  15
ATOM     15  C   UNL     1       0.316   1.250  -0.759  0.00  0.00    +0.103 C 
BRANCH  15  20
ATOM      1  O   UNL     1       1.409   2.990   0.422  0.00  0.00    -0.276 OA
ATOM      3  O   UNL     1       6.182  -2.291  -0.217  0.00  0.00    -0.276 OA
ATOM      4  N   UNL     1       2.546   0.971   0.264  0.00  0.00    -0.298 N 
ATOM      6  N   UNL     1       5.072  -0.254  -0.117  0.00  0.00    -0.299 N 
ATOM     20  C   UNL     1       1.467   1.822   0.030  0.00  0.00    +0.216 C 
ATOM     21  C   UNL     1       3.706   1.452   1.020  0.00  0.00    +0.126 C 
ATOM     22  C   UNL     1       2.615  -0.444  -0.124  0.00  0.00    +0.126 C 
ATOM     23  C   UNL     1       5.004   1.161   0.271  0.00  0.00    +0.126 C 
ATOM     24  C   UNL     1       3.913  -0.734  -0.873  0.00  0.00    +0.126 C 
ATOM     26  C   UNL     1       6.150  -1.105   0.119  0.00  0.00    +0.213 C 
ATOM     28  C   UNL     1       7.335  -0.510   0.838  0.00  0.00    +0.109 C 
ENDBRANCH  15  20
ENDBRANCH  11  15
BRANCH   9  16
ATOM     16  C   UNL     1      -4.335  -0.047  -0.522  0.00  0.00    +0.113 C 
BRANCH  16   5
ATOM      2  O   UNL     1      -3.748  -2.310   1.170  0.00  0.00    -0.253 OA
ATOM      5  N   UNL     1      -3.436  -1.123  -0.803  0.00  0.00    -0.299 N 
ATOM      7  N   UNL     1      -2.283  -3.096  -0.448  0.00  0.00    -0.297 N 
ATOM     25  C   UNL     1      -3.203  -2.190   0.074  0.00  0.00    +0.300 C 
ATOM     31  H   UNL     1      -2.986  -1.153  -1.713  0.00  0.00    +0.150 HD
ATOM     32  H   UNL     1      -1.942  -2.947  -1.393  0.00  0.00    +0.150 HD
BRANCH   7  27
ATOM     27  C   UNL     1      -1.869  -4.285   0.258  0.00  0.00    +0.068 C 
ATOM     29  C   UNL     1      -0.427  -4.632  -0.088  0.00  0.00    +0.027 C 
ATOM     30  C   UNL     1      -2.806  -5.446  -0.054  0.00  0.00    +0.027 C 
ENDBRANCH   7  27
ENDBRANCH  16   5
ENDBRANCH   9  16
TORSDOF 6
