REMARK  Name = 75536609
REMARK  8 active torsions:
REMARK  status: ('A' for Active; 'I' for Inactive)
REMARK    1  A    between atoms: O_3  and  C_9
REMARK    2  A    between atoms: N_5  and  C_8
REMARK    3  A    between atoms: N_5  and  C_13
REMARK    4  A    between atoms: N_6  and  C_12
REMARK    5  A    between atoms: C_10  and  C_12
REMARK    6  A    between atoms: C_13  and  C_14
REMARK    7  A    between atoms: C_15  and  C_18
REMARK    8  A    between atoms: C_19  and  C_25
REMARK                            x       y       z     vdW  Elec       q    Type
REMARK                         _______ _______ _______ _____ _____    ______ ____
ROOT
ATOM      2  O   UNL     1       1.248   0.776   0.385  0.00  0.00    -0.371 OA
ATOM      8  C   UNL     1      -0.697  -0.585   0.320  0.00  0.00    +0.111 C 
ATOM      9  C   UNL     1       0.232  -0.996  -0.807  0.00  0.00    +0.164 C 
ATOM     10  C   UNL     1       1.560  -0.444  -0.309  0.00  0.00    +0.165 C 
ATOM     11  C   UNL     1      -0.163   0.796   0.662  0.00  0.00    +0.181 C 
ENDROOT
BRANCH   9   3
ATOM      3  O   UNL     1       0.279  -2.397  -0.993  0.00  0.00    -0.388 OA
ATOM     27  H   UNL     1       0.539  -2.808  -0.151  0.00  0.00    +0.210 HD
ENDBRANCH   9   3
BRANCH   8   5
ATOM      5  N   UNL     1      -2.101  -0.572  -0.056  0.00  0.00    -0.305 NA
ATOM     26  H   UNL     1      -2.316  -1.425  -0.573  0.00  0.00    +0.123 HD
BRANCH   5  13
ATOM     13  C   UNL     1      -2.960  -0.505   1.121  0.00  0.00    +0.116 C 
BRANCH  13  14
ATOM     14  C   UNL     1      -4.419  -0.473   0.749  0.00  0.00    -0.032 A 
ATOM     16  C   UNL     1      -4.990   0.701   0.259  0.00  0.00    +0.023 A 
ATOM     17  C   UNL     1      -5.199  -1.621   0.894  0.00  0.00    +0.005 A 
ATOM     19  C   UNL     1      -6.341   0.729  -0.086  0.00  0.00    +0.052 A 
ATOM     20  C   UNL     1      -6.550  -1.593   0.549  0.00  0.00    +0.002 A 
ATOM     21  C   UNL     1      -7.121  -0.419   0.059  0.00  0.00    +0.019 A 
BRANCH  19  25
ATOM      7  N   UNL     1      -7.403   2.908  -0.997  0.00  0.00    -0.191 NA
ATOM     25  C   UNL     1      -6.927   1.931  -0.588  0.00  0.00    +0.099 C 
ENDBRANCH  19  25
ENDBRANCH  13  14
ENDBRANCH   5  13
ENDBRANCH   8   5
BRANCH  10  12
ATOM     12  C   UNL     1       2.550  -0.162  -1.425  0.00  0.00    +0.138 C 
BRANCH  12   6
ATOM      4  O   UNL     1       4.849  -1.680  -0.619  0.00  0.00    -0.270 OA
ATOM      6  N   UNL     1       3.783   0.360  -0.910  0.00  0.00    -0.308 N 
ATOM     15  C   UNL     1       4.850  -0.455  -0.542  0.00  0.00    +0.251 C 
ATOM     28  H   UNL     1       3.849   1.366  -0.805  0.00  0.00    +0.149 HD
BRANCH  15  18
ATOM      1  S   UNL     1       7.405  -0.692   0.474  0.00  0.00    -0.092 S 
ATOM     18  C   UNL     1       6.048   0.238  -0.001  0.00  0.00    +0.074 A 
ATOM     22  C   UNL     1       6.253   1.587   0.190  0.00  0.00    +0.021 A 
ATOM     23  C   UNL     1       7.541   1.860   0.734  0.00  0.00    +0.008 A 
ATOM     24  C   UNL     1       8.272   0.710   0.938  0.00  0.00    +0.046 A 
ENDBRANCH  15  18
ENDBRANCH  12   6
ENDBRANCH  10  12
TORSDOF 8
