REMARK  Name = 45360576
REMARK  5 active torsions:
REMARK  status: ('A' for Active; 'I' for Inactive)
REMARK    1  A    between atoms: O_4  and  C_11
REMARK    2  A    between atoms: N_6  and  C_10
REMARK    3  A    between atoms: N_7  and  C_12
REMARK    4  A    between atoms: N_8  and  C_21
REMARK    5  A    between atoms: N_9  and  C_22
REMARK                            x       y       z     vdW  Elec       q    Type
REMARK                         _______ _______ _______ _____ _____    ______ ____
ROOT
ATOM      2  O   UNL     1      -2.686  -1.256  -1.593  0.00  0.00    -0.342 OA
ATOM      3  O   UNL     1      -4.095  -2.408  -0.155  0.00  0.00    -0.347 OA
ATOM     10  C   UNL     1      -2.980  -0.418   0.649  0.00  0.00    +0.144 C 
ATOM     11  C   UNL     1      -1.783  -1.262   1.142  0.00  0.00    +0.159 C 
ATOM     12  C   UNL     1      -1.047  -2.008   0.008  0.00  0.00    +0.136 C 
ATOM     13  C   UNL     1      -3.661  -1.098  -0.554  0.00  0.00    +0.270 C 
ATOM     14  C   UNL     1      -1.978  -2.419  -1.152  0.00  0.00    +0.170 C 
ATOM     15  C   UNL     1      -3.136  -3.306  -0.735  0.00  0.00    +0.196 C 
ENDROOT
BRANCH  10   6
ATOM      6  N   UNL     1      -2.530   0.920   0.271  0.00  0.00    -0.290 NA
ATOM      8  N   UNL     1      -2.794   3.798   0.194  0.00  0.00    -0.303 NA
ATOM     16  C   UNL     1      -2.279   1.741   1.462  0.00  0.00    +0.100 C 
ATOM     17  C   UNL     1      -3.513   1.573  -0.604  0.00  0.00    +0.100 C 
ATOM     18  C   UNL     1      -1.811   3.146   1.067  0.00  0.00    +0.099 C 
ATOM     19  C   UNL     1      -3.045   2.978  -0.998  0.00  0.00    +0.099 C 
ATOM     21  C   UNL     1      -2.346   5.138  -0.183  0.00  0.00    +0.105 C 
ENDBRANCH  10   6
BRANCH  12   7
ATOM      5  O   UNL     1       1.641  -1.938   0.994  0.00  0.00    -0.252 OA
ATOM      7  N   UNL     1       0.039  -1.198  -0.499  0.00  0.00    -0.291 N 
ATOM      9  N   UNL     1       2.160  -0.343  -0.647  0.00  0.00    -0.269 N 
ATOM     20  C   UNL     1       1.326  -1.225   0.044  0.00  0.00    +0.304 C 
ATOM     28  H   UNL     1      -0.164  -0.525  -1.232  0.00  0.00    +0.151 HD
ATOM     30  H   UNL     1       1.741   0.176  -1.415  0.00  0.00    +0.156 HD
BRANCH   9  22
ATOM      1  F   UNL     1       7.526   0.699   0.280  0.00  0.00    -0.205 F 
ATOM     22  C   UNL     1       3.529  -0.077  -0.411  0.00  0.00    +0.035 A 
ATOM     23  C   UNL     1       4.209   0.845  -1.207  0.00  0.00    +0.026 A 
ATOM     24  C   UNL     1       4.200  -0.737   0.619  0.00  0.00    +0.026 A 
ATOM     25  C   UNL     1       5.559   1.107  -0.974  0.00  0.00    +0.040 A 
ATOM     26  C   UNL     1       5.550  -0.475   0.852  0.00  0.00    +0.040 A 
ATOM     27  C   UNL     1       6.229   0.447   0.055  0.00  0.00    +0.124 A 
ENDBRANCH   9  22
ENDBRANCH  12   7
BRANCH  11   4
ATOM      4  O   UNL     1      -2.284  -2.225   2.078  0.00  0.00    -0.388 OA
ATOM     29  H   UNL     1      -1.522  -2.716   2.432  0.00  0.00    +0.210 HD
ENDBRANCH  11   4
TORSDOF 4
