MODEL 1
REMARK VINA RESULT:      -6.3      0.000      0.000
REMARK  Name = 28961797
REMARK  10 active torsions:
REMARK  status: ('A' for Active; 'I' for Inactive)
REMARK    1  A    between atoms: O_4  and  C_13
REMARK    2  A    between atoms: O_5  and  C_19
REMARK    3  A    between atoms: O_5  and  C_22
REMARK    4  A    between atoms: O_6  and  C_20
REMARK    5  A    between atoms: N_8  and  C_10
REMARK    6  A    between atoms: N_9  and  C_18
REMARK    7  A    between atoms: C_11  and  C_19
REMARK    8  A    between atoms: C_12  and  C_18
REMARK    9  A    between atoms: C_15  and  C_20
REMARK   10  A    between atoms: C_21  and  C_23
REMARK                            x       y       z     vdW  Elec       q    Type
REMARK                         _______ _______ _______ _____ _____    ______ ____
ROOT
ATOM      3  O   UNL     1     -15.640   0.507  29.393  0.00  0.00    -0.365 OA
ATOM     10  C   UNL     1     -15.089   2.204  30.971  0.00  0.00    +0.118 C 
ATOM     12  C   UNL     1     -15.977   1.862  29.767  0.00  0.00    +0.155 C 
ATOM     13  C   UNL     1     -13.889   1.289  30.782  0.00  0.00    +0.165 C 
ATOM     15  C   UNL     1     -14.571   0.039  30.238  0.00  0.00    +0.174 C 
ENDROOT
BRANCH  10   8
ATOM      8  N   UNL     1     -14.773   3.610  31.157  0.00  0.00    -0.289 NA
ATOM     11  C   UNL     1     -15.903   4.468  31.533  0.00  0.00    +0.083 C 
ATOM     14  C   UNL     1     -13.717   3.833  32.142  0.00  0.00    +0.085 C 
ATOM     16  C   UNL     1     -15.173   5.759  31.901  0.00  0.00    +0.022 C 
ATOM     17  C   UNL     1     -13.855   5.303  32.519  0.00  0.00    +0.017 C 
BRANCH  11  19
ATOM     19  C   UNL     1     -16.775   3.968  32.689  0.00  0.00    +0.178 C 
BRANCH  19   5
ATOM      5  O   UNL     1     -18.116   4.351  32.443  0.00  0.00    -0.381 OA
ATOM     22  C   UNL     1     -18.443   4.261  31.061  0.00  0.00    +0.194 C 
ENDBRANCH  19   5
ENDBRANCH  11  19
ENDBRANCH  10   8
BRANCH  13   4
ATOM      4  O   UNL     1     -12.980   1.814  29.823  0.00  0.00    -0.388 OA
ATOM     29  H   UNL     1     -12.430   2.478  30.273  0.00  0.00    +0.210 HD
ENDBRANCH  13   4
BRANCH  12  18
ATOM     18  C   UNL     1     -15.806   2.729  28.523  0.00  0.00    +0.137 C 
BRANCH  18   9
ATOM      7  O   UNL     1     -15.980   3.828  25.876  0.00  0.00    -0.270 OA
ATOM      9  N   UNL     1     -16.407   2.112  27.379  0.00  0.00    -0.309 N 
ATOM     21  C   UNL     1     -16.447   2.720  26.126  0.00  0.00    +0.244 C 
ATOM     30  H   UNL     1     -16.873   1.225  27.533  0.00  0.00    +0.149 HD
BRANCH  21  23
ATOM      1 CL   UNL     1     -18.416   2.638  21.323  0.00  0.00    -0.081 Cl
ATOM      2  F   UNL     1     -19.025  -0.168  22.057  0.00  0.00    -0.204 F 
ATOM     23  C   UNL     1     -17.129   1.960  25.048  0.00  0.00    +0.038 A 
ATOM     24  C   UNL     1     -17.420   2.581  23.833  0.00  0.00    +0.036 A 
ATOM     25  C   UNL     1     -17.478   0.625  25.249  0.00  0.00    +0.016 A 
ATOM     26  C   UNL     1     -18.060   1.867  22.820  0.00  0.00    +0.077 A 
ATOM     27  C   UNL     1     -18.119  -0.089  24.237  0.00  0.00    +0.040 A 
ATOM     28  C   UNL     1     -18.410   0.532  23.022  0.00  0.00    +0.142 A 
ENDBRANCH  21  23
ENDBRANCH  18   9
ENDBRANCH  12  18
BRANCH  15  20
ATOM     20  C   UNL     1     -13.680  -0.898  29.444  0.00  0.00    +0.190 C 
BRANCH  20   6
ATOM      6  O   UNL     1     -12.433  -1.019  30.109  0.00  0.00    -0.392 OA
ATOM     31  H   UNL     1     -12.082  -0.120  30.224  0.00  0.00    +0.210 HD
ENDBRANCH  20   6
ENDBRANCH  15  20
TORSDOF 9
ENDMDL
MODEL 2
REMARK VINA RESULT:      -6.0     20.724     23.779
REMARK  Name = 28961797
REMARK  10 active torsions:
REMARK  status: ('A' for Active; 'I' for Inactive)
REMARK    1  A    between atoms: O_4  and  C_13
REMARK    2  A    between atoms: O_5  and  C_19
REMARK    3  A    between atoms: O_5  and  C_22
REMARK    4  A    between atoms: O_6  and  C_20
REMARK    5  A    between atoms: N_8  and  C_10
REMARK    6  A    between atoms: N_9  and  C_18
REMARK    7  A    between atoms: C_11  and  C_19
REMARK    8  A    between atoms: C_12  and  C_18
REMARK    9  A    between atoms: C_15  and  C_20
REMARK   10  A    between atoms: C_21  and  C_23
REMARK                            x       y       z     vdW  Elec       q    Type
REMARK                         _______ _______ _______ _____ _____    ______ ____
ROOT
ATOM      3  O   UNL     1      -2.065 -12.809  12.989  0.00  0.00    -0.365 OA
ATOM     10  C   UNL     1      -3.703 -11.527  11.832  0.00  0.00    +0.118 C 
ATOM     12  C   UNL     1      -2.292 -11.495  12.432  0.00  0.00    +0.155 C 
ATOM     13  C   UNL     1      -4.399 -12.605  12.649  0.00  0.00    +0.165 C 
ATOM     15  C   UNL     1      -3.258 -13.600  12.830  0.00  0.00    +0.174 C 
ENDROOT
BRANCH  10   8
ATOM      8  N   UNL     1      -4.401 -10.255  11.765  0.00  0.00    -0.289 NA
ATOM     11  C   UNL     1      -4.084  -9.419  10.601  0.00  0.00    +0.083 C 
ATOM     14  C   UNL     1      -5.855 -10.397  11.809  0.00  0.00    +0.085 C 
ATOM     16  C   UNL     1      -5.164  -8.344  10.715  0.00  0.00    +0.022 C 
ATOM     17  C   UNL     1      -6.382  -9.069  11.279  0.00  0.00    +0.017 C 
BRANCH  11  19
ATOM     19  C   UNL     1      -4.130 -10.116   9.238  0.00  0.00    +0.178 C 
BRANCH  19   5
ATOM      5  O   UNL     1      -4.689  -9.224   8.291  0.00  0.00    -0.381 OA
ATOM     22  C   UNL     1      -5.551  -9.895   7.380  0.00  0.00    +0.194 C 
ENDBRANCH  19   5
ENDBRANCH  11  19
ENDBRANCH  10   8
BRANCH  13   4
ATOM      4  O   UNL     1      -4.826 -12.108  13.911  0.00  0.00    -0.388 OA
ATOM     29  H   UNL     1      -5.796 -12.173  13.938  0.00  0.00    +0.210 HD
ENDBRANCH  13   4
BRANCH  12  18
ATOM     18  C   UNL     1      -2.044 -10.483  13.546  0.00  0.00    +0.137 C 
BRANCH  18   9
ATOM      7  O   UNL     1      -1.586 -10.498  16.380  0.00  0.00    -0.270 OA
ATOM      9  N   UNL     1      -3.037 -10.593  14.571  0.00  0.00    -0.309 N 
ATOM     21  C   UNL     1      -2.725 -10.591  15.929  0.00  0.00    +0.244 C 
ATOM     30  H   UNL     1      -3.992 -10.742  14.266  0.00  0.00    +0.149 HD
BRANCH  21  23
ATOM      1 CL   UNL     1      -7.571  -9.281  17.255  0.00  0.00    -0.081 Cl
ATOM      2  F   UNL     1      -7.035 -11.160  19.484  0.00  0.00    -0.204 F 
ATOM     23  C   UNL     1      -3.867 -10.738  16.867  0.00  0.00    +0.038 A 
ATOM     24  C   UNL     1      -5.045 -10.025  16.649  0.00  0.00    +0.036 A 
ATOM     25  C   UNL     1      -3.761 -11.590  17.966  0.00  0.00    +0.016 A 
ATOM     26  C   UNL     1      -6.118 -10.163  17.530  0.00  0.00    +0.077 A 
ATOM     27  C   UNL     1      -4.833 -11.729  18.847  0.00  0.00    +0.040 A 
ATOM     28  C   UNL     1      -6.012 -11.015  18.629  0.00  0.00    +0.142 A 
ENDBRANCH  21  23
ENDBRANCH  18   9
ENDBRANCH  12  18
BRANCH  15  20
ATOM     20  C   UNL     1      -3.394 -14.543  14.010  0.00  0.00    +0.190 C 
BRANCH  20   6
ATOM      6  O   UNL     1      -3.015 -13.858  15.192  0.00  0.00    -0.392 OA
ATOM     31  H   UNL     1      -2.659 -14.522  15.807  0.00  0.00    +0.210 HD
ENDBRANCH  20   6
ENDBRANCH  15  20
TORSDOF 9
ENDMDL
MODEL 3
REMARK VINA RESULT:      -6.0     19.812     22.502
REMARK  Name = 28961797
REMARK  10 active torsions:
REMARK  status: ('A' for Active; 'I' for Inactive)
REMARK    1  A    between atoms: O_4  and  C_13
REMARK    2  A    between atoms: O_5  and  C_19
REMARK    3  A    between atoms: O_5  and  C_22
REMARK    4  A    between atoms: O_6  and  C_20
REMARK    5  A    between atoms: N_8  and  C_10
REMARK    6  A    between atoms: N_9  and  C_18
REMARK    7  A    between atoms: C_11  and  C_19
REMARK    8  A    between atoms: C_12  and  C_18
REMARK    9  A    between atoms: C_15  and  C_20
REMARK   10  A    between atoms: C_21  and  C_23
REMARK                            x       y       z     vdW  Elec       q    Type
REMARK                         _______ _______ _______ _____ _____    ______ ____
ROOT
ATOM      3  O   UNL     1      -5.129 -10.110  18.210  0.00  0.00    -0.365 OA
ATOM     10  C   UNL     1      -4.423 -11.900  16.807  0.00  0.00    +0.118 C 
ATOM     12  C   UNL     1      -4.797 -10.412  16.837  0.00  0.00    +0.155 C 
ATOM     13  C   UNL     1      -5.183 -12.467  17.997  0.00  0.00    +0.165 C 
ATOM     15  C   UNL     1      -5.048 -11.319  18.990  0.00  0.00    +0.174 C 
ENDROOT
BRANCH  10   8
ATOM      8  N   UNL     1      -4.638 -12.591  15.548  0.00  0.00    -0.289 NA
ATOM     11  C   UNL     1      -3.718 -12.233  14.463  0.00  0.00    +0.083 C 
ATOM     14  C   UNL     1      -4.601 -14.046  15.681  0.00  0.00    +0.085 C 
ATOM     16  C   UNL     1      -4.050 -13.312  13.434  0.00  0.00    +0.022 C 
ATOM     17  C   UNL     1      -4.386 -14.551  14.259  0.00  0.00    +0.017 C 
BRANCH  11  19
ATOM     19  C   UNL     1      -2.227 -12.234  14.815  0.00  0.00    +0.178 C 
BRANCH  19   5
ATOM      5  O   UNL     1      -1.701 -10.945  14.561  0.00  0.00    -0.381 OA
ATOM     22  C   UNL     1      -1.102 -10.383  15.723  0.00  0.00    +0.194 C 
ENDBRANCH  19   5
ENDBRANCH  11  19
ENDBRANCH  10   8
BRANCH  13   4
ATOM      4  O   UNL     1      -6.550 -12.692  17.682  0.00  0.00    -0.388 OA
ATOM     29  H   UNL     1      -6.755 -13.616  17.907  0.00  0.00    +0.210 HD
ENDBRANCH  13   4
BRANCH  12  18
ATOM     18  C   UNL     1      -5.988  -9.989  15.982  0.00  0.00    +0.137 C 
BRANCH  18   9
ATOM      7  O   UNL     1      -7.398 -10.601  13.557  0.00  0.00    -0.270 OA
ATOM      9  N   UNL     1      -5.576  -9.667  14.649  0.00  0.00    -0.309 N 
ATOM     21  C   UNL     1      -6.326 -10.003  13.524  0.00  0.00    +0.244 C 
ATOM     30  H   UNL     1      -4.664  -9.235  14.546  0.00  0.00    +0.149 HD
BRANCH  21  23
ATOM      1 CL   UNL     1      -7.006  -7.905   8.823  0.00  0.00    -0.081 Cl
ATOM      2  F   UNL     1      -4.128  -8.560   8.561  0.00  0.00    -0.204 F 
ATOM     23  C   UNL     1      -5.748  -9.620  12.210  0.00  0.00    +0.038 A 
ATOM     24  C   UNL     1      -6.552  -9.014  11.244  0.00  0.00    +0.036 A 
ATOM     25  C   UNL     1      -4.403  -9.867  11.941  0.00  0.00    +0.016 A 
ATOM     26  C   UNL     1      -6.010  -8.654  10.010  0.00  0.00    +0.077 A 
ATOM     27  C   UNL     1      -3.860  -9.508  10.707  0.00  0.00    +0.040 A 
ATOM     28  C   UNL     1      -4.664  -8.901   9.742  0.00  0.00    +0.142 A 
ENDBRANCH  21  23
ENDBRANCH  18   9
ENDBRANCH  12  18
BRANCH  15  20
ATOM     20  C   UNL     1      -6.095 -11.278  20.087  0.00  0.00    +0.190 C 
BRANCH  20   6
ATOM      6  O   UNL     1      -7.075 -10.308  19.751  0.00  0.00    -0.392 OA
ATOM     31  H   UNL     1      -7.039 -10.188  18.786  0.00  0.00    +0.210 HD
ENDBRANCH  20   6
ENDBRANCH  15  20
TORSDOF 9
ENDMDL
MODEL 4
REMARK VINA RESULT:      -5.8     20.766     23.915
REMARK  Name = 28961797
REMARK  10 active torsions:
REMARK  status: ('A' for Active; 'I' for Inactive)
REMARK    1  A    between atoms: O_4  and  C_13
REMARK    2  A    between atoms: O_5  and  C_19
REMARK    3  A    between atoms: O_5  and  C_22
REMARK    4  A    between atoms: O_6  and  C_20
REMARK    5  A    between atoms: N_8  and  C_10
REMARK    6  A    between atoms: N_9  and  C_18
REMARK    7  A    between atoms: C_11  and  C_19
REMARK    8  A    between atoms: C_12  and  C_18
REMARK    9  A    between atoms: C_15  and  C_20
REMARK   10  A    between atoms: C_21  and  C_23
REMARK                            x       y       z     vdW  Elec       q    Type
REMARK                         _______ _______ _______ _____ _____    ______ ____
ROOT
ATOM      3  O   UNL     1      -7.654  -9.850  10.217  0.00  0.00    -0.365 OA
ATOM     10  C   UNL     1      -5.297 -10.165  10.349  0.00  0.00    +0.118 C 
ATOM     12  C   UNL     1      -6.599 -10.141  11.161  0.00  0.00    +0.155 C 
ATOM     13  C   UNL     1      -5.615  -9.263   9.166  0.00  0.00    +0.165 C 
ATOM     15  C   UNL     1      -7.073  -9.630   8.917  0.00  0.00    +0.174 C 
ENDROOT
BRANCH  10   8
ATOM      8  N   UNL     1      -4.083  -9.832  11.073  0.00  0.00    -0.289 NA
ATOM     11  C   UNL     1      -3.481 -10.929  11.840  0.00  0.00    +0.083 C 
ATOM     14  C   UNL     1      -3.036  -9.284  10.213  0.00  0.00    +0.085 C 
ATOM     16  C   UNL     1      -2.135 -10.313  12.218  0.00  0.00    +0.022 C 
ATOM     17  C   UNL     1      -1.758  -9.435  11.029  0.00  0.00    +0.017 C 
BRANCH  11  19
ATOM     19  C   UNL     1      -3.301 -12.254  11.093  0.00  0.00    +0.178 C 
BRANCH  19   5
ATOM      5  O   UNL     1      -3.682 -13.314  11.951  0.00  0.00    -0.381 OA
ATOM     22  C   UNL     1      -2.639 -14.269  12.103  0.00  0.00    +0.194 C 
ENDBRANCH  19   5
ENDBRANCH  11  19
ENDBRANCH  10   8
BRANCH  13   4
ATOM      4  O   UNL     1      -5.502  -7.889   9.514  0.00  0.00    -0.388 OA
ATOM     29  H   UNL     1      -4.884  -7.478   8.886  0.00  0.00    +0.210 HD
ENDBRANCH  13   4
BRANCH  12  18
ATOM     18  C   UNL     1      -6.691  -9.104  12.275  0.00  0.00    +0.137 C 
BRANCH  18   9
ATOM      7  O   UNL     1      -7.928  -9.878  14.748  0.00  0.00    -0.270 OA
ATOM      9  N   UNL     1      -6.025  -9.559  13.458  0.00  0.00    -0.309 N 
ATOM     21  C   UNL     1      -6.707  -9.916  14.620  0.00  0.00    +0.244 C 
ATOM     30  H   UNL     1      -5.012  -9.547  13.443  0.00  0.00    +0.149 HD
BRANCH  21  23
ATOM      1 CL   UNL     1      -6.284 -10.764  19.725  0.00  0.00    -0.081 Cl
ATOM      2  F   UNL     1      -3.528 -11.535  18.957  0.00  0.00    -0.204 F 
ATOM     23  C   UNL     1      -5.870 -10.343  15.769  0.00  0.00    +0.038 A 
ATOM     24  C   UNL     1      -6.404 -10.352  17.057  0.00  0.00    +0.036 A 
ATOM     25  C   UNL     1      -4.548 -10.735  15.561  0.00  0.00    +0.016 A 
ATOM     26  C   UNL     1      -5.618 -10.753  18.138  0.00  0.00    +0.077 A 
ATOM     27  C   UNL     1      -3.761 -11.136  16.641  0.00  0.00    +0.040 A 
ATOM     28  C   UNL     1      -4.296 -11.145  17.929  0.00  0.00    +0.142 A 
ENDBRANCH  21  23
ENDBRANCH  18   9
ENDBRANCH  12  18
BRANCH  15  20
ATOM     20  C   UNL     1      -7.890  -8.590   8.174  0.00  0.00    +0.190 C 
BRANCH  20   6
ATOM      6  O   UNL     1      -7.098  -8.040   7.134  0.00  0.00    -0.392 OA
ATOM     31  H   UNL     1      -6.169  -8.222   7.355  0.00  0.00    +0.210 HD
ENDBRANCH  20   6
ENDBRANCH  15  20
TORSDOF 9
ENDMDL
MODEL 5
REMARK VINA RESULT:      -5.8     36.232     38.508
REMARK  Name = 28961797
REMARK  10 active torsions:
REMARK  status: ('A' for Active; 'I' for Inactive)
REMARK    1  A    between atoms: O_4  and  C_13
REMARK    2  A    between atoms: O_5  and  C_19
REMARK    3  A    between atoms: O_5  and  C_22
REMARK    4  A    between atoms: O_6  and  C_20
REMARK    5  A    between atoms: N_8  and  C_10
REMARK    6  A    between atoms: N_9  and  C_18
REMARK    7  A    between atoms: C_11  and  C_19
REMARK    8  A    between atoms: C_12  and  C_18
REMARK    9  A    between atoms: C_15  and  C_20
REMARK   10  A    between atoms: C_21  and  C_23
REMARK                            x       y       z     vdW  Elec       q    Type
REMARK                         _______ _______ _______ _____ _____    ______ ____
ROOT
ATOM      3  O   UNL     1      11.938   6.830   1.681  0.00  0.00    -0.365 OA
ATOM     10  C   UNL     1      12.375   5.304  -0.095  0.00  0.00    +0.118 C 
ATOM     12  C   UNL     1      11.274   6.087   0.634  0.00  0.00    +0.155 C 
ATOM     13  C   UNL     1      13.448   5.150   0.972  0.00  0.00    +0.165 C 
ATOM     15  C   UNL     1      13.340   6.497   1.677  0.00  0.00    +0.174 C 
ENDROOT
BRANCH  10   8
ATOM      8  N   UNL     1      11.964   4.071  -0.743  0.00  0.00    -0.289 NA
ATOM     11  C   UNL     1      10.967   4.217  -1.810  0.00  0.00    +0.083 C 
ATOM     14  C   UNL     1      13.085   3.318  -1.301  0.00  0.00    +0.085 C 
ATOM     16  C   UNL     1      10.990   2.817  -2.420  0.00  0.00    +0.022 C 
ATOM     17  C   UNL     1      12.439   2.356  -2.291  0.00  0.00    +0.017 C 
BRANCH  11  19
ATOM     19  C   UNL     1      11.259   5.292  -2.862  0.00  0.00    +0.178 C 
BRANCH  19   5
ATOM      5  O   UNL     1      10.267   6.298  -2.769  0.00  0.00    -0.381 OA
ATOM     22  C   UNL     1       9.008   5.760  -2.380  0.00  0.00    +0.194 C 
ENDBRANCH  19   5
ENDBRANCH  11  19
ENDBRANCH  10   8
BRANCH  13   4
ATOM      4  O   UNL     1      13.140   4.094   1.872  0.00  0.00    -0.388 OA
ATOM     29  H   UNL     1      12.882   3.322   1.341  0.00  0.00    +0.210 HD
ENDBRANCH  13   4
BRANCH  12  18
ATOM     18  C   UNL     1      10.172   5.264   1.293  0.00  0.00    +0.137 C 
BRANCH  18   9
ATOM      7  O   UNL     1      10.895   4.126   3.828  0.00  0.00    -0.270 OA
ATOM      9  N   UNL     1       9.846   5.783   2.587  0.00  0.00    -0.309 N 
ATOM     21  C   UNL     1      10.240   5.163   3.771  0.00  0.00    +0.244 C 
ATOM     30  H   UNL     1       9.247   6.601   2.612  0.00  0.00    +0.149 HD
BRANCH  21  23
ATOM      1 CL   UNL     1       9.562   4.868   8.911  0.00  0.00    -0.081 Cl
ATOM      2  F   UNL     1       8.575   7.637   8.530  0.00  0.00    -0.204 F 
ATOM     23  C   UNL     1       9.800   5.814   5.032  0.00  0.00    +0.038 A 
ATOM     24  C   UNL     1       9.877   5.119   6.239  0.00  0.00    +0.036 A 
ATOM     25  C   UNL     1       9.311   7.119   5.009  0.00  0.00    +0.016 A 
ATOM     26  C   UNL     1       9.464   5.730   7.424  0.00  0.00    +0.077 A 
ATOM     27  C   UNL     1       8.898   7.730   6.193  0.00  0.00    +0.040 A 
ATOM     28  C   UNL     1       8.975   7.035   7.401  0.00  0.00    +0.142 A 
ENDBRANCH  21  23
ENDBRANCH  18   9
ENDBRANCH  12  18
BRANCH  15  20
ATOM     20  C   UNL     1      13.866   6.534   3.099  0.00  0.00    +0.190 C 
BRANCH  20   6
ATOM      6  O   UNL     1      15.181   6.003   3.117  0.00  0.00    -0.392 OA
ATOM     31  H   UNL     1      15.229   5.334   2.413  0.00  0.00    +0.210 HD
ENDBRANCH  20   6
ENDBRANCH  15  20
TORSDOF 9
ENDMDL
MODEL 6
REMARK VINA RESULT:      -5.8     33.916     35.475
REMARK  Name = 28961797
REMARK  10 active torsions:
REMARK  status: ('A' for Active; 'I' for Inactive)
REMARK    1  A    between atoms: O_4  and  C_13
REMARK    2  A    between atoms: O_5  and  C_19
REMARK    3  A    between atoms: O_5  and  C_22
REMARK    4  A    between atoms: O_6  and  C_20
REMARK    5  A    between atoms: N_8  and  C_10
REMARK    6  A    between atoms: N_9  and  C_18
REMARK    7  A    between atoms: C_11  and  C_19
REMARK    8  A    between atoms: C_12  and  C_18
REMARK    9  A    between atoms: C_15  and  C_20
REMARK   10  A    between atoms: C_21  and  C_23
REMARK                            x       y       z     vdW  Elec       q    Type
REMARK                         _______ _______ _______ _____ _____    ______ ____
ROOT
ATOM      3  O   UNL     1       8.843   6.661   8.747  0.00  0.00    -0.365 OA
ATOM     10  C   UNL     1      10.711   7.352   7.442  0.00  0.00    +0.118 C 
ATOM     12  C   UNL     1       9.228   7.616   7.733  0.00  0.00    +0.155 C 
ATOM     13  C   UNL     1      10.878   5.888   7.818  0.00  0.00    +0.165 C 
ATOM     15  C   UNL     1       9.964   5.803   9.035  0.00  0.00    +0.174 C 
ENDROOT
BRANCH  10   8
ATOM      8  N   UNL     1      11.179   7.708   6.114  0.00  0.00    -0.289 NA
ATOM     11  C   UNL     1      11.374   9.143   5.874  0.00  0.00    +0.083 C 
ATOM     14  C   UNL     1      12.424   7.037   5.747  0.00  0.00    +0.085 C 
ATOM     16  C   UNL     1      12.105   9.114   4.533  0.00  0.00    +0.022 C 
ATOM     17  C   UNL     1      12.966   7.856   4.582  0.00  0.00    +0.017 C 
BRANCH  11  19
ATOM     19  C   UNL     1      12.179   9.900   6.935  0.00  0.00    +0.178 C 
BRANCH  19   5
ATOM      5  O   UNL     1      11.381  10.955   7.440  0.00  0.00    -0.381 OA
ATOM     22  C   UNL     1      11.079  10.772   8.819  0.00  0.00    +0.194 C 
ENDBRANCH  19   5
ENDBRANCH  11  19
ENDBRANCH  10   8
BRANCH  13   4
ATOM      4  O   UNL     1      10.410   5.029   6.787  0.00  0.00    -0.388 OA
ATOM     29  H   UNL     1       9.666   4.517   7.146  0.00  0.00    +0.210 HD
ENDBRANCH  13   4
BRANCH  12  18
ATOM     18  C   UNL     1       8.262   7.447   6.564  0.00  0.00    +0.137 C 
BRANCH  18   9
ATOM      7  O   UNL     1       7.804   8.288   3.857  0.00  0.00    -0.270 OA
ATOM      9  N   UNL     1       8.943   6.976   5.397  0.00  0.00    -0.309 N 
ATOM     21  C   UNL     1       8.656   7.441   4.115  0.00  0.00    +0.244 C 
ATOM     30  H   UNL     1       9.611   6.226   5.531  0.00  0.00    +0.149 HD
BRANCH  21  23
ATOM      1 CL   UNL     1      11.710   3.597   2.425  0.00  0.00    -0.081 Cl
ATOM      2  F   UNL     1      11.593   5.157  -0.092  0.00  0.00    -0.204 F 
ATOM     23  C   UNL     1       9.434   6.834   3.005  0.00  0.00    +0.038 A 
ATOM     24  C   UNL     1      10.127   5.641   3.210  0.00  0.00    +0.036 A 
ATOM     25  C   UNL     1       9.473   7.457   1.758  0.00  0.00    +0.016 A 
ATOM     26  C   UNL     1      10.858   5.070   2.168  0.00  0.00    +0.077 A 
ATOM     27  C   UNL     1      10.204   6.887   0.716  0.00  0.00    +0.040 A 
ATOM     28  C   UNL     1      10.896   5.693   0.921  0.00  0.00    +0.142 A 
ENDBRANCH  21  23
ENDBRANCH  18   9
ENDBRANCH  12  18
BRANCH  15  20
ATOM     20  C   UNL     1       9.457   4.415   9.376  0.00  0.00    +0.190 C 
BRANCH  20   6
ATOM      6  O   UNL     1       9.830   4.103  10.708  0.00  0.00    -0.392 OA
ATOM     31  H   UNL     1       9.429   3.244  10.924  0.00  0.00    +0.210 HD
ENDBRANCH  20   6
ENDBRANCH  15  20
TORSDOF 9
ENDMDL
MODEL 7
REMARK VINA RESULT:      -5.7     35.517     37.223
REMARK  Name = 28961797
REMARK  10 active torsions:
REMARK  status: ('A' for Active; 'I' for Inactive)
REMARK    1  A    between atoms: O_4  and  C_13
REMARK    2  A    between atoms: O_5  and  C_19
REMARK    3  A    between atoms: O_5  and  C_22
REMARK    4  A    between atoms: O_6  and  C_20
REMARK    5  A    between atoms: N_8  and  C_10
REMARK    6  A    between atoms: N_9  and  C_18
REMARK    7  A    between atoms: C_11  and  C_19
REMARK    8  A    between atoms: C_12  and  C_18
REMARK    9  A    between atoms: C_15  and  C_20
REMARK   10  A    between atoms: C_21  and  C_23
REMARK                            x       y       z     vdW  Elec       q    Type
REMARK                         _______ _______ _______ _____ _____    ______ ____
ROOT
ATOM      3  O   UNL     1       9.231   5.304   6.316  0.00  0.00    -0.365 OA
ATOM     10  C   UNL     1      10.598   7.080   5.511  0.00  0.00    +0.118 C 
ATOM     12  C   UNL     1       9.768   5.858   5.094  0.00  0.00    +0.155 C 
ATOM     13  C   UNL     1      10.999   6.749   6.941  0.00  0.00    +0.165 C 
ATOM     15  C   UNL     1       9.733   6.059   7.435  0.00  0.00    +0.174 C 
ENDROOT
BRANCH  10   8
ATOM      8  N   UNL     1      11.693   7.443   4.629  0.00  0.00    -0.289 NA
ATOM     11  C   UNL     1      11.310   8.151   3.402  0.00  0.00    +0.083 C 
ATOM     14  C   UNL     1      12.716   8.250   5.290  0.00  0.00    +0.085 C 
ATOM     16  C   UNL     1      12.677   8.599   2.889  0.00  0.00    +0.022 C 
ATOM     17  C   UNL     1      13.492   8.889   4.145  0.00  0.00    +0.017 C 
BRANCH  11  19
ATOM     19  C   UNL     1      10.360   9.340   3.579  0.00  0.00    +0.178 C 
BRANCH  19   5
ATOM      5  O   UNL     1       9.446   9.354   2.497  0.00  0.00    -0.381 OA
ATOM     22  C   UNL     1       8.684   8.155   2.437  0.00  0.00    +0.194 C 
ENDBRANCH  19   5
ENDBRANCH  11  19
ENDBRANCH  10   8
BRANCH  13   4
ATOM      4  O   UNL     1      12.100   5.850   6.978  0.00  0.00    -0.388 OA
ATOM     29  H   UNL     1      11.806   5.010   6.586  0.00  0.00    +0.210 HD
ENDBRANCH  13   4
BRANCH  12  18
ATOM     18  C   UNL     1      10.513   4.736   4.378  0.00  0.00    +0.137 C 
BRANCH  18   9
ATOM      7  O   UNL     1      12.087   3.400   2.383  0.00  0.00    -0.270 OA
ATOM      9  N   UNL     1      10.361   4.841   2.959  0.00  0.00    -0.309 N 
ATOM     21  C   UNL     1      11.172   4.153   2.059  0.00  0.00    +0.244 C 
ATOM     30  H   UNL     1       9.668   5.501   2.623  0.00  0.00    +0.149 HD
BRANCH  21  23
ATOM      1 CL   UNL     1      12.255   3.037  -2.895  0.00  0.00    -0.081 Cl
ATOM      2  F   UNL     1      10.139   5.053  -3.388  0.00  0.00    -0.204 F 
ATOM     23  C   UNL     1      10.902   4.388   0.617  0.00  0.00    +0.038 A 
ATOM     24  C   UNL     1      11.620   3.687  -0.351  0.00  0.00    +0.036 A 
ATOM     25  C   UNL     1       9.931   5.312   0.232  0.00  0.00    +0.016 A 
ATOM     26  C   UNL     1      11.367   3.907  -1.705  0.00  0.00    +0.077 A 
ATOM     27  C   UNL     1       9.678   5.533  -1.122  0.00  0.00    +0.040 A 
ATOM     28  C   UNL     1      10.396   4.830  -2.091  0.00  0.00    +0.142 A 
ENDBRANCH  21  23
ENDBRANCH  18   9
ENDBRANCH  12  18
BRANCH  15  20
ATOM     20  C   UNL     1       9.916   5.132   8.622  0.00  0.00    +0.190 C 
BRANCH  20   6
ATOM      6  O   UNL     1      10.540   3.937   8.181  0.00  0.00    -0.392 OA
ATOM     31  H   UNL     1       9.882   3.225   8.261  0.00  0.00    +0.210 HD
ENDBRANCH  20   6
ENDBRANCH  15  20
TORSDOF 9
ENDMDL
MODEL 8
REMARK VINA RESULT:      -5.7     35.419     37.152
REMARK  Name = 28961797
REMARK  10 active torsions:
REMARK  status: ('A' for Active; 'I' for Inactive)
REMARK    1  A    between atoms: O_4  and  C_13
REMARK    2  A    between atoms: O_5  and  C_19
REMARK    3  A    between atoms: O_5  and  C_22
REMARK    4  A    between atoms: O_6  and  C_20
REMARK    5  A    between atoms: N_8  and  C_10
REMARK    6  A    between atoms: N_9  and  C_18
REMARK    7  A    between atoms: C_11  and  C_19
REMARK    8  A    between atoms: C_12  and  C_18
REMARK    9  A    between atoms: C_15  and  C_20
REMARK   10  A    between atoms: C_21  and  C_23
REMARK                            x       y       z     vdW  Elec       q    Type
REMARK                         _______ _______ _______ _____ _____    ______ ____
ROOT
ATOM      3  O   UNL     1      11.007   5.234   8.390  0.00  0.00    -0.365 OA
ATOM     10  C   UNL     1       9.900   5.823   6.366  0.00  0.00    +0.118 C 
ATOM     12  C   UNL     1      11.251   5.820   7.091  0.00  0.00    +0.155 C 
ATOM     13  C   UNL     1       8.897   5.849   7.510  0.00  0.00    +0.165 C 
ATOM     15  C   UNL     1       9.601   4.951   8.520  0.00  0.00    +0.174 C 
ENDROOT
BRANCH  10   8
ATOM      8  N   UNL     1       9.714   6.852   5.357  0.00  0.00    -0.289 NA
ATOM     11  C   UNL     1      10.492   6.678   4.125  0.00  0.00    +0.083 C 
ATOM     14  C   UNL     1       8.318   7.022   4.963  0.00  0.00    +0.085 C 
ATOM     16  C   UNL     1       9.856   7.740   3.230  0.00  0.00    +0.022 C 
ATOM     17  C   UNL     1       8.386   7.767   3.636  0.00  0.00    +0.017 C 
BRANCH  11  19
ATOM     19  C   UNL     1      10.429   5.290   3.478  0.00  0.00    +0.178 C 
BRANCH  19   5
ATOM      5  O   UNL     1      11.654   5.046   2.810  0.00  0.00    -0.381 OA
ATOM     22  C   UNL     1      11.723   3.717   2.308  0.00  0.00    +0.194 C 
ENDBRANCH  19   5
ENDBRANCH  11  19
ENDBRANCH  10   8
BRANCH  13   4
ATOM      4  O   UNL     1       8.742   7.161   8.036  0.00  0.00    -0.388 OA
ATOM     29  H   UNL     1       9.068   7.786   7.367  0.00  0.00    +0.210 HD
ENDBRANCH  13   4
BRANCH  12  18
ATOM     18  C   UNL     1      11.905   7.178   7.325  0.00  0.00    +0.137 C 
BRANCH  18   9
ATOM      7  O   UNL     1      13.056   9.496   6.081  0.00  0.00    -0.270 OA
ATOM      9  N   UNL     1      13.178   7.256   6.674  0.00  0.00    -0.309 N 
ATOM     21  C   UNL     1      13.661   8.427   6.095  0.00  0.00    +0.244 C 
ATOM     30  H   UNL     1      13.699   6.390   6.589  0.00  0.00    +0.149 HD
BRANCH  21  23
ATOM      1 CL   UNL     1      18.826   8.818   6.454  0.00  0.00    -0.081 Cl
ATOM      2  F   UNL     1      18.675   8.078   3.588  0.00  0.00    -0.204 F 
ATOM     23  C   UNL     1      14.989   8.336   5.435  0.00  0.00    +0.038 A 
ATOM     24  C   UNL     1      16.150   8.590   6.166  0.00  0.00    +0.036 A 
ATOM     25  C   UNL     1      15.075   7.997   4.086  0.00  0.00    +0.016 A 
ATOM     26  C   UNL     1      17.397   8.505   5.547  0.00  0.00    +0.077 A 
ATOM     27  C   UNL     1      16.322   7.912   3.466  0.00  0.00    +0.040 A 
ATOM     28  C   UNL     1      17.483   8.166   4.197  0.00  0.00    +0.142 A 
ENDBRANCH  21  23
ENDBRANCH  18   9
ENDBRANCH  12  18
BRANCH  15  20
ATOM     20  C   UNL     1       9.184   5.143   9.966  0.00  0.00    +0.190 C 
BRANCH  20   6
ATOM      6  O   UNL     1      10.099   4.456  10.804  0.00  0.00    -0.392 OA
ATOM     31  H   UNL     1      10.845   4.177  10.245  0.00  0.00    +0.210 HD
ENDBRANCH  20   6
ENDBRANCH  15  20
TORSDOF 9
ENDMDL
MODEL 9
REMARK VINA RESULT:      -5.7     12.307     15.231
REMARK  Name = 28961797
REMARK  10 active torsions:
REMARK  status: ('A' for Active; 'I' for Inactive)
REMARK    1  A    between atoms: O_4  and  C_13
REMARK    2  A    between atoms: O_5  and  C_19
REMARK    3  A    between atoms: O_5  and  C_22
REMARK    4  A    between atoms: O_6  and  C_20
REMARK    5  A    between atoms: N_8  and  C_10
REMARK    6  A    between atoms: N_9  and  C_18
REMARK    7  A    between atoms: C_11  and  C_19
REMARK    8  A    between atoms: C_12  and  C_18
REMARK    9  A    between atoms: C_15  and  C_20
REMARK   10  A    between atoms: C_21  and  C_23
REMARK                            x       y       z     vdW  Elec       q    Type
REMARK                         _______ _______ _______ _____ _____    ______ ____
ROOT
ATOM      3  O   UNL     1     -10.313   9.276  16.892  0.00  0.00    -0.365 OA
ATOM     10  C   UNL     1     -10.076  11.528  16.155  0.00  0.00    +0.118 C 
ATOM     12  C   UNL     1      -9.846  10.571  17.332  0.00  0.00    +0.155 C 
ATOM     13  C   UNL     1     -11.224  10.873  15.401  0.00  0.00    +0.165 C 
ATOM     15  C   UNL     1     -10.866   9.401  15.568  0.00  0.00    +0.174 C 
ENDROOT
BRANCH  10   8
ATOM      8  N   UNL     1     -10.275  12.926  16.494  0.00  0.00    -0.289 NA
ATOM     11  C   UNL     1      -9.164  13.570  17.204  0.00  0.00    +0.083 C 
ATOM     14  C   UNL     1     -10.582  13.757  15.332  0.00  0.00    +0.085 C 
ATOM     16  C   UNL     1      -9.593  15.035  17.143  0.00  0.00    +0.022 C 
ATOM     17  C   UNL     1     -10.303  15.180  15.801  0.00  0.00    +0.017 C 
BRANCH  11  19
ATOM     19  C   UNL     1      -7.770  13.368  16.600  0.00  0.00    +0.178 C 
BRANCH  19   5
ATOM      5  O   UNL     1      -6.847  14.169  17.315  0.00  0.00    -0.381 OA
ATOM     22  C   UNL     1      -5.646  14.372  16.578  0.00  0.00    +0.194 C 
ENDBRANCH  19   5
ENDBRANCH  11  19
ENDBRANCH  10   8
BRANCH  13   4
ATOM      4  O   UNL     1     -12.475  11.152  16.015  0.00  0.00    -0.388 OA
ATOM     29  H   UNL     1     -13.009  11.657  15.377  0.00  0.00    +0.210 HD
ENDBRANCH  13   4
BRANCH  12  18
ATOM     18  C   UNL     1     -10.577  10.896  18.631  0.00  0.00    +0.137 C 
BRANCH  18   9
ATOM      7  O   UNL     1     -11.995  10.719  21.122  0.00  0.00    -0.270 OA
ATOM      9  N   UNL     1     -11.186   9.725  19.187  0.00  0.00    -0.309 N 
ATOM     21  C   UNL     1     -11.858   9.729  20.407  0.00  0.00    +0.244 C 
ATOM     30  H   UNL     1     -11.049   8.857  18.680  0.00  0.00    +0.149 HD
BRANCH  21  23
ATOM      1 CL   UNL     1     -15.781   7.078  22.538  0.00  0.00    -0.081 Cl
ATOM      2  F   UNL     1     -13.939   4.797  22.105  0.00  0.00    -0.204 F 
ATOM     23  C   UNL     1     -12.411   8.427  20.858  0.00  0.00    +0.038 A 
ATOM     24  C   UNL     1     -13.686   8.368  21.421  0.00  0.00    +0.036 A 
ATOM     25  C   UNL     1     -11.657   7.263  20.718  0.00  0.00    +0.016 A 
ATOM     26  C   UNL     1     -14.207   7.145  21.845  0.00  0.00    +0.077 A 
ATOM     27  C   UNL     1     -12.177   6.039  21.141  0.00  0.00    +0.040 A 
ATOM     28  C   UNL     1     -13.452   5.981  21.704  0.00  0.00    +0.142 A 
ENDBRANCH  21  23
ENDBRANCH  18   9
ENDBRANCH  12  18
BRANCH  15  20
ATOM     20  C   UNL     1     -12.020   8.427  15.414  0.00  0.00    +0.190 C 
BRANCH  20   6
ATOM      6  O   UNL     1     -12.523   8.104  16.700  0.00  0.00    -0.392 OA
ATOM     31  H   UNL     1     -12.118   8.724  17.330  0.00  0.00    +0.210 HD
ENDBRANCH  20   6
ENDBRANCH  15  20
TORSDOF 9
ENDMDL
MODEL 10
REMARK VINA RESULT:      -5.6     33.245     34.893
REMARK  Name = 28961797
REMARK  10 active torsions:
REMARK  status: ('A' for Active; 'I' for Inactive)
REMARK    1  A    between atoms: O_4  and  C_13
REMARK    2  A    between atoms: O_5  and  C_19
REMARK    3  A    between atoms: O_5  and  C_22
REMARK    4  A    between atoms: O_6  and  C_20
REMARK    5  A    between atoms: N_8  and  C_10
REMARK    6  A    between atoms: N_9  and  C_18
REMARK    7  A    between atoms: C_11  and  C_19
REMARK    8  A    between atoms: C_12  and  C_18
REMARK    9  A    between atoms: C_15  and  C_20
REMARK   10  A    between atoms: C_21  and  C_23
REMARK                            x       y       z     vdW  Elec       q    Type
REMARK                         _______ _______ _______ _____ _____    ______ ____
ROOT
ATOM      3  O   UNL     1       8.695   6.530   8.493  0.00  0.00    -0.365 OA
ATOM     10  C   UNL     1      10.561   7.309   7.235  0.00  0.00    +0.118 C 
ATOM     12  C   UNL     1       9.034   7.375   7.370  0.00  0.00    +0.155 C 
ATOM     13  C   UNL     1      10.900   5.959   7.849  0.00  0.00    +0.165 C 
ATOM     15  C   UNL     1       9.895   5.910   8.994  0.00  0.00    +0.174 C 
ENDROOT
BRANCH  10   8
ATOM      8  N   UNL     1      11.098   7.536   5.904  0.00  0.00    -0.289 NA
ATOM     11  C   UNL     1      11.129   8.936   5.465  0.00  0.00    +0.083 C 
ATOM     14  C   UNL     1      12.446   7.000   5.733  0.00  0.00    +0.085 C 
ATOM     16  C   UNL     1      11.977   8.821   4.199  0.00  0.00    +0.022 C 
ATOM     17  C   UNL     1      12.983   7.715   4.499  0.00  0.00    +0.017 C 
BRANCH  11  19
ATOM     19  C   UNL     1      11.732   9.939   6.454  0.00  0.00    +0.178 C 
BRANCH  19   5
ATOM      5  O   UNL     1      11.021  11.159   6.350  0.00  0.00    -0.381 OA
ATOM     22  C   UNL     1       9.617  10.943   6.255  0.00  0.00    +0.194 C 
ENDBRANCH  19   5
ENDBRANCH  11  19
ENDBRANCH  10   8
BRANCH  13   4
ATOM      4  O   UNL     1      10.663   4.896   6.936  0.00  0.00    -0.388 OA
ATOM     29  H   UNL     1      10.126   5.251   6.207  0.00  0.00    +0.210 HD
ENDBRANCH  13   4
BRANCH  12  18
ATOM     18  C   UNL     1       8.219   6.888   6.176  0.00  0.00    +0.137 C 
BRANCH  18   9
ATOM      7  O   UNL     1       8.587   7.366   3.369  0.00  0.00    -0.270 OA
ATOM      9  N   UNL     1       7.702   7.990   5.422  0.00  0.00    -0.309 N 
ATOM     21  C   UNL     1       7.930   8.143   4.056  0.00  0.00    +0.244 C 
ATOM     30  H   UNL     1       7.209   8.706   5.943  0.00  0.00    +0.149 HD
BRANCH  21  23
ATOM      1 CL   UNL     1       7.667  11.314  -0.048  0.00  0.00    -0.081 Cl
ATOM      2  F   UNL     1       5.713  12.723   1.679  0.00  0.00    -0.204 F 
ATOM     23  C   UNL     1       7.347   9.354   3.424  0.00  0.00    +0.038 A 
ATOM     24  C   UNL     1       7.734   9.725   2.136  0.00  0.00    +0.036 A 
ATOM     25  C   UNL     1       6.411  10.121   4.118  0.00  0.00    +0.016 A 
ATOM     26  C   UNL     1       7.186  10.862   1.542  0.00  0.00    +0.077 A 
ATOM     27  C   UNL     1       5.863  11.258   3.525  0.00  0.00    +0.040 A 
ATOM     28  C   UNL     1       6.251  11.629   2.236  0.00  0.00    +0.142 A 
ENDBRANCH  21  23
ENDBRANCH  18   9
ENDBRANCH  12  18
BRANCH  15  20
ATOM     20  C   UNL     1       9.562   4.524   9.513  0.00  0.00    +0.190 C 
BRANCH  20   6
ATOM      6  O   UNL     1      10.020   4.411  10.850  0.00  0.00    -0.392 OA
ATOM     31  H   UNL     1      10.990   4.488  10.828  0.00  0.00    +0.210 HD
ENDBRANCH  20   6
ENDBRANCH  15  20
TORSDOF 9
ENDMDL
