MODEL 1
REMARK VINA RESULT:      -7.6      0.000      0.000
REMARK  Name = 11884208
REMARK  2 active torsions:
REMARK  status: ('A' for Active; 'I' for Inactive)
REMARK    1  A    between atoms: C_16  and  C_20
REMARK    2  A    between atoms: C_19  and  C_22
REMARK                            x       y       z     vdW  Elec       q    Type
REMARK                         _______ _______ _______ _____ _____    ______ ____
ROOT
ATOM      2  O   UNL     1     -10.087 -10.871  20.591  0.00  0.00    -0.273 OA
ATOM      3  O   UNL     1      -8.451  -8.537  16.141  0.00  0.00    -0.270 OA
ATOM      4  O   UNL     1     -13.740 -12.264  19.508  0.00  0.00    -0.269 OA
ATOM      5  N   UNL     1      -9.763  -9.916  17.455  0.00  0.00    -0.283 N 
ATOM      6  N   UNL     1     -12.326 -10.675  18.598  0.00  0.00    -0.293 N 
ATOM      7  N   UNL     1      -8.000 -10.683  19.702  0.00  0.00    -0.283 N 
ATOM      8  C   UNL     1      -9.897 -11.158  18.203  0.00  0.00    +0.180 C 
ATOM      9  C   UNL     1     -11.336 -11.687  18.218  0.00  0.00    +0.140 C 
ATOM     10  C   UNL     1     -10.995  -9.205  17.109  0.00  0.00    +0.128 C 
ATOM     11  C   UNL     1     -12.024  -9.286  18.226  0.00  0.00    +0.127 C 
ATOM     12  C   UNL     1      -9.363 -10.864  19.595  0.00  0.00    +0.239 C 
ATOM     13  C   UNL     1      -8.551  -9.478  16.930  0.00  0.00    +0.249 C 
ATOM     14  C   UNL     1      -7.297 -10.152  17.360  0.00  0.00    +0.059 A 
ATOM     15  C   UNL     1      -7.046 -10.600  18.667  0.00  0.00    +0.046 A 
ATOM     16  C   UNL     1     -13.526 -11.087  19.212  0.00  0.00    +0.253 C 
ATOM     17  C   UNL     1      -6.252 -10.160  16.416  0.00  0.00    +0.023 A 
ATOM     18  C   UNL     1      -5.738 -10.980  19.017  0.00  0.00    +0.024 A 
ATOM     19  C   UNL     1      -4.973 -10.587  16.768  0.00  0.00    -0.017 A 
ATOM     21  C   UNL     1      -4.712 -10.985  18.073  0.00  0.00    +0.010 A 
ATOM     31  H   UNL     1      -7.629 -10.709  20.649  0.00  0.00    +0.155 HD
ENDROOT
BRANCH  19  22
ATOM     22  C   UNL     1      -3.913 -10.594  15.782  0.00  0.00    -0.018 A 
ATOM     25  C   UNL     1      -2.580 -10.589  16.192  0.00  0.00    +0.008 A 
ATOM     26  C   UNL     1      -4.226 -10.605  14.423  0.00  0.00    +0.008 A 
ATOM     28  C   UNL     1      -1.558 -10.596  15.243  0.00  0.00    +0.001 A 
ATOM     29  C   UNL     1      -3.203 -10.613  13.473  0.00  0.00    +0.001 A 
ATOM     30  C   UNL     1      -1.870 -10.607  13.883  0.00  0.00    +0.000 A 
ENDBRANCH  19  22
BRANCH  16  20
ATOM      1  S   UNL     1     -15.624  -9.635  18.235  0.00  0.00    -0.092 S 
ATOM     20  C   UNL     1     -14.531 -10.062  19.478  0.00  0.00    +0.074 A 
ATOM     23  C   UNL     1     -14.745  -9.351  20.632  0.00  0.00    +0.021 A 
ATOM     24  C   UNL     1     -15.829  -8.435  20.498  0.00  0.00    +0.008 A 
ATOM     27  C   UNL     1     -16.396  -8.487  19.244  0.00  0.00    +0.046 A 
ENDBRANCH  16  20
TORSDOF 2
ENDMDL
MODEL 2
REMARK VINA RESULT:      -7.1     17.157     19.503
REMARK  Name = 11884208
REMARK  2 active torsions:
REMARK  status: ('A' for Active; 'I' for Inactive)
REMARK    1  A    between atoms: C_16  and  C_20
REMARK    2  A    between atoms: C_19  and  C_22
REMARK                            x       y       z     vdW  Elec       q    Type
REMARK                         _______ _______ _______ _____ _____    ______ ____
ROOT
ATOM      2  O   UNL     1     -16.901   2.346  23.441  0.00  0.00    -0.273 OA
ATOM      3  O   UNL     1     -17.654   5.327  27.738  0.00  0.00    -0.270 OA
ATOM      4  O   UNL     1     -15.328   5.025  20.832  0.00  0.00    -0.269 OA
ATOM      5  N   UNL     1     -16.799   4.777  25.661  0.00  0.00    -0.283 N 
ATOM      6  N   UNL     1     -16.508   5.256  22.809  0.00  0.00    -0.293 N 
ATOM      7  N   UNL     1     -16.743   1.820  25.649  0.00  0.00    -0.283 N 
ATOM      8  C   UNL     1     -15.863   3.987  24.873  0.00  0.00    +0.180 C 
ATOM      9  C   UNL     1     -15.403   4.710  23.601  0.00  0.00    +0.140 C 
ATOM     10  C   UNL     1     -17.394   5.950  25.019  0.00  0.00    +0.128 C 
ATOM     11  C   UNL     1     -17.698   5.694  23.551  0.00  0.00    +0.127 C 
ATOM     12  C   UNL     1     -16.571   2.675  24.581  0.00  0.00    +0.239 C 
ATOM     13  C   UNL     1     -17.017   4.557  27.018  0.00  0.00    +0.249 C 
ATOM     14  C   UNL     1     -16.483   3.316  27.639  0.00  0.00    +0.059 A 
ATOM     15  C   UNL     1     -16.468   2.060  27.012  0.00  0.00    +0.046 A 
ATOM     16  C   UNL     1     -16.343   5.407  21.417  0.00  0.00    +0.253 C 
ATOM     17  C   UNL     1     -16.148   3.409  29.004  0.00  0.00    +0.023 A 
ATOM     18  C   UNL     1     -16.186   0.917  27.783  0.00  0.00    +0.024 A 
ATOM     19  C   UNL     1     -15.823   2.271  29.741  0.00  0.00    -0.017 A 
ATOM     21  C   UNL     1     -15.855   1.023  29.133  0.00  0.00    +0.010 A 
ATOM     31  H   UNL     1     -17.010   0.868  25.409  0.00  0.00    +0.155 HD
ENDROOT
BRANCH  19  22
ATOM     22  C   UNL     1     -15.476   2.388  31.141  0.00  0.00    -0.018 A 
ATOM     25  C   UNL     1     -15.660   3.600  31.806  0.00  0.00    +0.008 A 
ATOM     26  C   UNL     1     -14.960   1.288  31.825  0.00  0.00    +0.008 A 
ATOM     28  C   UNL     1     -15.327   3.713  33.155  0.00  0.00    +0.001 A 
ATOM     29  C   UNL     1     -14.626   1.401  33.175  0.00  0.00    +0.001 A 
ATOM     30  C   UNL     1     -14.809   2.613  33.840  0.00  0.00    +0.000 A 
ENDBRANCH  19  22
BRANCH  16  20
ATOM      1  S   UNL     1     -18.635   5.077  19.968  0.00  0.00    -0.092 S 
ATOM     20  C   UNL     1     -17.425   6.052  20.678  0.00  0.00    +0.074 A 
ATOM     23  C   UNL     1     -17.631   7.391  20.454  0.00  0.00    +0.021 A 
ATOM     24  C   UNL     1     -18.806   7.625  19.684  0.00  0.00    +0.008 A 
ATOM     27  C   UNL     1     -19.448   6.452  19.352  0.00  0.00    +0.046 A 
ENDBRANCH  16  20
TORSDOF 2
ENDMDL
MODEL 3
REMARK VINA RESULT:      -7.0      3.627      9.518
REMARK  Name = 11884208
REMARK  2 active torsions:
REMARK  status: ('A' for Active; 'I' for Inactive)
REMARK    1  A    between atoms: C_16  and  C_20
REMARK    2  A    between atoms: C_19  and  C_22
REMARK                            x       y       z     vdW  Elec       q    Type
REMARK                         _______ _______ _______ _____ _____    ______ ____
ROOT
ATOM      2  O   UNL     1      -5.153 -13.369  17.802  0.00  0.00    -0.273 OA
ATOM      3  O   UNL     1      -9.507 -10.810  16.247  0.00  0.00    -0.270 OA
ATOM      4  O   UNL     1      -2.235 -10.735  16.799  0.00  0.00    -0.269 OA
ATOM      5  N   UNL     1      -7.279 -11.053  16.816  0.00  0.00    -0.283 N 
ATOM      6  N   UNL     1      -4.448 -10.953  16.162  0.00  0.00    -0.293 N 
ATOM      7  N   UNL     1      -7.246 -13.337  18.694  0.00  0.00    -0.283 N 
ATOM      8  C   UNL     1      -6.276 -11.233  17.856  0.00  0.00    +0.180 C 
ATOM      9  C   UNL     1      -4.930 -10.591  17.498  0.00  0.00    +0.140 C 
ATOM     10  C   UNL     1      -6.813 -10.594  15.507  0.00  0.00    +0.128 C 
ATOM     11  C   UNL     1      -5.471 -11.209  15.139  0.00  0.00    +0.127 C 
ATOM     12  C   UNL     1      -6.172 -12.733  18.077  0.00  0.00    +0.239 C 
ATOM     13  C   UNL     1      -8.646 -11.142  17.062  0.00  0.00    +0.249 C 
ATOM     14  C   UNL     1      -9.107 -11.696  18.363  0.00  0.00    +0.059 A 
ATOM     15  C   UNL     1      -8.494 -12.770  19.029  0.00  0.00    +0.046 A 
ATOM     16  C   UNL     1      -3.061 -10.954  15.912  0.00  0.00    +0.253 C 
ATOM     17  C   UNL     1     -10.340 -11.207  18.834  0.00  0.00    +0.023 A 
ATOM     18  C   UNL     1      -9.164 -13.373  20.108  0.00  0.00    +0.024 A 
ATOM     19  C   UNL     1     -10.966 -11.786  19.936  0.00  0.00    -0.017 A 
ATOM     21  C   UNL     1     -10.384 -12.879  20.566  0.00  0.00    +0.010 A 
ATOM     31  H   UNL     1      -7.080 -14.281  19.036  0.00  0.00    +0.155 HD
ENDROOT
BRANCH  19  22
ATOM     22  C   UNL     1     -12.231 -11.265  20.409  0.00  0.00    -0.018 A 
ATOM     25  C   UNL     1     -13.049 -12.051  21.221  0.00  0.00    +0.008 A 
ATOM     26  C   UNL     1     -12.632  -9.977  20.054  0.00  0.00    +0.008 A 
ATOM     28  C   UNL     1     -14.268 -11.550  21.677  0.00  0.00    +0.001 A 
ATOM     29  C   UNL     1     -13.851  -9.476  20.511  0.00  0.00    +0.001 A 
ATOM     30  C   UNL     1     -14.669 -10.262  21.321  0.00  0.00    +0.000 A 
ENDBRANCH  19  22
BRANCH  16  20
ATOM      1  S   UNL     1      -2.442 -12.836  14.031  0.00  0.00    -0.092 S 
ATOM     20  C   UNL     1      -2.625 -11.216  14.543  0.00  0.00    +0.074 A 
ATOM     23  C   UNL     1      -2.324 -10.316  13.552  0.00  0.00    +0.021 A 
ATOM     24  C   UNL     1      -1.935 -10.965  12.345  0.00  0.00    +0.008 A 
ATOM     27  C   UNL     1      -1.955 -12.337  12.468  0.00  0.00    +0.046 A 
ENDBRANCH  16  20
TORSDOF 2
ENDMDL
MODEL 4
REMARK VINA RESULT:      -6.8      2.912      9.534
REMARK  Name = 11884208
REMARK  2 active torsions:
REMARK  status: ('A' for Active; 'I' for Inactive)
REMARK    1  A    between atoms: C_16  and  C_20
REMARK    2  A    between atoms: C_19  and  C_22
REMARK                            x       y       z     vdW  Elec       q    Type
REMARK                         _______ _______ _______ _____ _____    ______ ____
ROOT
ATOM      2  O   UNL     1      -8.149 -13.362  18.952  0.00  0.00    -0.273 OA
ATOM      3  O   UNL     1     -11.211  -9.264  17.629  0.00  0.00    -0.270 OA
ATOM      4  O   UNL     1      -4.504 -11.609  19.276  0.00  0.00    -0.269 OA
ATOM      5  N   UNL     1      -9.319 -10.328  18.425  0.00  0.00    -0.283 N 
ATOM      6  N   UNL     1      -6.484 -10.955  18.274  0.00  0.00    -0.293 N 
ATOM      7  N   UNL     1     -10.315 -12.905  19.480  0.00  0.00    -0.283 N 
ATOM      8  C   UNL     1      -8.670 -11.069  19.497  0.00  0.00    +0.180 C 
ATOM      9  C   UNL     1      -7.160 -10.811  19.567  0.00  0.00    +0.140 C 
ATOM     10  C   UNL     1      -8.455  -9.721  17.412  0.00  0.00    +0.128 C 
ATOM     11  C   UNL     1      -7.267 -10.610  17.079  0.00  0.00    +0.127 C 
ATOM     12  C   UNL     1      -9.007 -12.531  19.253  0.00  0.00    +0.239 C 
ATOM     13  C   UNL     1     -10.681 -10.044  18.421  0.00  0.00    +0.249 C 
ATOM     14  C   UNL     1     -11.562 -10.737  19.399  0.00  0.00    +0.059 A 
ATOM     15  C   UNL     1     -11.419 -12.080  19.781  0.00  0.00    +0.046 A 
ATOM     16  C   UNL     1      -5.125 -11.326  18.250  0.00  0.00    +0.253 C 
ATOM     17  C   UNL     1     -12.706 -10.023  19.805  0.00  0.00    +0.023 A 
ATOM     18  C   UNL     1     -12.456 -12.697  20.504  0.00  0.00    +0.024 A 
ATOM     19  C   UNL     1     -13.701 -10.636  20.563  0.00  0.00    -0.017 A 
ATOM     21  C   UNL     1     -13.583 -11.978  20.902  0.00  0.00    +0.010 A 
ATOM     31  H   UNL     1     -10.480 -13.908  19.532  0.00  0.00    +0.155 HD
ENDROOT
BRANCH  19  22
ATOM     22  C   UNL     1     -14.867  -9.884  20.977  0.00  0.00    -0.018 A 
ATOM     25  C   UNL     1     -14.906  -8.502  20.792  0.00  0.00    +0.008 A 
ATOM     26  C   UNL     1     -15.951 -10.542  21.558  0.00  0.00    +0.008 A 
ATOM     28  C   UNL     1     -16.029  -7.777  21.190  0.00  0.00    +0.001 A 
ATOM     29  C   UNL     1     -17.074  -9.816  21.955  0.00  0.00    +0.001 A 
ATOM     30  C   UNL     1     -17.113  -8.434  21.772  0.00  0.00    +0.000 A 
ENDBRANCH  19  22
BRANCH  16  20
ATOM      1  S   UNL     1      -4.556 -12.776  16.005  0.00  0.00    -0.092 S 
ATOM     20  C   UNL     1      -4.459 -11.355  16.951  0.00  0.00    +0.074 A 
ATOM     23  C   UNL     1      -3.729 -10.367  16.339  0.00  0.00    +0.021 A 
ATOM     24  C   UNL     1      -3.238 -10.780  15.067  0.00  0.00    +0.008 A 
ATOM     27  C   UNL     1      -3.614 -12.070  14.762  0.00  0.00    +0.046 A 
ENDBRANCH  16  20
TORSDOF 2
ENDMDL
MODEL 5
REMARK VINA RESULT:      -6.6     28.051     30.291
REMARK  Name = 11884208
REMARK  2 active torsions:
REMARK  status: ('A' for Active; 'I' for Inactive)
REMARK    1  A    between atoms: C_16  and  C_20
REMARK    2  A    between atoms: C_19  and  C_22
REMARK                            x       y       z     vdW  Elec       q    Type
REMARK                         _______ _______ _______ _____ _____    ______ ____
ROOT
ATOM      2  O   UNL     1       9.263   8.121   8.132  0.00  0.00    -0.273 OA
ATOM      3  O   UNL     1      13.520   7.794   5.019  0.00  0.00    -0.270 OA
ATOM      4  O   UNL     1       8.683  12.131   8.334  0.00  0.00    -0.269 OA
ATOM      5  N   UNL     1      11.685   8.798   6.004  0.00  0.00    -0.283 N 
ATOM      6  N   UNL     1      10.490  10.829   7.707  0.00  0.00    -0.293 N 
ATOM      7  N   UNL     1       9.845   6.557   6.584  0.00  0.00    -0.283 N 
ATOM      8  C   UNL     1      10.238   8.937   6.081  0.00  0.00    +0.180 C 
ATOM      9  C   UNL     1       9.799  10.343   6.509  0.00  0.00    +0.140 C 
ATOM     10  C   UNL     1      12.494   9.852   6.619  0.00  0.00    +0.128 C 
ATOM     11  C   UNL     1      11.868  10.362   7.909  0.00  0.00    +0.127 C 
ATOM     12  C   UNL     1       9.767   7.856   7.040  0.00  0.00    +0.239 C 
ATOM     13  C   UNL     1      12.310   7.812   5.247  0.00  0.00    +0.249 C 
ATOM     14  C   UNL     1      11.490   6.697   4.703  0.00  0.00    +0.059 A 
ATOM     15  C   UNL     1      10.431   6.083   5.392  0.00  0.00    +0.046 A 
ATOM     16  C   UNL     1       9.842  11.765   8.538  0.00  0.00    +0.253 C 
ATOM     17  C   UNL     1      11.950   6.129   3.499  0.00  0.00    +0.023 A 
ATOM     18  C   UNL     1       9.904   4.878   4.895  0.00  0.00    +0.024 A 
ATOM     19  C   UNL     1      11.381   4.961   2.995  0.00  0.00    -0.017 A 
ATOM     21  C   UNL     1      10.366   4.327   3.701  0.00  0.00    +0.010 A 
ATOM     31  H   UNL     1       9.331   5.870   7.131  0.00  0.00    +0.155 HD
ENDROOT
BRANCH  19  22
ATOM     22  C   UNL     1      11.863   4.396   1.753  0.00  0.00    -0.018 A 
ATOM     25  C   UNL     1      13.098   3.748   1.714  0.00  0.00    +0.008 A 
ATOM     26  C   UNL     1      11.092   4.499   0.595  0.00  0.00    +0.008 A 
ATOM     28  C   UNL     1      13.563   3.204   0.518  0.00  0.00    +0.001 A 
ATOM     29  C   UNL     1      11.558   3.953  -0.602  0.00  0.00    +0.001 A 
ATOM     30  C   UNL     1      12.793   3.307  -0.641  0.00  0.00    +0.000 A 
ENDBRANCH  19  22
BRANCH  16  20
ATOM      1  S   UNL     1      11.533  13.719   9.424  0.00  0.00    -0.092 S 
ATOM     20  C   UNL     1      10.602  12.305   9.661  0.00  0.00    +0.074 A 
ATOM     23  C   UNL     1      10.690  11.829  10.946  0.00  0.00    +0.021 A 
ATOM     24  C   UNL     1      11.537  12.639  11.755  0.00  0.00    +0.008 A 
ATOM     27  C   UNL     1      12.062  13.701  11.052  0.00  0.00    +0.046 A 
ENDBRANCH  16  20
TORSDOF 2
ENDMDL
MODEL 6
REMARK VINA RESULT:      -6.5     28.339     31.238
REMARK  Name = 11884208
REMARK  2 active torsions:
REMARK  status: ('A' for Active; 'I' for Inactive)
REMARK    1  A    between atoms: C_16  and  C_20
REMARK    2  A    between atoms: C_19  and  C_22
REMARK                            x       y       z     vdW  Elec       q    Type
REMARK                         _______ _______ _______ _____ _____    ______ ____
ROOT
ATOM      2  O   UNL     1      11.227   3.625   2.843  0.00  0.00    -0.273 OA
ATOM      3  O   UNL     1       9.918   8.720   2.343  0.00  0.00    -0.270 OA
ATOM      4  O   UNL     1      14.521   3.375   0.488  0.00  0.00    -0.269 OA
ATOM      5  N   UNL     1      11.276   6.855   2.194  0.00  0.00    -0.283 N 
ATOM      6  N   UNL     1      12.815   4.929   0.652  0.00  0.00    -0.293 N 
ATOM      7  N   UNL     1      10.308   5.068   4.344  0.00  0.00    -0.283 N 
ATOM      8  C   UNL     1      12.112   5.870   2.868  0.00  0.00    +0.180 C 
ATOM      9  C   UNL     1      13.255   5.359   1.983  0.00  0.00    +0.140 C 
ATOM     10  C   UNL     1      11.428   6.983   0.745  0.00  0.00    +0.128 C 
ATOM     11  C   UNL     1      11.660   5.635   0.080  0.00  0.00    +0.127 C 
ATOM     12  C   UNL     1      11.171   4.762   3.313  0.00  0.00    +0.239 C 
ATOM     13  C   UNL     1      10.480   7.765   2.882  0.00  0.00    +0.249 C 
ATOM     14  C   UNL     1      10.261   7.571   4.340  0.00  0.00    +0.059 A 
ATOM     15  C   UNL     1      10.087   6.320   4.955  0.00  0.00    +0.046 A 
ATOM     16  C   UNL     1      13.557   3.944  -0.029  0.00  0.00    +0.253 C 
ATOM     17  C   UNL     1      10.039   8.743   5.088  0.00  0.00    +0.023 A 
ATOM     18  C   UNL     1       9.629   6.273   6.284  0.00  0.00    +0.024 A 
ATOM     19  C   UNL     1       9.633   8.677   6.419  0.00  0.00    -0.017 A 
ATOM     21  C   UNL     1       9.415   7.441   7.014  0.00  0.00    +0.010 A 
ATOM     31  H   UNL     1       9.847   4.272   4.779  0.00  0.00    +0.155 HD
ENDROOT
BRANCH  19  22
ATOM     22  C   UNL     1       9.416   9.893   7.173  0.00  0.00    -0.018 A 
ATOM     25  C   UNL     1       9.141  11.087   6.506  0.00  0.00    +0.008 A 
ATOM     26  C   UNL     1       9.480   9.871   8.566  0.00  0.00    +0.008 A 
ATOM     28  C   UNL     1       8.931  12.259   7.232  0.00  0.00    +0.001 A 
ATOM     29  C   UNL     1       9.270  11.044   9.292  0.00  0.00    +0.001 A 
ATOM     30  C   UNL     1       8.996  12.237   8.625  0.00  0.00    +0.000 A 
ENDBRANCH  19  22
BRANCH  16  20
ATOM      1  S   UNL     1      13.876   4.460  -2.692  0.00  0.00    -0.092 S 
ATOM     20  C   UNL     1      13.150   3.620  -1.393  0.00  0.00    +0.074 A 
ATOM     23  C   UNL     1      12.226   2.697  -1.816  0.00  0.00    +0.021 A 
ATOM     24  C   UNL     1      12.109   2.675  -3.236  0.00  0.00    +0.008 A 
ATOM     27  C   UNL     1      12.951   3.585  -3.837  0.00  0.00    +0.046 A 
ENDBRANCH  16  20
TORSDOF 2
ENDMDL
MODEL 7
REMARK VINA RESULT:      -6.5     27.677     31.705
REMARK  Name = 11884208
REMARK  2 active torsions:
REMARK  status: ('A' for Active; 'I' for Inactive)
REMARK    1  A    between atoms: C_16  and  C_20
REMARK    2  A    between atoms: C_19  and  C_22
REMARK                            x       y       z     vdW  Elec       q    Type
REMARK                         _______ _______ _______ _____ _____    ______ ____
ROOT
ATOM      2  O   UNL     1       9.970   7.226  -1.553  0.00  0.00    -0.273 OA
ATOM      3  O   UNL     1      12.776   5.250   2.465  0.00  0.00    -0.270 OA
ATOM      4  O   UNL     1      10.236   4.251  -4.299  0.00  0.00    -0.269 OA
ATOM      5  N   UNL     1      11.603   5.206   0.473  0.00  0.00    -0.283 N 
ATOM      6  N   UNL     1      11.451   4.753  -2.395  0.00  0.00    -0.293 N 
ATOM      7  N   UNL     1       9.694   7.454   0.694  0.00  0.00    -0.283 N 
ATOM      8  C   UNL     1      10.319   5.250  -0.213  0.00  0.00    +0.180 C 
ATOM      9  C   UNL     1      10.317   4.445  -1.519  0.00  0.00    +0.140 C 
ATOM     10  C   UNL     1      12.750   4.700  -0.282  0.00  0.00    +0.128 C 
ATOM     11  C   UNL     1      12.706   5.143  -1.737  0.00  0.00    +0.127 C 
ATOM     12  C   UNL     1      10.014   6.723  -0.430  0.00  0.00    +0.239 C 
ATOM     13  C   UNL     1      11.741   5.466   1.833  0.00  0.00    +0.249 C 
ATOM     14  C   UNL     1      10.596   6.064   2.570  0.00  0.00    +0.059 A 
ATOM     15  C   UNL     1       9.742   7.047   2.044  0.00  0.00    +0.046 A 
ATOM     16  C   UNL     1      11.308   4.580  -3.786  0.00  0.00    +0.253 C 
ATOM     17  C   UNL     1      10.506   5.731   3.935  0.00  0.00    +0.023 A 
ATOM     18  C   UNL     1       8.866   7.723   2.912  0.00  0.00    +0.024 A 
ATOM     19  C   UNL     1       9.596   6.377   4.771  0.00  0.00    -0.017 A 
ATOM     21  C   UNL     1       8.785   7.383   4.262  0.00  0.00    +0.010 A 
ATOM     31  H   UNL     1       9.280   8.367   0.519  0.00  0.00    +0.155 HD
ENDROOT
BRANCH  19  22
ATOM     22  C   UNL     1       9.514   6.018   6.170  0.00  0.00    -0.018 A 
ATOM     25  C   UNL     1       9.020   6.935   7.098  0.00  0.00    +0.008 A 
ATOM     26  C   UNL     1       9.928   4.754   6.591  0.00  0.00    +0.008 A 
ATOM     28  C   UNL     1       8.940   6.589   8.446  0.00  0.00    +0.001 A 
ATOM     29  C   UNL     1       9.848   4.408   7.940  0.00  0.00    +0.001 A 
ATOM     30  C   UNL     1       9.355   5.325   8.868  0.00  0.00    +0.000 A 
ENDBRANCH  19  22
BRANCH  16  20
ATOM      1  S   UNL     1      12.819   6.369  -5.193  0.00  0.00    -0.092 S 
ATOM     20  C   UNL     1      12.490   4.794  -4.615  0.00  0.00    +0.074 A 
ATOM     23  C   UNL     1      13.427   3.879  -5.025  0.00  0.00    +0.021 A 
ATOM     24  C   UNL     1      14.439   4.479  -5.829  0.00  0.00    +0.008 A 
ATOM     27  C   UNL     1      14.229   5.830  -6.000  0.00  0.00    +0.046 A 
ENDBRANCH  16  20
TORSDOF 2
ENDMDL
MODEL 8
REMARK VINA RESULT:      -6.5      3.487      9.607
REMARK  Name = 11884208
REMARK  2 active torsions:
REMARK  status: ('A' for Active; 'I' for Inactive)
REMARK    1  A    between atoms: C_16  and  C_20
REMARK    2  A    between atoms: C_19  and  C_22
REMARK                            x       y       z     vdW  Elec       q    Type
REMARK                         _______ _______ _______ _____ _____    ______ ____
ROOT
ATOM      2  O   UNL     1      -7.453  -9.156  16.728  0.00  0.00    -0.273 OA
ATOM      3  O   UNL     1      -8.027 -12.860  20.453  0.00  0.00    -0.270 OA
ATOM      4  O   UNL     1      -5.452 -11.182  13.839  0.00  0.00    -0.269 OA
ATOM      5  N   UNL     1      -7.585 -12.025  18.342  0.00  0.00    -0.283 N 
ATOM      6  N   UNL     1      -5.801 -11.582  16.091  0.00  0.00    -0.293 N 
ATOM      7  N   UNL     1      -9.148  -9.518  18.203  0.00  0.00    -0.283 N 
ATOM      8  C   UNL     1      -8.092 -11.453  17.103  0.00  0.00    +0.180 C 
ATOM      9  C   UNL     1      -7.233 -11.821  15.887  0.00  0.00    +0.140 C 
ATOM     10  C   UNL     1      -6.229 -12.573  18.323  0.00  0.00    +0.128 C 
ATOM     11  C   UNL     1      -5.295 -11.738  17.461  0.00  0.00    +0.127 C 
ATOM     12  C   UNL     1      -8.168  -9.954  17.337  0.00  0.00    +0.239 C 
ATOM     13  C   UNL     1      -8.382 -12.210  19.468  0.00  0.00    +0.249 C 
ATOM     14  C   UNL     1      -9.724 -11.572  19.512  0.00  0.00    +0.059 A 
ATOM     15  C   UNL     1     -10.009 -10.292  19.008  0.00  0.00    +0.046 A 
ATOM     16  C   UNL     1      -4.987 -11.305  14.973  0.00  0.00    +0.253 C 
ATOM     17  C   UNL     1     -10.699 -12.245  20.273  0.00  0.00    +0.023 A 
ATOM     18  C   UNL     1     -11.237  -9.689  19.337  0.00  0.00    +0.024 A 
ATOM     19  C   UNL     1     -11.930 -11.652  20.547  0.00  0.00    -0.017 A 
ATOM     21  C   UNL     1     -12.194 -10.367  20.090  0.00  0.00    +0.010 A 
ATOM     31  H   UNL     1      -9.336  -8.518  18.183  0.00  0.00    +0.155 HD
ENDROOT
BRANCH  19  22
ATOM     22  C   UNL     1     -12.921 -12.363  21.326  0.00  0.00    -0.018 A 
ATOM     25  C   UNL     1     -13.935 -11.658  21.975  0.00  0.00    +0.008 A 
ATOM     26  C   UNL     1     -12.862 -13.753  21.428  0.00  0.00    +0.008 A 
ATOM     28  C   UNL     1     -14.890 -12.342  22.725  0.00  0.00    +0.001 A 
ATOM     29  C   UNL     1     -13.818 -14.437  22.179  0.00  0.00    +0.001 A 
ATOM     30  C   UNL     1     -14.831 -13.732  22.828  0.00  0.00    +0.000 A 
ENDBRANCH  19  22
BRANCH  16  20
ATOM      1  S   UNL     1      -2.490 -12.261  14.413  0.00  0.00    -0.092 S 
ATOM     20  C   UNL     1      -3.551 -11.179  15.203  0.00  0.00    +0.074 A 
ATOM     23  C   UNL     1      -2.886 -10.279  15.998  0.00  0.00    +0.021 A 
ATOM     24  C   UNL     1      -1.476 -10.477  15.959  0.00  0.00    +0.008 A 
ATOM     27  C   UNL     1      -1.124 -11.524  15.135  0.00  0.00    +0.046 A 
ENDBRANCH  16  20
TORSDOF 2
ENDMDL
MODEL 9
REMARK VINA RESULT:      -6.4      2.200      3.080
REMARK  Name = 11884208
REMARK  2 active torsions:
REMARK  status: ('A' for Active; 'I' for Inactive)
REMARK    1  A    between atoms: C_16  and  C_20
REMARK    2  A    between atoms: C_19  and  C_22
REMARK                            x       y       z     vdW  Elec       q    Type
REMARK                         _______ _______ _______ _____ _____    ______ ____
ROOT
ATOM      2  O   UNL     1     -11.864 -10.633  17.224  0.00  0.00    -0.273 OA
ATOM      3  O   UNL     1      -7.340 -12.970  18.635  0.00  0.00    -0.270 OA
ATOM      4  O   UNL     1     -13.337  -9.435  20.809  0.00  0.00    -0.269 OA
ATOM      5  N   UNL     1      -9.207 -11.631  18.896  0.00  0.00    -0.283 N 
ATOM      6  N   UNL     1     -11.717 -10.972  20.205  0.00  0.00    -0.293 N 
ATOM      7  N   UNL     1      -9.859 -10.738  16.153  0.00  0.00    -0.283 N 
ATOM      8  C   UNL     1      -9.891 -10.382  18.591  0.00  0.00    +0.180 C 
ATOM      9  C   UNL     1     -10.815  -9.921  19.725  0.00  0.00    +0.140 C 
ATOM     10  C   UNL     1      -9.700 -12.406  20.035  0.00  0.00    +0.128 C 
ATOM     11  C   UNL     1     -11.217 -12.352  20.137  0.00  0.00    +0.127 C 
ATOM     12  C   UNL     1     -10.634 -10.624  17.287  0.00  0.00    +0.239 C 
ATOM     13  C   UNL     1      -8.030 -12.021  18.263  0.00  0.00    +0.249 C 
ATOM     14  C   UNL     1      -7.587 -11.280  17.052  0.00  0.00    +0.059 A 
ATOM     15  C   UNL     1      -8.453 -10.796  16.058  0.00  0.00    +0.046 A 
ATOM     16  C   UNL     1     -12.955 -10.606  20.772  0.00  0.00    +0.253 C 
ATOM     17  C   UNL     1      -6.196 -11.240  16.833  0.00  0.00    +0.023 A 
ATOM     18  C   UNL     1      -7.909 -10.347  14.841  0.00  0.00    +0.024 A 
ATOM     19  C   UNL     1      -5.673 -10.746  15.640  0.00  0.00    -0.017 A 
ATOM     21  C   UNL     1      -6.530 -10.311  14.637  0.00  0.00    +0.010 A 
ATOM     31  H   UNL     1     -10.363 -10.676  15.271  0.00  0.00    +0.155 HD
ENDROOT
BRANCH  19  22
ATOM     22  C   UNL     1      -4.241 -10.708  15.436  0.00  0.00    -0.018 A 
ATOM     25  C   UNL     1      -3.380 -10.708  16.534  0.00  0.00    +0.008 A 
ATOM     26  C   UNL     1      -3.721 -10.672  14.142  0.00  0.00    +0.008 A 
ATOM     28  C   UNL     1      -2.000 -10.672  16.339  0.00  0.00    +0.001 A 
ATOM     29  C   UNL     1      -2.340 -10.636  13.947  0.00  0.00    +0.001 A 
ATOM     30  C   UNL     1      -1.480 -10.635  15.045  0.00  0.00    +0.000 A 
ENDBRANCH  19  22
BRANCH  16  20
ATOM      1  S   UNL     1     -14.925 -12.446  20.333  0.00  0.00    -0.092 S 
ATOM     20  C   UNL     1     -13.778 -11.672  21.335  0.00  0.00    +0.074 A 
ATOM     23  C   UNL     1     -13.773 -12.176  22.612  0.00  0.00    +0.021 A 
ATOM     24  C   UNL     1     -14.729 -13.220  22.775  0.00  0.00    +0.008 A 
ATOM     27  C   UNL     1     -15.425 -13.467  21.612  0.00  0.00    +0.046 A 
ENDBRANCH  16  20
TORSDOF 2
ENDMDL
MODEL 10
REMARK VINA RESULT:      -6.4     33.560     34.894
REMARK  Name = 11884208
REMARK  2 active torsions:
REMARK  status: ('A' for Active; 'I' for Inactive)
REMARK    1  A    between atoms: C_16  and  C_20
REMARK    2  A    between atoms: C_19  and  C_22
REMARK                            x       y       z     vdW  Elec       q    Type
REMARK                         _______ _______ _______ _____ _____    ______ ____
ROOT
ATOM      2  O   UNL     1      23.689  -8.708   6.098  0.00  0.00    -0.273 OA
ATOM      3  O   UNL     1      19.836  -9.225   2.519  0.00  0.00    -0.270 OA
ATOM      4  O   UNL     1      25.537 -12.312   5.861  0.00  0.00    -0.269 OA
ATOM      5  N   UNL     1      21.810  -9.752   3.602  0.00  0.00    -0.283 N 
ATOM      6  N   UNL     1      23.461 -11.557   5.173  0.00  0.00    -0.293 N 
ATOM      7  N   UNL     1      22.756  -7.174   4.700  0.00  0.00    -0.283 N 
ATOM      8  C   UNL     1      23.211  -9.442   3.849  0.00  0.00    +0.180 C 
ATOM      9  C   UNL     1      24.050 -10.690   4.149  0.00  0.00    +0.140 C 
ATOM     10  C   UNL     1      21.345 -11.091   3.965  0.00  0.00    +0.128 C 
ATOM     11  C   UNL     1      21.994 -11.583   5.250  0.00  0.00    +0.127 C 
ATOM     12  C   UNL     1      23.219  -8.439   4.992  0.00  0.00    +0.239 C 
ATOM     13  C   UNL     1      20.961  -8.901   2.901  0.00  0.00    +0.249 C 
ATOM     14  C   UNL     1      21.411  -7.512   2.616  0.00  0.00    +0.059 A 
ATOM     15  C   UNL     1      22.148  -6.719   3.511  0.00  0.00    +0.046 A 
ATOM     16  C   UNL     1      24.309 -12.365   5.957  0.00  0.00    +0.253 C 
ATOM     17  C   UNL     1      20.892  -6.928   1.445  0.00  0.00    +0.023 A 
ATOM     18  C   UNL     1      22.289  -5.345   3.245  0.00  0.00    +0.024 A 
ATOM     19  C   UNL     1      21.085  -5.575   1.173  0.00  0.00    -0.017 A 
ATOM     21  C   UNL     1      21.772  -4.780   2.081  0.00  0.00    +0.010 A 
ATOM     31  H   UNL     1      22.969  -6.460   5.393  0.00  0.00    +0.155 HD
ENDROOT
BRANCH  19  22
ATOM     22  C   UNL     1      20.549  -4.995  -0.040  0.00  0.00    -0.018 A 
ATOM     25  C   UNL     1      21.407  -4.631  -1.077  0.00  0.00    +0.008 A 
ATOM     26  C   UNL     1      19.174  -4.800  -0.171  0.00  0.00    +0.008 A 
ATOM     28  C   UNL     1      20.892  -4.072  -2.246  0.00  0.00    +0.001 A 
ATOM     29  C   UNL     1      18.658  -4.241  -1.341  0.00  0.00    +0.001 A 
ATOM     30  C   UNL     1      19.517  -3.877  -2.377  0.00  0.00    +0.000 A 
ENDBRANCH  19  22
BRANCH  16  20
ATOM      1  S   UNL     1      23.367 -14.893   6.383  0.00  0.00    -0.092 S 
ATOM     20  C   UNL     1      23.679 -13.292   6.892  0.00  0.00    +0.074 A 
ATOM     23  C   UNL     1      23.275 -13.064   8.184  0.00  0.00    +0.021 A 
ATOM     24  C   UNL     1      22.699 -14.227   8.773  0.00  0.00    +0.008 A 
ATOM     27  C   UNL     1      22.686 -15.294   7.902  0.00  0.00    +0.046 A 
ENDBRANCH  16  20
TORSDOF 2
ENDMDL
