MODEL 1
REMARK VINA RESULT:      -6.5      0.000      0.000
REMARK  Name = 44716331
REMARK  5 active torsions:
REMARK  status: ('A' for Active; 'I' for Inactive)
REMARK    1  A    between atoms: N_3  and  C_17
REMARK    2  A    between atoms: N_4  and  C_14
REMARK    3  A    between atoms: C_7  and  C_13
REMARK    4  A    between atoms: C_8  and  C_14
REMARK    5  A    between atoms: C_16  and  C_18
REMARK                            x       y       z     vdW  Elec       q    Type
REMARK                         _______ _______ _______ _____ _____    ______ ____
ROOT
ATOM      2  N   UNL     1      12.827   6.777  21.029  0.00  0.00    -0.298 NA
ATOM      6  C   UNL     1      11.526   8.918  20.317  0.00  0.00    +0.002 C 
ATOM      7  C   UNL     1      12.026   8.143  19.066  0.00  0.00    +0.055 C 
ATOM      8  C   UNL     1      13.342   7.957  21.774  0.00  0.00    +0.070 C 
ATOM      9  C   UNL     1      12.731   9.261  21.219  0.00  0.00    +0.024 C 
ATOM     10  C   UNL     1      10.626   7.948  21.112  0.00  0.00    +0.019 C 
ATOM     11  C   UNL     1      12.956   7.002  19.568  0.00  0.00    +0.094 C 
ATOM     12  C   UNL     1      11.386   6.632  21.350  0.00  0.00    +0.085 C 
ENDROOT
BRANCH   7  13
ATOM      3  N   UNL     1      12.023   9.155  16.738  0.00  0.00    -0.270 N 
ATOM      5  N   UNL     1      12.745   9.880  15.867  0.00  0.00    -0.171 NA
ATOM     13  C   UNL     1      12.651   8.940  17.929  0.00  0.00    +0.044 A 
ATOM     15  C   UNL     1      13.868   9.569  17.831  0.00  0.00    +0.053 A 
ATOM     16  C   UNL     1      13.871  10.131  16.540  0.00  0.00    +0.100 A 
ATOM     17  C   UNL     1      10.710   8.691  16.352  0.00  0.00    +0.172 C 
BRANCH  16  18
ATOM      1  S   UNL     1      15.746  12.211  16.758  0.00  0.00    -0.095 S 
ATOM     18  C   UNL     1      14.969  10.917  15.950  0.00  0.00    +0.039 A 
ATOM     19  C   UNL     1      15.492  10.703  14.694  0.00  0.00    +0.018 A 
ATOM     20  C   UNL     1      16.544  11.615  14.391  0.00  0.00    +0.008 A 
ATOM     21  C   UNL     1      16.786  12.489  15.426  0.00  0.00    +0.046 A 
ENDBRANCH  16  18
ENDBRANCH   7  13
BRANCH   8  14
ATOM     14  C   UNL     1      14.871   8.008  21.797  0.00  0.00    +0.096 C 
BRANCH  14   4
ATOM      4  N   UNL     1      15.425   6.719  22.177  0.00  0.00    -0.329 NA
ATOM     22  H   UNL     1      14.667   6.070  22.379  0.00  0.00    +0.118 HD
ATOM     23  H   UNL     1      15.942   6.313  21.397  0.00  0.00    +0.118 HD
ENDBRANCH  14   4
ENDBRANCH   8  14
TORSDOF 4
ENDMDL
MODEL 2
REMARK VINA RESULT:      -6.1      3.608      5.871
REMARK  Name = 44716331
REMARK  5 active torsions:
REMARK  status: ('A' for Active; 'I' for Inactive)
REMARK    1  A    between atoms: N_3  and  C_17
REMARK    2  A    between atoms: N_4  and  C_14
REMARK    3  A    between atoms: C_7  and  C_13
REMARK    4  A    between atoms: C_8  and  C_14
REMARK    5  A    between atoms: C_16  and  C_18
REMARK                            x       y       z     vdW  Elec       q    Type
REMARK                         _______ _______ _______ _____ _____    ______ ____
ROOT
ATOM      2  N   UNL     1      13.890   7.173  20.345  0.00  0.00    -0.298 NA
ATOM      6  C   UNL     1      13.064   8.814  18.499  0.00  0.00    +0.002 C 
ATOM      7  C   UNL     1      13.717   9.598  19.671  0.00  0.00    +0.055 C 
ATOM      8  C   UNL     1      12.482   6.863  19.982  0.00  0.00    +0.070 C 
ATOM      9  C   UNL     1      11.909   7.949  19.046  0.00  0.00    +0.024 C 
ATOM     10  C   UNL     1      14.139   7.847  17.957  0.00  0.00    +0.019 C 
ATOM     11  C   UNL     1      13.998   8.578  20.812  0.00  0.00    +0.094 C 
ATOM     12  C   UNL     1      14.717   7.027  19.122  0.00  0.00    +0.085 C 
ENDROOT
BRANCH   7  13
ATOM      3  N   UNL     1      13.125  12.064  19.563  0.00  0.00    -0.270 N 
ATOM      5  N   UNL     1      12.431  13.043  20.167  0.00  0.00    -0.171 NA
ATOM     13  C   UNL     1      13.017  10.851  20.177  0.00  0.00    +0.044 A 
ATOM     15  C   UNL     1      12.193  11.051  21.258  0.00  0.00    +0.053 A 
ATOM     16  C   UNL     1      11.863  12.418  21.202  0.00  0.00    +0.100 A 
ATOM     17  C   UNL     1      13.888  12.370  18.374  0.00  0.00    +0.172 C 
BRANCH  16  18
ATOM      1  S   UNL     1       9.968  14.429  21.712  0.00  0.00    -0.095 S 
ATOM     18  C   UNL     1      10.991  13.129  22.154  0.00  0.00    +0.039 A 
ATOM     19  C   UNL     1      10.899  12.832  23.496  0.00  0.00    +0.018 A 
ATOM     20  C   UNL     1       9.977  13.684  24.170  0.00  0.00    +0.008 A 
ATOM     21  C   UNL     1       9.399  14.598  23.318  0.00  0.00    +0.046 A 
ENDBRANCH  16  18
ENDBRANCH   7  13
BRANCH   8  14
ATOM     14  C   UNL     1      11.598   6.647  21.212  0.00  0.00    +0.096 C 
BRANCH  14   4
ATOM      4  N   UNL     1      11.025   5.311  21.208  0.00  0.00    -0.329 NA
ATOM     22  H   UNL     1      10.205   5.296  20.604  0.00  0.00    +0.118 HD
ATOM     23  H   UNL     1      11.683   4.645  20.805  0.00  0.00    +0.118 HD
ENDBRANCH  14   4
ENDBRANCH   8  14
TORSDOF 4
ENDMDL
MODEL 3
REMARK VINA RESULT:      -6.0      3.618      5.747
REMARK  Name = 44716331
REMARK  5 active torsions:
REMARK  status: ('A' for Active; 'I' for Inactive)
REMARK    1  A    between atoms: N_3  and  C_17
REMARK    2  A    between atoms: N_4  and  C_14
REMARK    3  A    between atoms: C_7  and  C_13
REMARK    4  A    between atoms: C_8  and  C_14
REMARK    5  A    between atoms: C_16  and  C_18
REMARK                            x       y       z     vdW  Elec       q    Type
REMARK                         _______ _______ _______ _____ _____    ______ ____
ROOT
ATOM      2  N   UNL     1      11.568   9.644  20.390  0.00  0.00    -0.298 NA
ATOM      6  C   UNL     1      12.518   7.763  21.920  0.00  0.00    +0.002 C 
ATOM      7  C   UNL     1      13.504   8.963  21.856  0.00  0.00    +0.055 C 
ATOM      8  C   UNL     1      11.503   8.336  19.687  0.00  0.00    +0.070 C 
ATOM      9  C   UNL     1      12.248   7.249  20.490  0.00  0.00    +0.024 C 
ATOM     10  C   UNL     1      11.183   8.314  22.464  0.00  0.00    +0.019 C 
ATOM     11  C   UNL     1      12.969   9.946  20.776  0.00  0.00    +0.094 C 
ATOM     12  C   UNL     1      10.761   9.535  21.629  0.00  0.00    +0.085 C 
ENDROOT
BRANCH   7  13
ATOM      3  N   UNL     1      15.963   9.591  21.908  0.00  0.00    -0.270 N 
ATOM      5  N   UNL     1      17.208   9.131  21.695  0.00  0.00    -0.171 NA
ATOM     13  C   UNL     1      14.987   8.665  21.681  0.00  0.00    +0.044 A 
ATOM     15  C   UNL     1      15.639   7.520  21.295  0.00  0.00    +0.053 A 
ATOM     16  C   UNL     1      17.004   7.865  21.321  0.00  0.00    +0.100 A 
ATOM     17  C   UNL     1      15.780  10.959  22.336  0.00  0.00    +0.172 C 
BRANCH  16  18
ATOM      1  S   UNL     1      19.639   7.004  21.776  0.00  0.00    -0.095 S 
ATOM     18  C   UNL     1      18.122   6.965  20.984  0.00  0.00    +0.039 A 
ATOM     19  C   UNL     1      18.074   6.000  20.004  0.00  0.00    +0.018 A 
ATOM     20  C   UNL     1      19.301   5.282  19.901  0.00  0.00    +0.008 A 
ATOM     21  C   UNL     1      20.238   5.726  20.807  0.00  0.00    +0.046 A 
ENDBRANCH  16  18
ENDBRANCH   7  13
BRANCH   8  14
ATOM     14  C   UNL     1      12.006   8.424  18.245  0.00  0.00    +0.096 C 
BRANCH  14   4
ATOM      4  N   UNL     1      12.017   7.111  17.620  0.00  0.00    -0.329 NA
ATOM     22  H   UNL     1      12.413   7.185  16.685  0.00  0.00    +0.118 HD
ATOM     23  H   UNL     1      12.629   6.480  18.136  0.00  0.00    +0.118 HD
ENDBRANCH  14   4
ENDBRANCH   8  14
TORSDOF 4
ENDMDL
MODEL 4
REMARK VINA RESULT:      -6.0     13.773     16.960
REMARK  Name = 44716331
REMARK  5 active torsions:
REMARK  status: ('A' for Active; 'I' for Inactive)
REMARK    1  A    between atoms: N_3  and  C_17
REMARK    2  A    between atoms: N_4  and  C_14
REMARK    3  A    between atoms: C_7  and  C_13
REMARK    4  A    between atoms: C_8  and  C_14
REMARK    5  A    between atoms: C_16  and  C_18
REMARK                            x       y       z     vdW  Elec       q    Type
REMARK                         _______ _______ _______ _____ _____    ______ ____
ROOT
ATOM      2  N   UNL     1      13.085   5.446   0.188  0.00  0.00    -0.298 NA
ATOM      6  C   UNL     1      11.056   4.026   0.992  0.00  0.00    +0.002 C 
ATOM      7  C   UNL     1      10.904   5.502   1.454  0.00  0.00    +0.055 C 
ATOM      8  C   UNL     1      13.564   4.210   0.859  0.00  0.00    +0.070 C 
ATOM      9  C   UNL     1      12.390   3.460   1.524  0.00  0.00    +0.024 C 
ATOM     10  C   UNL     1      11.154   4.049  -0.548  0.00  0.00    +0.019 C 
ATOM     11  C   UNL     1      12.235   6.233   1.116  0.00  0.00    +0.094 C 
ATOM     12  C   UNL     1      12.252   5.040  -0.970  0.00  0.00    +0.085 C 
ENDROOT
BRANCH   7  13
ATOM      3  N   UNL     1       9.626   6.800   3.222  0.00  0.00    -0.270 N 
ATOM      5  N   UNL     1       9.343   6.860   4.534  0.00  0.00    -0.171 NA
ATOM     13  C   UNL     1      10.448   5.765   2.882  0.00  0.00    +0.044 A 
ATOM     15  C   UNL     1      10.719   5.101   4.054  0.00  0.00    +0.053 A 
ATOM     16  C   UNL     1      10.013   5.819   5.037  0.00  0.00    +0.100 A 
ATOM     17  C   UNL     1       9.063   7.790   2.333  0.00  0.00    +0.172 C 
BRANCH  16  18
ATOM      1  S   UNL     1      10.214   6.662   7.709  0.00  0.00    -0.095 S 
ATOM     18  C   UNL     1       9.983   5.498   6.475  0.00  0.00    +0.039 A 
ATOM     19  C   UNL     1       9.767   4.238   6.987  0.00  0.00    +0.018 A 
ATOM     20  C   UNL     1       9.792   4.228   8.412  0.00  0.00    +0.008 A 
ATOM     21  C   UNL     1      10.025   5.481   8.934  0.00  0.00    +0.046 A 
ENDBRANCH  16  18
ENDBRANCH   7  13
BRANCH   8  14
ATOM     14  C   UNL     1      14.697   4.487   1.850  0.00  0.00    +0.096 C 
BRANCH  14   4
ATOM      4  N   UNL     1      15.423   3.266   2.160  0.00  0.00    -0.329 NA
ATOM     22  H   UNL     1      15.084   2.885   3.041  0.00  0.00    +0.118 HD
ATOM     23  H   UNL     1      15.234   2.554   1.455  0.00  0.00    +0.118 HD
ENDBRANCH  14   4
ENDBRANCH   8  14
TORSDOF 4
ENDMDL
MODEL 5
REMARK VINA RESULT:      -5.8     25.274     27.326
REMARK  Name = 44716331
REMARK  5 active torsions:
REMARK  status: ('A' for Active; 'I' for Inactive)
REMARK    1  A    between atoms: N_3  and  C_17
REMARK    2  A    between atoms: N_4  and  C_14
REMARK    3  A    between atoms: C_7  and  C_13
REMARK    4  A    between atoms: C_8  and  C_14
REMARK    5  A    between atoms: C_16  and  C_18
REMARK                            x       y       z     vdW  Elec       q    Type
REMARK                         _______ _______ _______ _____ _____    ______ ____
ROOT
ATOM      2  N   UNL     1      -5.474 -10.576  18.083  0.00  0.00    -0.298 NA
ATOM      6  C   UNL     1      -5.039 -12.550  16.441  0.00  0.00    +0.002 C 
ATOM      7  C   UNL     1      -3.966 -11.442  16.256  0.00  0.00    +0.055 C 
ATOM      8  C   UNL     1      -6.725 -10.918  17.357  0.00  0.00    +0.070 C 
ATOM      9  C   UNL     1      -6.442 -11.940  16.235  0.00  0.00    +0.024 C 
ATOM     10  C   UNL     1      -4.956 -13.010  17.913  0.00  0.00    +0.019 C 
ATOM     11  C   UNL     1      -4.404 -10.222  17.117  0.00  0.00    +0.094 C 
ATOM     12  C   UNL     1      -5.041 -11.780  18.833  0.00  0.00    +0.085 C 
ENDROOT
BRANCH   7  13
ATOM      3  N   UNL     1      -2.338 -10.600  14.500  0.00  0.00    -0.270 N 
ATOM      5  N   UNL     1      -2.205 -10.294  13.198  0.00  0.00    -0.171 NA
ATOM     13  C   UNL     1      -3.584 -11.040  14.839  0.00  0.00    +0.044 A 
ATOM     15  C   UNL     1      -4.317 -11.021  13.677  0.00  0.00    +0.053 A 
ATOM     16  C   UNL     1      -3.417 -10.553  12.700  0.00  0.00    +0.100 A 
ATOM     17  C   UNL     1      -1.203 -10.444  15.381  0.00  0.00    +0.172 C 
BRANCH  16  18
ATOM      1  S   UNL     1      -4.177 -11.627  10.218  0.00  0.00    -0.095 S 
ATOM     18  C   UNL     1      -3.729 -10.356  11.273  0.00  0.00    +0.039 A 
ATOM     19  C   UNL     1      -3.695  -9.138  10.631  0.00  0.00    +0.018 A 
ATOM     20  C   UNL     1      -4.043  -9.250   9.254  0.00  0.00    +0.008 A 
ATOM     21  C   UNL     1      -4.328 -10.549   8.896  0.00  0.00    +0.046 A 
ENDBRANCH  16  18
ENDBRANCH   7  13
BRANCH   8  14
ATOM     14  C   UNL     1      -7.449  -9.678  16.829  0.00  0.00    +0.096 C 
BRANCH  14   4
ATOM      4  N   UNL     1      -8.174  -9.009  17.897  0.00  0.00    -0.329 NA
ATOM     22  H   UNL     1      -7.939  -9.441  18.788  0.00  0.00    +0.118 HD
ATOM     23  H   UNL     1      -7.878  -8.036  17.970  0.00  0.00    +0.118 HD
ENDBRANCH  14   4
ENDBRANCH   8  14
TORSDOF 4
ENDMDL
MODEL 6
REMARK VINA RESULT:      -5.5      3.778      6.258
REMARK  Name = 44716331
REMARK  5 active torsions:
REMARK  status: ('A' for Active; 'I' for Inactive)
REMARK    1  A    between atoms: N_3  and  C_17
REMARK    2  A    between atoms: N_4  and  C_14
REMARK    3  A    between atoms: C_7  and  C_13
REMARK    4  A    between atoms: C_8  and  C_14
REMARK    5  A    between atoms: C_16  and  C_18
REMARK                            x       y       z     vdW  Elec       q    Type
REMARK                         _______ _______ _______ _____ _____    ______ ____
ROOT
ATOM      2  N   UNL     1      12.876   7.440  20.241  0.00  0.00    -0.298 NA
ATOM      6  C   UNL     1      14.791   8.588  18.901  0.00  0.00    +0.002 C 
ATOM      7  C   UNL     1      15.284   7.249  19.516  0.00  0.00    +0.055 C 
ATOM      8  C   UNL     1      13.003   8.863  20.653  0.00  0.00    +0.070 C 
ATOM      9  C   UNL     1      14.260   9.501  20.025  0.00  0.00    +0.024 C 
ATOM     10  C   UNL     1      13.591   8.244  17.991  0.00  0.00    +0.019 C 
ATOM     11  C   UNL     1      14.161   6.730  20.459  0.00  0.00    +0.094 C 
ATOM     12  C   UNL     1      12.573   7.413  18.789  0.00  0.00    +0.085 C 
ENDROOT
BRANCH   7  13
ATOM      3  N   UNL     1      17.664   6.405  19.777  0.00  0.00    -0.270 N 
ATOM      5  N   UNL     1      18.791   6.536  20.496  0.00  0.00    -0.171 NA
ATOM     13  C   UNL     1      16.653   7.226  20.183  0.00  0.00    +0.044 A 
ATOM     15  C   UNL     1      17.155   7.945  21.240  0.00  0.00    +0.053 A 
ATOM     16  C   UNL     1      18.475   7.478  21.389  0.00  0.00    +0.100 A 
ATOM     17  C   UNL     1      17.626   5.452  18.691  0.00  0.00    +0.172 C 
BRANCH  16  18
ATOM      1  S   UNL     1      19.765   9.599  22.704  0.00  0.00    -0.095 S 
ATOM     18  C   UNL     1      19.440   7.946  22.399  0.00  0.00    +0.039 A 
ATOM     19  C   UNL     1      20.184   7.115  23.207  0.00  0.00    +0.018 A 
ATOM     20  C   UNL     1      21.033   7.846  24.088  0.00  0.00    +0.008 A 
ATOM     21  C   UNL     1      20.905   9.207  23.920  0.00  0.00    +0.046 A 
ENDBRANCH  16  18
ENDBRANCH   7  13
BRANCH   8  14
ATOM     14  C   UNL     1      12.975   9.033  22.173  0.00  0.00    +0.096 C 
BRANCH  14   4
ATOM      4  N   UNL     1      14.229   9.590  22.654  0.00  0.00    -0.329 NA
ATOM     22  H   UNL     1      14.255  10.588  22.454  0.00  0.00    +0.118 HD
ATOM     23  H   UNL     1      14.289   9.505  23.668  0.00  0.00    +0.118 HD
ENDBRANCH  14   4
ENDBRANCH   8  14
TORSDOF 4
ENDMDL
MODEL 7
REMARK VINA RESULT:      -5.5      9.442     12.435
REMARK  Name = 44716331
REMARK  5 active torsions:
REMARK  status: ('A' for Active; 'I' for Inactive)
REMARK    1  A    between atoms: N_3  and  C_17
REMARK    2  A    between atoms: N_4  and  C_14
REMARK    3  A    between atoms: C_7  and  C_13
REMARK    4  A    between atoms: C_8  and  C_14
REMARK    5  A    between atoms: C_16  and  C_18
REMARK                            x       y       z     vdW  Elec       q    Type
REMARK                         _______ _______ _______ _____ _____    ______ ____
ROOT
ATOM      2  N   UNL     1      10.688   6.206   5.972  0.00  0.00    -0.298 NA
ATOM      6  C   UNL     1       8.621   7.746   5.601  0.00  0.00    +0.002 C 
ATOM      7  C   UNL     1       9.870   8.592   5.975  0.00  0.00    +0.055 C 
ATOM      8  C   UNL     1       9.528   5.697   6.750  0.00  0.00    +0.070 C 
ATOM      9  C   UNL     1       8.360   6.705   6.709  0.00  0.00    +0.024 C 
ATOM     10  C   UNL     1       8.981   6.964   4.319  0.00  0.00    +0.019 C 
ATOM     11  C   UNL     1      10.999   7.600   6.375  0.00  0.00    +0.094 C 
ATOM     12  C   UNL     1      10.305   6.213   4.539  0.00  0.00    +0.085 C 
ENDROOT
BRANCH   7  13
ATOM      3  N   UNL     1       9.239  10.954   6.657  0.00  0.00    -0.270 N 
ATOM      5  N   UNL     1       9.165  11.802   7.697  0.00  0.00    -0.171 NA
ATOM     13  C   UNL     1       9.701   9.714   6.989  0.00  0.00    +0.044 A 
ATOM     15  C   UNL     1       9.944   9.753   8.341  0.00  0.00    +0.053 A 
ATOM     16  C   UNL     1       9.596  11.063   8.723  0.00  0.00    +0.100 A 
ATOM     17  C   UNL     1       8.843  11.410   5.345  0.00  0.00    +0.172 C 
BRANCH  16  18
ATOM      1  S   UNL     1      11.153  12.024  10.855  0.00  0.00    -0.095 S 
ATOM     18  C   UNL     1       9.679  11.606  10.090  0.00  0.00    +0.039 A 
ATOM     19  C   UNL     1       8.592  11.839  10.903  0.00  0.00    +0.018 A 
ATOM     20  C   UNL     1       8.974  12.367  12.169  0.00  0.00    +0.008 A 
ATOM     21  C   UNL     1      10.339  12.519  12.277  0.00  0.00    +0.046 A 
ENDBRANCH  16  18
ENDBRANCH   7  13
BRANCH   8  14
ATOM     14  C   UNL     1       9.908   5.322   8.184  0.00  0.00    +0.096 C 
BRANCH  14   4
ATOM      4  N   UNL     1      10.296   3.924   8.268  0.00  0.00    -0.329 NA
ATOM     22  H   UNL     1      11.079   3.752   7.640  0.00  0.00    +0.118 HD
ATOM     23  H   UNL     1      10.633   3.705   9.205  0.00  0.00    +0.118 HD
ENDBRANCH  14   4
ENDBRANCH   8  14
TORSDOF 4
ENDMDL
MODEL 8
REMARK VINA RESULT:      -5.4     27.358     29.292
REMARK  Name = 44716331
REMARK  5 active torsions:
REMARK  status: ('A' for Active; 'I' for Inactive)
REMARK    1  A    between atoms: N_3  and  C_17
REMARK    2  A    between atoms: N_4  and  C_14
REMARK    3  A    between atoms: C_7  and  C_13
REMARK    4  A    between atoms: C_8  and  C_14
REMARK    5  A    between atoms: C_16  and  C_18
REMARK                            x       y       z     vdW  Elec       q    Type
REMARK                         _______ _______ _______ _____ _____    ______ ____
ROOT
ATOM      2  N   UNL     1      -5.429 -12.508  16.954  0.00  0.00    -0.298 NA
ATOM      6  C   UNL     1      -5.885 -10.680  18.752  0.00  0.00    +0.002 C 
ATOM      7  C   UNL     1      -7.206 -11.395  18.355  0.00  0.00    +0.055 C 
ATOM      8  C   UNL     1      -4.799 -11.225  16.545  0.00  0.00    +0.070 C 
ATOM      9  C   UNL     1      -5.230 -10.082  17.488  0.00  0.00    +0.024 C 
ATOM     10  C   UNL     1      -4.931 -11.771  19.284  0.00  0.00    +0.019 C 
ATOM     11  C   UNL     1      -6.889 -12.320  17.146  0.00  0.00    +0.094 C 
ATOM     12  C   UNL     1      -4.840 -12.910  18.254  0.00  0.00    +0.085 C 
ENDROOT
BRANCH   7  13
ATOM      3  N   UNL     1      -9.576 -10.646  18.870  0.00  0.00    -0.270 N 
ATOM      5  N   UNL     1     -10.555  -9.803  18.499  0.00  0.00    -0.171 NA
ATOM     13  C   UNL     1      -8.443 -10.539  18.118  0.00  0.00    +0.044 A 
ATOM     15  C   UNL     1      -8.698  -9.558  17.192  0.00  0.00    +0.053 A 
ATOM     16  C   UNL     1     -10.013  -9.141  17.473  0.00  0.00    +0.100 A 
ATOM     17  C   UNL     1      -9.802 -11.545  19.978  0.00  0.00    +0.172 C 
BRANCH  16  18
ATOM      1  S   UNL     1     -12.448  -8.121  16.513  0.00  0.00    -0.095 S 
ATOM     18  C   UNL     1     -10.753  -8.093  16.748  0.00  0.00    +0.039 A 
ATOM     19  C   UNL     1     -10.171  -6.980  16.181  0.00  0.00    +0.018 A 
ATOM     20  C   UNL     1     -11.131  -6.141  15.545  0.00  0.00    +0.008 A 
ATOM     21  C   UNL     1     -12.409  -6.642  15.651  0.00  0.00    +0.046 A 
ENDBRANCH  16  18
ENDBRANCH   7  13
BRANCH   8  14
ATOM     14  C   UNL     1      -5.068 -10.886  15.078  0.00  0.00    +0.096 C 
BRANCH  14   4
ATOM      4  N   UNL     1      -5.713  -9.588  14.958  0.00  0.00    -0.329 NA
ATOM     22  H   UNL     1      -5.577  -9.229  14.014  0.00  0.00    +0.118 HD
ATOM     23  H   UNL     1      -6.721  -9.682  15.080  0.00  0.00    +0.118 HD
ENDBRANCH  14   4
ENDBRANCH   8  14
TORSDOF 4
ENDMDL
MODEL 9
REMARK VINA RESULT:      -5.4     31.302     32.150
REMARK  Name = 44716331
REMARK  5 active torsions:
REMARK  status: ('A' for Active; 'I' for Inactive)
REMARK    1  A    between atoms: N_3  and  C_17
REMARK    2  A    between atoms: N_4  and  C_14
REMARK    3  A    between atoms: C_7  and  C_13
REMARK    4  A    between atoms: C_8  and  C_14
REMARK    5  A    between atoms: C_16  and  C_18
REMARK                            x       y       z     vdW  Elec       q    Type
REMARK                         _______ _______ _______ _____ _____    ______ ____
ROOT
ATOM      2  N   UNL     1     -15.424   4.101  33.902  0.00  0.00    -0.298 NA
ATOM      6  C   UNL     1     -14.326   5.646  32.116  0.00  0.00    +0.002 C 
ATOM      7  C   UNL     1     -15.810   5.364  31.753  0.00  0.00    +0.055 C 
ATOM      8  C   UNL     1     -14.133   3.519  33.451  0.00  0.00    +0.070 C 
ATOM      9  C   UNL     1     -13.570   4.307  32.249  0.00  0.00    +0.024 C 
ATOM     10  C   UNL     1     -14.327   6.307  33.512  0.00  0.00    +0.019 C 
ATOM     11  C   UNL     1     -16.333   4.284  32.743  0.00  0.00    +0.094 C 
ATOM     12  C   UNL     1     -15.142   5.436  34.483  0.00  0.00    +0.085 C 
ENDROOT
BRANCH   7  13
ATOM      3  N   UNL     1     -16.726   5.922  29.453  0.00  0.00    -0.270 N 
ATOM      5  N   UNL     1     -16.941   5.433  28.219  0.00  0.00    -0.171 NA
ATOM     13  C   UNL     1     -16.145   5.031  30.306  0.00  0.00    +0.044 A 
ATOM     15  C   UNL     1     -15.965   3.879  29.579  0.00  0.00    +0.053 A 
ATOM     16  C   UNL     1     -16.473   4.184  28.303  0.00  0.00    +0.100 A 
ATOM     17  C   UNL     1     -17.113   7.282  29.749  0.00  0.00    +0.172 C 
BRANCH  16  18
ATOM      1  S   UNL     1     -16.851   1.592  27.287  0.00  0.00    -0.095 S 
ATOM     18  C   UNL     1     -16.508   3.264  27.152  0.00  0.00    +0.039 A 
ATOM     19  C   UNL     1     -16.271   3.640  25.848  0.00  0.00    +0.018 A 
ATOM     20  C   UNL     1     -16.372   2.540  24.949  0.00  0.00    +0.008 A 
ATOM     21  C   UNL     1     -16.683   1.366  25.598  0.00  0.00    +0.046 A 
ENDBRANCH  16  18
ENDBRANCH   7  13
BRANCH   8  14
ATOM     14  C   UNL     1     -14.243   2.022  33.149  0.00  0.00    +0.096 C 
BRANCH  14   4
ATOM      4  N   UNL     1     -14.760   1.300  34.300  0.00  0.00    -0.329 NA
ATOM     22  H   UNL     1     -15.769   1.429  34.356  0.00  0.00    +0.118 HD
ATOM     23  H   UNL     1     -14.610   0.298  34.186  0.00  0.00    +0.118 HD
ENDBRANCH  14   4
ENDBRANCH   8  14
TORSDOF 4
ENDMDL
MODEL 10
REMARK VINA RESULT:      -5.4     26.076     28.174
REMARK  Name = 44716331
REMARK  5 active torsions:
REMARK  status: ('A' for Active; 'I' for Inactive)
REMARK    1  A    between atoms: N_3  and  C_17
REMARK    2  A    between atoms: N_4  and  C_14
REMARK    3  A    between atoms: C_7  and  C_13
REMARK    4  A    between atoms: C_8  and  C_14
REMARK    5  A    between atoms: C_16  and  C_18
REMARK                            x       y       z     vdW  Elec       q    Type
REMARK                         _______ _______ _______ _____ _____    ______ ____
ROOT
ATOM      2  N   UNL     1      -5.942 -10.582   9.839  0.00  0.00    -0.298 NA
ATOM      6  C   UNL     1      -4.077  -9.182  10.997  0.00  0.00    +0.002 C 
ATOM      7  C   UNL     1      -4.268 -10.541  11.725  0.00  0.00    +0.055 C 
ATOM      8  C   UNL     1      -6.431  -9.203  10.103  0.00  0.00    +0.070 C 
ATOM      9  C   UNL     1      -5.421  -8.424  10.971  0.00  0.00    +0.024 C 
ATOM     10  C   UNL     1      -3.712  -9.508   9.533  0.00  0.00    +0.019 C 
ATOM     11  C   UNL     1      -5.522 -11.225  11.108  0.00  0.00    +0.094 C 
ATOM     12  C   UNL     1      -4.754 -10.480   8.956  0.00  0.00    +0.085 C 
ENDROOT
BRANCH   7  13
ATOM      3  N   UNL     1      -3.177 -10.648  14.014  0.00  0.00    -0.270 N 
ATOM      5  N   UNL     1      -3.418 -10.633  15.336  0.00  0.00    -0.171 NA
ATOM     13  C   UNL     1      -4.300 -10.544  13.247  0.00  0.00    +0.044 A 
ATOM     15  C   UNL     1      -5.349 -10.453  14.129  0.00  0.00    +0.053 A 
ATOM     16  C   UNL     1      -4.748 -10.513  15.400  0.00  0.00    +0.100 A 
ATOM     17  C   UNL     1      -1.814 -10.768  13.548  0.00  0.00    +0.172 C 
BRANCH  16  18
ATOM      1  S   UNL     1      -7.072  -9.901  16.853  0.00  0.00    -0.095 S 
ATOM     18  C   UNL     1      -5.460 -10.453  16.688  0.00  0.00    +0.039 A 
ATOM     19  C   UNL     1      -4.917 -10.830  17.896  0.00  0.00    +0.018 A 
ATOM     20  C   UNL     1      -5.837 -10.664  18.971  0.00  0.00    +0.008 A 
ATOM     21  C   UNL     1      -7.048 -10.166  18.545  0.00  0.00    +0.046 A 
ENDBRANCH  16  18
ENDBRANCH   7  13
BRANCH   8  14
ATOM     14  C   UNL     1      -7.835  -9.190  10.712  0.00  0.00    +0.096 C 
BRANCH  14   4
ATOM      4  N   UNL     1      -8.804  -8.661   9.766  0.00  0.00    -0.329 NA
ATOM     22  H   UNL     1      -8.314  -8.188   9.009  0.00  0.00    +0.118 HD
ATOM     23  H   UNL     1      -9.325  -9.422   9.331  0.00  0.00    +0.118 HD
ENDBRANCH  14   4
ENDBRANCH   8  14
TORSDOF 4
ENDMDL
