REMARK  Name = 28962187
REMARK  13 active torsions:
REMARK  status: ('A' for Active; 'I' for Inactive)
REMARK    1  A    between atoms: S_1  and  N_8
REMARK    2  A    between atoms: S_1  and  C_19
REMARK    3  A    between atoms: O_3  and  C_11
REMARK    4  A    between atoms: O_4  and  C_14
REMARK    5  A    between atoms: N_7  and  C_9
REMARK    6  A    between atoms: N_7  and  C_15
REMARK    7  A    between atoms: N_7  and  C_16
REMARK    8  A    between atoms: N_8  and  C_13
REMARK    9  A    between atoms: C_10  and  C_13
REMARK   10  A    between atoms: C_12  and  C_14
REMARK   11  A    between atoms: C_15  and  C_17
REMARK   12  A    between atoms: C_17  and  C_18
REMARK   13  A    between atoms: C_29  and  C_30
REMARK                            x       y       z     vdW  Elec       q    Type
REMARK                         _______ _______ _______ _____ _____    ______ ____
ROOT
ATOM      2  O   UNL     1       1.677   2.698   1.220  0.00  0.00    -0.366 OA
ATOM      9  C   UNL     1      -0.199   2.851  -0.236  0.00  0.00    +0.118 C 
ATOM     10  C   UNL     1       0.441   2.027   0.888  0.00  0.00    +0.154 C 
ATOM     11  C   UNL     1       0.997   3.526  -0.890  0.00  0.00    +0.165 C 
ATOM     12  C   UNL     1       1.858   3.818   0.333  0.00  0.00    +0.174 C 
ENDROOT
BRANCH  11   3
ATOM      3  O   UNL     1       1.675   2.643  -1.774  0.00  0.00    -0.388 OA
ATOM     31  H   UNL     1       2.357   3.157  -2.237  0.00  0.00    +0.210 HD
ENDBRANCH  11   3
BRANCH   9   7
ATOM      7  N   UNL     1      -1.074   2.128  -1.143  0.00  0.00    -0.297 NA
ATOM     16  C   UNL     1      -1.632   3.027  -2.158  0.00  0.00    +0.105 C 
BRANCH   7  15
ATOM     15  C   UNL     1      -2.157   1.468  -0.407  0.00  0.00    +0.089 C 
BRANCH  15  17
ATOM     17  C   UNL     1      -2.803   0.369  -1.252  0.00  0.00    +0.050 C 
BRANCH  17  18
ATOM     18  C   UNL     1      -3.934  -0.303  -0.514  0.00  0.00    -0.046 A 
ATOM     20  C   UNL     1      -3.681  -1.421   0.281  0.00  0.00    +0.003 A 
ATOM     21  C   UNL     1      -5.233   0.192  -0.628  0.00  0.00    +0.003 A 
ATOM     24  C   UNL     1      -4.727  -2.043   0.963  0.00  0.00    +0.000 A 
ATOM     25  C   UNL     1      -6.279  -0.430   0.054  0.00  0.00    +0.000 A 
ATOM     28  C   UNL     1      -6.026  -1.548   0.849  0.00  0.00    +0.000 A 
ENDBRANCH  17  18
ENDBRANCH  15  17
ENDBRANCH   7  15
ENDBRANCH   9   7
BRANCH  10  13
ATOM     13  C   UNL     1       0.787   0.578   0.563  0.00  0.00    +0.139 C 
BRANCH  13   8
ATOM      8  N   UNL     1       1.389  -0.059   1.748  0.00  0.00    -0.187 NA
ATOM     32  H   UNL     1       2.230   0.398   2.123  0.00  0.00    +0.148 HD
BRANCH   8   1
ATOM      1  S   UNL     1       1.182  -1.726   2.020  0.00  0.00    +0.058 S 
ATOM      5  O   UNL     1      -0.234  -2.042   2.003  0.00  0.00    -0.153 OA
ATOM      6  O   UNL     1       2.006  -2.129   3.144  0.00  0.00    -0.153 OA
BRANCH   1  19
ATOM     19  C   UNL     1       1.913  -2.422   0.569  0.00  0.00    +0.105 A 
ATOM     22  C   UNL     1       3.271  -2.738   0.556  0.00  0.00    +0.029 A 
ATOM     23  C   UNL     1       1.132  -2.652  -0.564  0.00  0.00    +0.029 A 
ATOM     26  C   UNL     1       3.849  -3.285  -0.590  0.00  0.00    +0.005 A 
ATOM     27  C   UNL     1       1.710  -3.199  -1.710  0.00  0.00    +0.005 A 
ATOM     29  C   UNL     1       3.068  -3.515  -1.723  0.00  0.00    -0.050 A 
ATOM     30  C   UNL     1       3.686  -4.100  -2.948  0.00  0.00    +0.044 C 
ENDBRANCH   1  19
ENDBRANCH   8   1
ENDBRANCH  13   8
ENDBRANCH  10  13
BRANCH  12  14
ATOM     14  C   UNL     1       3.339   4.007   0.059  0.00  0.00    +0.190 C 
BRANCH  14   4
ATOM      4  O   UNL     1       4.000   4.281   1.284  0.00  0.00    -0.392 OA
ATOM     33  H   UNL     1       4.943   4.400   1.079  0.00  0.00    +0.210 HD
ENDBRANCH  14   4
ENDBRANCH  12  14
TORSDOF 11
