REMARK  Name = 40781553
REMARK  8 active torsions:
REMARK  status: ('A' for Active; 'I' for Inactive)
REMARK    1  A    between atoms: S_2  and  N_11
REMARK    2  A    between atoms: S_2  and  C_23
REMARK    3  A    between atoms: O_4  and  C_13
REMARK    4  A    between atoms: O_5  and  C_14
REMARK    5  A    between atoms: N_11  and  C_17
REMARK    6  A    between atoms: C_12  and  C_16
REMARK    7  A    between atoms: C_15  and  C_17
REMARK    8  A    between atoms: C_16  and  C_18
REMARK                            x       y       z     vdW  Elec       q    Type
REMARK                         _______ _______ _______ _____ _____    ______ ____
ROOT
ATOM      3  O   UNL     1      -0.894   1.785  -0.632  0.00  0.00    -0.366 OA
ATOM     12  C   UNL     1      -1.771   1.925   0.499  0.00  0.00    +0.158 C 
ATOM     13  C   UNL     1      -0.903   2.452   1.629  0.00  0.00    +0.175 C 
ATOM     14  C   UNL     1       0.051   3.359   0.880  0.00  0.00    +0.175 C 
ATOM     15  C   UNL     1       0.297   2.571  -0.402  0.00  0.00    +0.165 C 
ENDROOT
BRANCH  13   4
ATOM      4  O   UNL     1      -1.662   3.127   2.610  0.00  0.00    -0.387 OA
ATOM     29  H   UNL     1      -1.037   3.534   3.233  0.00  0.00    +0.210 HD
ENDBRANCH  13   4
BRANCH  14   5
ATOM      5  O   UNL     1      -0.597   4.581   0.531  0.00  0.00    -0.387 OA
ATOM     30  H   UNL     1       0.039   5.113   0.023  0.00  0.00    +0.210 HD
ENDBRANCH  14   5
BRANCH  12  16
ATOM     16  C   UNL     1      -2.419   0.588   0.812  0.00  0.00    +0.130 C 
BRANCH  16  18
ATOM      6  O   UNL     1      -5.085  -3.571  -0.234  0.00  0.00    -0.377 OA
ATOM      7  O   UNL     1      -3.819   1.145  -1.019  0.00  0.00    -0.276 OA
ATOM     10  N   UNL     1      -4.213  -0.902   0.004  0.00  0.00    -0.297 N 
ATOM     18  C   UNL     1      -3.545   0.311  -0.152  0.00  0.00    +0.218 C 
ATOM     19  C   UNL     1      -5.314  -1.252  -0.893  0.00  0.00    +0.136 C 
ATOM     20  C   UNL     1      -3.999  -1.857   1.096  0.00  0.00    +0.136 C 
ATOM     21  C   UNL     1      -5.181  -2.694  -1.360  0.00  0.00    +0.179 C 
ATOM     22  C   UNL     1      -3.925  -3.277   0.549  0.00  0.00    +0.179 C 
ENDBRANCH  16  18
ENDBRANCH  12  16
BRANCH  15  17
ATOM     17  C   UNL     1       1.474   1.611  -0.295  0.00  0.00    +0.140 C 
BRANCH  17  11
ATOM     11  N   UNL     1       1.667   0.890  -1.518  0.00  0.00    -0.187 NA
ATOM     31  H   UNL     1       0.864   0.349  -1.862  0.00  0.00    +0.148 HD
BRANCH  11   2
ATOM      2  S   UNL     1       3.235   0.380  -2.019  0.00  0.00    +0.058 S 
ATOM      8  O   UNL     1       4.117   1.532  -2.021  0.00  0.00    -0.153 OA
ATOM      9  O   UNL     1       3.136  -0.465  -3.193  0.00  0.00    -0.153 OA
BRANCH   2  23
ATOM      1 CL   UNL     1       4.902  -3.324   2.769  0.00  0.00    -0.084 Cl
ATOM     23  C   UNL     1       3.705  -0.663  -0.671  0.00  0.00    +0.105 A 
ATOM     24  C   UNL     1       3.401  -2.024  -0.704  0.00  0.00    +0.030 A 
ATOM     25  C   UNL     1       4.379  -0.125   0.425  0.00  0.00    +0.030 A 
ATOM     26  C   UNL     1       3.771  -2.847   0.360  0.00  0.00    +0.022 A 
ATOM     27  C   UNL     1       4.749  -0.948   1.489  0.00  0.00    +0.022 A 
ATOM     28  C   UNL     1       4.445  -2.309   1.457  0.00  0.00    +0.041 A 
ENDBRANCH   2  23
ENDBRANCH  11   2
ENDBRANCH  17  11
ENDBRANCH  15  17
TORSDOF 8
