MODEL 1
REMARK VINA RESULT:      -6.3      0.000      0.000
REMARK  Name = 11879855
REMARK  10 active torsions:
REMARK  status: ('A' for Active; 'I' for Inactive)
REMARK    1  A    between atoms: S_1  and  N_11
REMARK    2  A    between atoms: S_1  and  C_25
REMARK    3  A    between atoms: O_6  and  C_29
REMARK    4  A    between atoms: O_6  and  C_33
REMARK    5  A    between atoms: O_7  and  C_30
REMARK    6  A    between atoms: O_7  and  C_34
REMARK    7  A    between atoms: N_10  and  C_24
REMARK    8  A    between atoms: N_11  and  C_22
REMARK    9  A    between atoms: C_25  and  C_26
REMARK   10  A    between atoms: C_26  and  C_31
REMARK                            x       y       z     vdW  Elec       q    Type
REMARK                         _______ _______ _______ _____ _____    ______ ____
ROOT
ATOM      2  O   UNL     1      10.223   7.671   1.176  0.00  0.00    -0.266 OA
ATOM      3  O   UNL     1      11.689   9.490   5.691  0.00  0.00    -0.252 OA
ATOM      8  N   UNL     1      10.418   7.612   6.142  0.00  0.00    -0.284 N 
ATOM      9  N   UNL     1       9.770   6.629   3.225  0.00  0.00    -0.310 N 
ATOM     10  N   UNL     1      12.772   7.480   6.107  0.00  0.00    -0.269 N 
ATOM     12  C   UNL     1       8.217   7.641   4.991  0.00  0.00    +0.027 C 
ATOM     13  C   UNL     1       9.345   5.494   5.436  0.00  0.00    +0.054 C 
ATOM     14  C   UNL     1       7.983   6.192   5.408  0.00  0.00    +0.018 C 
ATOM     15  C   UNL     1       9.162   8.347   5.985  0.00  0.00    +0.114 C 
ATOM     16  C   UNL     1       8.770   7.654   3.561  0.00  0.00    +0.130 C 
ATOM     17  C   UNL     1      10.244   6.188   6.477  0.00  0.00    +0.119 C 
ATOM     18  C   UNL     1      10.007   5.537   4.072  0.00  0.00    +0.027 A 
ATOM     19  C   UNL     1      10.846   4.553   3.697  0.00  0.00    +0.024 A 
ATOM     20  C   UNL     1      10.403   6.748   1.969  0.00  0.00    +0.274 A 
ATOM     21  C   UNL     1      11.645   8.289   5.972  0.00  0.00    +0.306 C 
ATOM     22  C   UNL     1      11.334   5.645   1.624  0.00  0.00    +0.112 A 
ATOM     23  C   UNL     1      11.532   4.606   2.435  0.00  0.00    +0.031 A 
ATOM     35  H   UNL     1      12.716   6.674   6.719  0.00  0.00    +0.156 HD
ENDROOT
BRANCH  10  24
ATOM     24  C   UNL     1      14.026   7.640   5.466  0.00  0.00    +0.042 A 
ATOM     27  C   UNL     1      15.105   8.173   6.169  0.00  0.00    +0.069 A 
ATOM     28  C   UNL     1      14.181   7.262   4.132  0.00  0.00    +0.069 A 
ATOM     29  C   UNL     1      15.415   7.419   3.501  0.00  0.00    +0.125 A 
ATOM     30  C   UNL     1      16.340   8.331   5.539  0.00  0.00    +0.125 A 
ATOM     32  C   UNL     1      16.494   7.953   4.204  0.00  0.00    +0.091 A 
BRANCH  29   6
ATOM      6  O   UNL     1      15.566   7.052   2.200  0.00  0.00    -0.495 OA
ATOM     33  C   UNL     1      14.935   7.870   1.217  0.00  0.00    +0.277 C 
ENDBRANCH  29   6
BRANCH  30   7
ATOM      7  O   UNL     1      17.393   8.852   6.225  0.00  0.00    -0.495 OA
ATOM     34  C   UNL     1      18.488   9.347   5.455  0.00  0.00    +0.277 C 
ENDBRANCH  30   7
ENDBRANCH  10  24
BRANCH  22  11
ATOM     11  N   UNL     1      12.031   5.663   0.403  0.00  0.00    -0.215 N 
ATOM     36  H   UNL     1      12.153   6.598  -0.007  0.00  0.00    +0.173 HD
BRANCH  11   1
ATOM      1  S   UNL     1      11.574   4.461  -0.718  0.00  0.00    +0.043 S 
ATOM      4  O   UNL     1      10.323   3.855  -0.303  0.00  0.00    -0.155 OA
ATOM      5  O   UNL     1      11.752   4.967  -2.065  0.00  0.00    -0.155 OA
BRANCH   1  25
ATOM     25  C   UNL     1      12.859   3.271  -0.418  0.00  0.00    +0.188 C 
BRANCH  25  26
ATOM     26  C   UNL     1      14.199   3.950  -0.194  0.00  0.00    +0.021 C 
ATOM     31  C   UNL     1      14.784   3.591   1.162  0.00  0.00    +0.005 C 
ENDBRANCH  25  26
ENDBRANCH   1  25
ENDBRANCH  11   1
ENDBRANCH  22  11
TORSDOF 7
ENDMDL
MODEL 2
REMARK VINA RESULT:      -6.2      0.683      2.136
REMARK  Name = 11879855
REMARK  10 active torsions:
REMARK  status: ('A' for Active; 'I' for Inactive)
REMARK    1  A    between atoms: S_1  and  N_11
REMARK    2  A    between atoms: S_1  and  C_25
REMARK    3  A    between atoms: O_6  and  C_29
REMARK    4  A    between atoms: O_6  and  C_33
REMARK    5  A    between atoms: O_7  and  C_30
REMARK    6  A    between atoms: O_7  and  C_34
REMARK    7  A    between atoms: N_10  and  C_24
REMARK    8  A    between atoms: N_11  and  C_22
REMARK    9  A    between atoms: C_25  and  C_26
REMARK   10  A    between atoms: C_26  and  C_31
REMARK                            x       y       z     vdW  Elec       q    Type
REMARK                         _______ _______ _______ _____ _____    ______ ____
ROOT
ATOM      2  O   UNL     1      10.004   7.706   1.315  0.00  0.00    -0.266 OA
ATOM      3  O   UNL     1      11.681   9.466   5.779  0.00  0.00    -0.252 OA
ATOM      8  N   UNL     1      10.435   7.580   6.265  0.00  0.00    -0.284 N 
ATOM      9  N   UNL     1       9.649   6.636   3.369  0.00  0.00    -0.310 N 
ATOM     10  N   UNL     1      12.784   7.452   6.116  0.00  0.00    -0.269 N 
ATOM     12  C   UNL     1       8.181   7.623   5.220  0.00  0.00    +0.027 C 
ATOM     13  C   UNL     1       9.330   5.471   5.582  0.00  0.00    +0.054 C 
ATOM     14  C   UNL     1       7.968   6.167   5.627  0.00  0.00    +0.018 C 
ATOM     15  C   UNL     1       9.171   8.316   6.177  0.00  0.00    +0.114 C 
ATOM     16  C   UNL     1       8.666   7.655   3.766  0.00  0.00    +0.130 C 
ATOM     17  C   UNL     1      10.278   6.152   6.588  0.00  0.00    +0.119 C 
ATOM     18  C   UNL     1       9.927   5.533   4.189  0.00  0.00    +0.027 A 
ATOM     19  C   UNL     1      10.748   4.555   3.762  0.00  0.00    +0.024 A 
ATOM     20  C   UNL     1      10.222   6.773   2.086  0.00  0.00    +0.274 A 
ATOM     21  C   UNL     1      11.651   8.261   6.046  0.00  0.00    +0.306 C 
ATOM     22  C   UNL     1      11.136   5.675   1.682  0.00  0.00    +0.112 A 
ATOM     23  C   UNL     1      11.373   4.626   2.469  0.00  0.00    +0.031 A 
ATOM     35  H   UNL     1      12.758   6.638   6.719  0.00  0.00    +0.156 HD
ENDROOT
BRANCH  10  24
ATOM     24  C   UNL     1      14.006   7.622   5.418  0.00  0.00    +0.042 A 
ATOM     27  C   UNL     1      14.072   7.354   4.052  0.00  0.00    +0.069 A 
ATOM     28  C   UNL     1      15.143   8.059   6.099  0.00  0.00    +0.069 A 
ATOM     29  C   UNL     1      16.346   8.227   5.413  0.00  0.00    +0.125 A 
ATOM     30  C   UNL     1      15.275   7.521   3.365  0.00  0.00    +0.125 A 
ATOM     32  C   UNL     1      16.411   7.958   4.046  0.00  0.00    +0.091 A 
BRANCH  29   6
ATOM      6  O   UNL     1      17.454   8.651   6.077  0.00  0.00    -0.495 OA
ATOM     33  C   UNL     1      18.540   9.133   5.287  0.00  0.00    +0.277 C 
ENDBRANCH  29   6
BRANCH  30   7
ATOM      7  O   UNL     1      15.339   7.259   2.032  0.00  0.00    -0.495 OA
ATOM     34  C   UNL     1      15.037   5.928   1.616  0.00  0.00    +0.277 C 
ENDBRANCH  30   7
ENDBRANCH  10  24
BRANCH  22  11
ATOM     11  N   UNL     1      11.774   5.710   0.430  0.00  0.00    -0.215 N 
ATOM     36  H   UNL     1      12.247   6.598   0.215  0.00  0.00    +0.173 HD
BRANCH  11   1
ATOM      1  S   UNL     1      10.875   5.063  -0.868  0.00  0.00    +0.043 S 
ATOM      4  O   UNL     1       9.572   4.638  -0.395  0.00  0.00    -0.155 OA
ATOM      5  O   UNL     1      11.010   5.927  -2.024  0.00  0.00    -0.155 OA
BRANCH   1  25
ATOM     25  C   UNL     1      11.824   3.594  -1.182  0.00  0.00    +0.188 C 
BRANCH  25  26
ATOM     26  C   UNL     1      13.256   3.747  -0.698  0.00  0.00    +0.021 C 
ATOM     31  C   UNL     1      14.184   4.156  -1.829  0.00  0.00    +0.005 C 
ENDBRANCH  25  26
ENDBRANCH   1  25
ENDBRANCH  11   1
ENDBRANCH  22  11
TORSDOF 7
ENDMDL
MODEL 3
REMARK VINA RESULT:      -6.2      2.611      5.751
REMARK  Name = 11879855
REMARK  10 active torsions:
REMARK  status: ('A' for Active; 'I' for Inactive)
REMARK    1  A    between atoms: S_1  and  N_11
REMARK    2  A    between atoms: S_1  and  C_25
REMARK    3  A    between atoms: O_6  and  C_29
REMARK    4  A    between atoms: O_6  and  C_33
REMARK    5  A    between atoms: O_7  and  C_30
REMARK    6  A    between atoms: O_7  and  C_34
REMARK    7  A    between atoms: N_10  and  C_24
REMARK    8  A    between atoms: N_11  and  C_22
REMARK    9  A    between atoms: C_25  and  C_26
REMARK   10  A    between atoms: C_26  and  C_31
REMARK                            x       y       z     vdW  Elec       q    Type
REMARK                         _______ _______ _______ _____ _____    ______ ____
ROOT
ATOM      2  O   UNL     1      10.568   4.526   4.757  0.00  0.00    -0.266 OA
ATOM      3  O   UNL     1      14.627   4.657   1.701  0.00  0.00    -0.252 OA
ATOM      8  N   UNL     1      12.895   5.608   0.501  0.00  0.00    -0.284 N 
ATOM      9  N   UNL     1      10.588   5.524   2.638  0.00  0.00    -0.310 N 
ATOM     10  N   UNL     1      14.453   6.971   1.631  0.00  0.00    -0.269 N 
ATOM     12  C   UNL     1      10.856   4.190   0.469  0.00  0.00    +0.027 C 
ATOM     13  C   UNL     1      10.649   6.645   0.380  0.00  0.00    +0.054 C 
ATOM     14  C   UNL     1      10.072   5.337  -0.163  0.00  0.00    +0.018 C 
ATOM     15  C   UNL     1      12.355   4.300   0.124  0.00  0.00    +0.114 C 
ATOM     16  C   UNL     1      10.610   4.208   1.983  0.00  0.00    +0.130 C 
ATOM     17  C   UNL     1      12.131   6.750  -0.029  0.00  0.00    +0.119 C 
ATOM     18  C   UNL     1      10.526   6.710   1.890  0.00  0.00    +0.027 A 
ATOM     19  C   UNL     1      10.397   7.899   2.507  0.00  0.00    +0.024 A 
ATOM     20  C   UNL     1      10.535   5.531   4.048  0.00  0.00    +0.274 A 
ATOM     21  C   UNL     1      14.054   5.676   1.303  0.00  0.00    +0.306 C 
ATOM     22  C   UNL     1      10.418   6.874   4.670  0.00  0.00    +0.112 A 
ATOM     23  C   UNL     1      10.341   7.987   3.941  0.00  0.00    +0.031 A 
ATOM     35  H   UNL     1      14.239   7.718   0.981  0.00  0.00    +0.156 HD
ENDROOT
BRANCH  10  24
ATOM     24  C   UNL     1      15.132   7.391   2.801  0.00  0.00    +0.042 A 
ATOM     27  C   UNL     1      14.490   7.336   4.038  0.00  0.00    +0.069 A 
ATOM     28  C   UNL     1      16.444   7.857   2.717  0.00  0.00    +0.069 A 
ATOM     29  C   UNL     1      17.114   8.270   3.869  0.00  0.00    +0.125 A 
ATOM     30  C   UNL     1      15.158   7.749   5.190  0.00  0.00    +0.125 A 
ATOM     32  C   UNL     1      16.470   8.216   5.105  0.00  0.00    +0.091 A 
BRANCH  29   6
ATOM      6  O   UNL     1      18.392   8.726   3.787  0.00  0.00    -0.495 OA
ATOM     33  C   UNL     1      19.428   7.835   4.197  0.00  0.00    +0.277 C 
ENDBRANCH  29   6
BRANCH  30   7
ATOM      7  O   UNL     1      14.531   7.697   6.397  0.00  0.00    -0.495 OA
ATOM     34  C   UNL     1      13.492   8.647   6.630  0.00  0.00    +0.277 C 
ENDBRANCH  30   7
ENDBRANCH  10  24
BRANCH  22  11
ATOM     11  N   UNL     1      10.368   7.003   6.069  0.00  0.00    -0.215 N 
ATOM     36  H   UNL     1      10.883   6.277   6.585  0.00  0.00    +0.173 HD
BRANCH  11   1
ATOM      1  S   UNL     1       8.833   7.368   6.716  0.00  0.00    +0.043 S 
ATOM      4  O   UNL     1       8.709   8.800   6.906  0.00  0.00    -0.155 OA
ATOM      5  O   UNL     1       7.819   6.615   6.003  0.00  0.00    -0.155 OA
BRANCH   1  25
ATOM     25  C   UNL     1       9.008   6.638   8.327  0.00  0.00    +0.188 C 
BRANCH  25  26
ATOM     26  C   UNL     1       9.720   5.298   8.252  0.00  0.00    +0.021 C 
ATOM     31  C   UNL     1       9.368   4.415   9.437  0.00  0.00    +0.005 C 
ENDBRANCH  25  26
ENDBRANCH   1  25
ENDBRANCH  11   1
ENDBRANCH  22  11
TORSDOF 7
ENDMDL
MODEL 4
REMARK VINA RESULT:      -6.2      2.614      5.710
REMARK  Name = 11879855
REMARK  10 active torsions:
REMARK  status: ('A' for Active; 'I' for Inactive)
REMARK    1  A    between atoms: S_1  and  N_11
REMARK    2  A    between atoms: S_1  and  C_25
REMARK    3  A    between atoms: O_6  and  C_29
REMARK    4  A    between atoms: O_6  and  C_33
REMARK    5  A    between atoms: O_7  and  C_30
REMARK    6  A    between atoms: O_7  and  C_34
REMARK    7  A    between atoms: N_10  and  C_24
REMARK    8  A    between atoms: N_11  and  C_22
REMARK    9  A    between atoms: C_25  and  C_26
REMARK   10  A    between atoms: C_26  and  C_31
REMARK                            x       y       z     vdW  Elec       q    Type
REMARK                         _______ _______ _______ _____ _____    ______ ____
ROOT
ATOM      2  O   UNL     1      10.542   4.601   4.777  0.00  0.00    -0.266 OA
ATOM      3  O   UNL     1      14.594   4.633   1.709  0.00  0.00    -0.252 OA
ATOM      8  N   UNL     1      12.872   5.592   0.500  0.00  0.00    -0.284 N 
ATOM      9  N   UNL     1      10.570   5.570   2.645  0.00  0.00    -0.310 N 
ATOM     10  N   UNL     1      14.452   6.948   1.608  0.00  0.00    -0.269 N 
ATOM     12  C   UNL     1      10.813   4.202   0.493  0.00  0.00    +0.027 C 
ATOM     13  C   UNL     1      10.641   6.659   0.372  0.00  0.00    +0.054 C 
ATOM     14  C   UNL     1      10.043   5.352  -0.152  0.00  0.00    +0.018 C 
ATOM     15  C   UNL     1      12.312   4.287   0.143  0.00  0.00    +0.114 C 
ATOM     16  C   UNL     1      10.572   4.245   2.007  0.00  0.00    +0.130 C 
ATOM     17  C   UNL     1      12.123   6.738  -0.043  0.00  0.00    +0.119 C 
ATOM     18  C   UNL     1      10.523   6.746   1.881  0.00  0.00    +0.027 A 
ATOM     19  C   UNL     1      10.412   7.945   2.483  0.00  0.00    +0.024 A 
ATOM     20  C   UNL     1      10.521   5.596   4.055  0.00  0.00    +0.274 A 
ATOM     21  C   UNL     1      14.035   5.654   1.299  0.00  0.00    +0.306 C 
ATOM     22  C   UNL     1      10.425   6.949   4.659  0.00  0.00    +0.112 A 
ATOM     23  C   UNL     1      10.362   8.053   3.915  0.00  0.00    +0.031 A 
ATOM     35  H   UNL     1      14.247   7.690   0.949  0.00  0.00    +0.156 HD
ENDROOT
BRANCH  10  24
ATOM     24  C   UNL     1      15.141   7.374   2.771  0.00  0.00    +0.042 A 
ATOM     27  C   UNL     1      16.453   7.835   2.674  0.00  0.00    +0.069 A 
ATOM     28  C   UNL     1      14.505   7.333   4.012  0.00  0.00    +0.069 A 
ATOM     29  C   UNL     1      15.182   7.753   5.157  0.00  0.00    +0.125 A 
ATOM     30  C   UNL     1      17.132   8.254   3.819  0.00  0.00    +0.125 A 
ATOM     32  C   UNL     1      16.495   8.213   5.060  0.00  0.00    +0.091 A 
BRANCH  29   6
ATOM      6  O   UNL     1      14.563   7.712   6.367  0.00  0.00    -0.495 OA
ATOM     33  C   UNL     1      13.530   8.668   6.601  0.00  0.00    +0.277 C 
ENDBRANCH  29   6
BRANCH  30   7
ATOM      7  O   UNL     1      18.412   8.703   3.725  0.00  0.00    -0.495 OA
ATOM     34  C   UNL     1      19.442   7.834   4.196  0.00  0.00    +0.277 C 
ENDBRANCH  30   7
ENDBRANCH  10  24
BRANCH  22  11
ATOM     11  N   UNL     1      10.381   7.098   6.056  0.00  0.00    -0.215 N 
ATOM     36  H   UNL     1      10.933   6.404   6.579  0.00  0.00    +0.173 HD
BRANCH  11   1
ATOM      1  S   UNL     1       8.836   7.403   6.712  0.00  0.00    +0.043 S 
ATOM      4  O   UNL     1       8.668   8.827   6.925  0.00  0.00    -0.155 OA
ATOM      5  O   UNL     1       7.846   6.630   5.988  0.00  0.00    -0.155 OA
BRANCH   1  25
ATOM     25  C   UNL     1       9.039   6.653   8.310  0.00  0.00    +0.188 C 
BRANCH  25  26
ATOM     26  C   UNL     1       9.681   5.281   8.199  0.00  0.00    +0.021 C 
ATOM     31  C   UNL     1       9.364   4.420   9.411  0.00  0.00    +0.005 C 
ENDBRANCH  25  26
ENDBRANCH   1  25
ENDBRANCH  11   1
ENDBRANCH  22  11
TORSDOF 7
ENDMDL
MODEL 5
REMARK VINA RESULT:      -6.1     24.884     27.958
REMARK  Name = 11879855
REMARK  10 active torsions:
REMARK  status: ('A' for Active; 'I' for Inactive)
REMARK    1  A    between atoms: S_1  and  N_11
REMARK    2  A    between atoms: S_1  and  C_25
REMARK    3  A    between atoms: O_6  and  C_29
REMARK    4  A    between atoms: O_6  and  C_33
REMARK    5  A    between atoms: O_7  and  C_30
REMARK    6  A    between atoms: O_7  and  C_34
REMARK    7  A    between atoms: N_10  and  C_24
REMARK    8  A    between atoms: N_11  and  C_22
REMARK    9  A    between atoms: C_25  and  C_26
REMARK   10  A    between atoms: C_26  and  C_31
REMARK                            x       y       z     vdW  Elec       q    Type
REMARK                         _______ _______ _______ _____ _____    ______ ____
ROOT
ATOM      2  O   UNL     1      -4.962 -14.155  15.793  0.00  0.00    -0.266 OA
ATOM      3  O   UNL     1      -9.004 -11.412  14.388  0.00  0.00    -0.252 OA
ATOM      8  N   UNL     1      -8.214 -10.435  16.328  0.00  0.00    -0.284 N 
ATOM      9  N   UNL     1      -5.681 -12.214  16.890  0.00  0.00    -0.310 N 
ATOM     10  N   UNL     1      -7.634  -9.547  14.223  0.00  0.00    -0.269 N 
ATOM     12  C   UNL     1      -7.896 -12.073  18.168  0.00  0.00    +0.027 C 
ATOM     13  C   UNL     1      -6.438 -10.090  18.019  0.00  0.00    +0.054 C 
ATOM     14  C   UNL     1      -7.184 -11.003  18.993  0.00  0.00    +0.018 C 
ATOM     15  C   UNL     1      -8.881 -11.427  17.174  0.00  0.00    +0.114 C 
ATOM     16  C   UNL     1      -6.836 -12.925  17.459  0.00  0.00    +0.130 C 
ATOM     17  C   UNL     1      -7.455  -9.419  17.077  0.00  0.00    +0.119 C 
ATOM     18  C   UNL     1      -5.423 -10.872  17.208  0.00  0.00    +0.027 A 
ATOM     19  C   UNL     1      -4.303 -10.270  16.765  0.00  0.00    +0.024 A 
ATOM     20  C   UNL     1      -4.799 -12.973  16.092  0.00  0.00    +0.274 A 
ATOM     21  C   UNL     1      -8.343 -10.519  14.925  0.00  0.00    +0.306 C 
ATOM     22  C   UNL     1      -3.596 -12.247  15.614  0.00  0.00    +0.112 A 
ATOM     23  C   UNL     1      -3.359 -10.976  15.942  0.00  0.00    +0.031 A 
ATOM     35  H   UNL     1      -7.480  -8.649  14.667  0.00  0.00    +0.156 HD
ENDROOT
BRANCH  10  24
ATOM     24  C   UNL     1      -7.072  -9.661  12.927  0.00  0.00    +0.042 A 
ATOM     27  C   UNL     1      -5.693  -9.547  12.752  0.00  0.00    +0.069 A 
ATOM     28  C   UNL     1      -7.897  -9.890  11.826  0.00  0.00    +0.069 A 
ATOM     29  C   UNL     1      -7.345 -10.003  10.550  0.00  0.00    +0.125 A 
ATOM     30  C   UNL     1      -5.139  -9.659  11.477  0.00  0.00    +0.125 A 
ATOM     32  C   UNL     1      -5.966  -9.888  10.376  0.00  0.00    +0.091 A 
BRANCH  29   6
ATOM      6  O   UNL     1      -8.150 -10.225   9.477  0.00  0.00    -0.495 OA
ATOM     33  C   UNL     1      -7.869  -9.484   8.290  0.00  0.00    +0.277 C 
ENDBRANCH  29   6
BRANCH  30   7
ATOM      7  O   UNL     1      -3.794  -9.547  11.306  0.00  0.00    -0.495 OA
ATOM     34  C   UNL     1      -3.332  -9.187  10.005  0.00  0.00    +0.277 C 
ENDBRANCH  30   7
ENDBRANCH  10  24
BRANCH  22  11
ATOM     11  N   UNL     1      -2.652 -12.899  14.801  0.00  0.00    -0.215 N 
ATOM     36  H   UNL     1      -1.675 -12.781  15.100  0.00  0.00    +0.173 HD
BRANCH  11   1
ATOM      1  S   UNL     1      -2.895 -12.734  13.121  0.00  0.00    +0.043 S 
ATOM      4  O   UNL     1      -4.311 -12.593  12.843  0.00  0.00    -0.155 OA
ATOM      5  O   UNL     1      -1.928 -11.796  12.585  0.00  0.00    -0.155 OA
BRANCH   1  25
ATOM     25  C   UNL     1      -2.415 -14.360  12.591  0.00  0.00    +0.188 C 
BRANCH  25  26
ATOM     26  C   UNL     1      -1.745 -15.133  13.714  0.00  0.00    +0.021 C 
ATOM     31  C   UNL     1      -0.332 -15.547  13.339  0.00  0.00    +0.005 C 
ENDBRANCH  25  26
ENDBRANCH   1  25
ENDBRANCH  11   1
ENDBRANCH  22  11
TORSDOF 7
ENDMDL
MODEL 6
REMARK VINA RESULT:      -5.9     14.248     17.632
REMARK  Name = 11879855
REMARK  10 active torsions:
REMARK  status: ('A' for Active; 'I' for Inactive)
REMARK    1  A    between atoms: S_1  and  N_11
REMARK    2  A    between atoms: S_1  and  C_25
REMARK    3  A    between atoms: O_6  and  C_29
REMARK    4  A    between atoms: O_6  and  C_33
REMARK    5  A    between atoms: O_7  and  C_30
REMARK    6  A    between atoms: O_7  and  C_34
REMARK    7  A    between atoms: N_10  and  C_24
REMARK    8  A    between atoms: N_11  and  C_22
REMARK    9  A    between atoms: C_25  and  C_26
REMARK   10  A    between atoms: C_26  and  C_31
REMARK                            x       y       z     vdW  Elec       q    Type
REMARK                         _______ _______ _______ _____ _____    ______ ____
ROOT
ATOM      2  O   UNL     1      16.340  11.855  16.517  0.00  0.00    -0.266 OA
ATOM      3  O   UNL     1      18.271   9.902  20.794  0.00  0.00    -0.252 OA
ATOM      8  N   UNL     1      17.506  12.012  21.346  0.00  0.00    -0.284 N 
ATOM      9  N   UNL     1      16.263  12.920  18.602  0.00  0.00    -0.310 N 
ATOM     10  N   UNL     1      16.183  10.110  21.787  0.00  0.00    -0.269 N 
ATOM     12  C   UNL     1      18.352  13.773  19.812  0.00  0.00    +0.027 C 
ATOM     13  C   UNL     1      16.138  14.021  20.867  0.00  0.00    +0.054 C 
ATOM     14  C   UNL     1      17.397  14.781  20.446  0.00  0.00    +0.018 C 
ATOM     15  C   UNL     1      18.708  12.656  20.813  0.00  0.00    +0.114 C 
ATOM     16  C   UNL     1      17.701  13.220  18.538  0.00  0.00    +0.130 C 
ATOM     17  C   UNL     1      16.519  12.951  21.908  0.00  0.00    +0.119 C 
ATOM     18  C   UNL     1      15.473  13.364  19.673  0.00  0.00    +0.027 A 
ATOM     19  C   UNL     1      14.140  13.174  19.661  0.00  0.00    +0.024 A 
ATOM     20  C   UNL     1      15.704  12.253  17.491  0.00  0.00    +0.274 A 
ATOM     21  C   UNL     1      17.386  10.607  21.287  0.00  0.00    +0.306 C 
ATOM     22  C   UNL     1      14.234  12.052  17.548  0.00  0.00    +0.112 A 
ATOM     23  C   UNL     1      13.498  12.498  18.567  0.00  0.00    +0.031 A 
ATOM     35  H   UNL     1      15.716  10.631  22.520  0.00  0.00    +0.156 HD
ENDROOT
BRANCH  10  24
ATOM     24  C   UNL     1      15.503   8.936  21.379  0.00  0.00    +0.042 A 
ATOM     27  C   UNL     1      14.219   8.674  21.855  0.00  0.00    +0.069 A 
ATOM     28  C   UNL     1      16.117   8.044  20.500  0.00  0.00    +0.069 A 
ATOM     29  C   UNL     1      15.448   6.888  20.098  0.00  0.00    +0.125 A 
ATOM     30  C   UNL     1      13.548   7.518  21.454  0.00  0.00    +0.125 A 
ATOM     32  C   UNL     1      14.163   6.626  20.575  0.00  0.00    +0.091 A 
BRANCH  29   6
ATOM      6  O   UNL     1      16.046   6.017  19.242  0.00  0.00    -0.495 OA
ATOM     33  C   UNL     1      17.472   5.983  19.242  0.00  0.00    +0.277 C 
ENDBRANCH  29   6
BRANCH  30   7
ATOM      7  O   UNL     1      12.296   7.261  21.918  0.00  0.00    -0.495 OA
ATOM     34  C   UNL     1      11.613   6.139  21.360  0.00  0.00    +0.277 C 
ENDBRANCH  30   7
ENDBRANCH  10  24
BRANCH  22  11
ATOM     11  N   UNL     1      13.569  11.388  16.503  0.00  0.00    -0.215 N 
ATOM     36  H   UNL     1      12.605  11.707  16.337  0.00  0.00    +0.173 HD
BRANCH  11   1
ATOM      1  S   UNL     1      13.763   9.694  16.471  0.00  0.00    +0.043 S 
ATOM      4  O   UNL     1      14.162   9.272  15.142  0.00  0.00    -0.155 OA
ATOM      5  O   UNL     1      14.501   9.272  17.646  0.00  0.00    -0.155 OA
BRANCH   1  25
ATOM     25  C   UNL     1      12.071   9.198  16.694  0.00  0.00    +0.188 C 
BRANCH  25  26
ATOM     26  C   UNL     1      11.932   8.203  17.834  0.00  0.00    +0.021 C 
ATOM     31  C   UNL     1      11.131   8.787  18.985  0.00  0.00    +0.005 C 
ENDBRANCH  25  26
ENDBRANCH   1  25
ENDBRANCH  11   1
ENDBRANCH  22  11
TORSDOF 7
ENDMDL
MODEL 7
REMARK VINA RESULT:      -5.9     25.932     29.219
REMARK  Name = 11879855
REMARK  10 active torsions:
REMARK  status: ('A' for Active; 'I' for Inactive)
REMARK    1  A    between atoms: S_1  and  N_11
REMARK    2  A    between atoms: S_1  and  C_25
REMARK    3  A    between atoms: O_6  and  C_29
REMARK    4  A    between atoms: O_6  and  C_33
REMARK    5  A    between atoms: O_7  and  C_30
REMARK    6  A    between atoms: O_7  and  C_34
REMARK    7  A    between atoms: N_10  and  C_24
REMARK    8  A    between atoms: N_11  and  C_22
REMARK    9  A    between atoms: C_25  and  C_26
REMARK   10  A    between atoms: C_26  and  C_31
REMARK                            x       y       z     vdW  Elec       q    Type
REMARK                         _______ _______ _______ _____ _____    ______ ____
ROOT
ATOM      2  O   UNL     1      -6.911 -13.451  14.715  0.00  0.00    -0.266 OA
ATOM      3  O   UNL     1      -9.459 -11.175  18.478  0.00  0.00    -0.252 OA
ATOM      8  N   UNL     1      -7.219 -10.787  18.899  0.00  0.00    -0.284 N 
ATOM      9  N   UNL     1      -5.906 -12.161  16.392  0.00  0.00    -0.310 N 
ATOM     10  N   UNL     1      -8.533  -9.148  17.828  0.00  0.00    -0.269 N 
ATOM     12  C   UNL     1      -5.858 -12.865  18.854  0.00  0.00    +0.027 C 
ATOM     13  C   UNL     1      -4.852 -10.719  18.172  0.00  0.00    +0.054 C 
ATOM     14  C   UNL     1      -4.583 -12.028  18.918  0.00  0.00    +0.018 C 
ATOM     15  C   UNL     1      -7.037 -12.110  19.500  0.00  0.00    +0.114 C 
ATOM     16  C   UNL     1      -6.134 -13.219  17.387  0.00  0.00    +0.130 C 
ATOM     17  C   UNL     1      -5.997  -9.965  18.875  0.00  0.00    +0.119 C 
ATOM     18  C   UNL     1      -5.221 -10.983  16.725  0.00  0.00    +0.027 A 
ATOM     19  C   UNL     1      -4.926 -10.074  15.776  0.00  0.00    +0.024 A 
ATOM     20  C   UNL     1      -6.323 -12.431  15.071  0.00  0.00    +0.274 A 
ATOM     21  C   UNL     1      -8.490 -10.413  18.414  0.00  0.00    +0.306 C 
ATOM     22  C   UNL     1      -5.991 -11.381  14.076  0.00  0.00    +0.112 A 
ATOM     23  C   UNL     1      -5.322 -10.276  14.409  0.00  0.00    +0.031 A 
ATOM     35  H   UNL     1      -7.888  -8.442  18.161  0.00  0.00    +0.156 HD
ENDROOT
BRANCH  10  24
ATOM     24  C   UNL     1      -9.387  -8.713  16.784  0.00  0.00    +0.042 A 
ATOM     27  C   UNL     1     -10.320  -7.704  17.021  0.00  0.00    +0.069 A 
ATOM     28  C   UNL     1      -9.293  -9.293  15.519  0.00  0.00    +0.069 A 
ATOM     29  C   UNL     1     -10.133  -8.865  14.491  0.00  0.00    +0.125 A 
ATOM     30  C   UNL     1     -11.161  -7.276  15.994  0.00  0.00    +0.125 A 
ATOM     32  C   UNL     1     -11.066  -7.857  14.729  0.00  0.00    +0.091 A 
BRANCH  29   6
ATOM      6  O   UNL     1     -10.042  -9.431  13.258  0.00  0.00    -0.495 OA
ATOM     33  C   UNL     1     -11.146  -9.243  12.374  0.00  0.00    +0.277 C 
ENDBRANCH  29   6
BRANCH  30   7
ATOM      7  O   UNL     1     -12.071  -6.292  16.225  0.00  0.00    -0.495 OA
ATOM     34  C   UNL     1     -13.406  -6.524  15.777  0.00  0.00    +0.277 C 
ENDBRANCH  30   7
ENDBRANCH  10  24
BRANCH  22  11
ATOM     11  N   UNL     1      -6.367 -11.537  12.730  0.00  0.00    -0.215 N 
ATOM     36  H   UNL     1      -7.342 -11.832  12.590  0.00  0.00    +0.173 HD
BRANCH  11   1
ATOM      1  S   UNL     1      -5.238 -12.351  11.744  0.00  0.00    +0.043 S 
ATOM      4  O   UNL     1      -4.077 -12.718  12.531  0.00  0.00    -0.155 OA
ATOM      5  O   UNL     1      -5.931 -13.328  10.928  0.00  0.00    -0.155 OA
BRANCH   1  25
ATOM     25  C   UNL     1      -4.752 -11.013  10.682  0.00  0.00    +0.188 C 
BRANCH  25  26
ATOM     26  C   UNL     1      -3.323 -10.579  10.958  0.00  0.00    +0.021 C 
ATOM     31  C   UNL     1      -3.010  -9.246  10.299  0.00  0.00    +0.005 C 
ENDBRANCH  25  26
ENDBRANCH   1  25
ENDBRANCH  11   1
ENDBRANCH  22  11
TORSDOF 7
ENDMDL
MODEL 8
REMARK VINA RESULT:      -5.8     19.057     22.708
REMARK  Name = 11879855
REMARK  10 active torsions:
REMARK  status: ('A' for Active; 'I' for Inactive)
REMARK    1  A    between atoms: S_1  and  N_11
REMARK    2  A    between atoms: S_1  and  C_25
REMARK    3  A    between atoms: O_6  and  C_29
REMARK    4  A    between atoms: O_6  and  C_33
REMARK    5  A    between atoms: O_7  and  C_30
REMARK    6  A    between atoms: O_7  and  C_34
REMARK    7  A    between atoms: N_10  and  C_24
REMARK    8  A    between atoms: N_11  and  C_22
REMARK    9  A    between atoms: C_25  and  C_26
REMARK   10  A    between atoms: C_26  and  C_31
REMARK                            x       y       z     vdW  Elec       q    Type
REMARK                         _______ _______ _______ _____ _____    ______ ____
ROOT
ATOM      2  O   UNL     1      20.556   3.963  20.555  0.00  0.00    -0.266 OA
ATOM      3  O   UNL     1      22.470   2.765  25.108  0.00  0.00    -0.252 OA
ATOM      8  N   UNL     1      24.287   3.206  23.749  0.00  0.00    -0.284 N 
ATOM      9  N   UNL     1      22.837   4.037  21.084  0.00  0.00    -0.310 N 
ATOM     10  N   UNL     1      23.456   4.864  25.205  0.00  0.00    -0.269 N 
ATOM     12  C   UNL     1      24.216   1.945  21.610  0.00  0.00    +0.027 C 
ATOM     13  C   UNL     1      25.280   4.168  21.694  0.00  0.00    +0.054 C 
ATOM     14  C   UNL     1      25.392   2.766  21.090  0.00  0.00    +0.018 C 
ATOM     15  C   UNL     1      24.243   1.870  23.150  0.00  0.00    +0.114 C 
ATOM     16  C   UNL     1      22.917   2.569  21.086  0.00  0.00    +0.130 C 
ATOM     17  C   UNL     1      25.366   4.063  23.229  0.00  0.00    +0.119 C 
ATOM     18  C   UNL     1      23.975   4.830  21.295  0.00  0.00    +0.027 A 
ATOM     19  C   UNL     1      23.904   6.169  21.182  0.00  0.00    +0.024 A 
ATOM     20  C   UNL     1      21.584   4.604  20.766  0.00  0.00    +0.274 A 
ATOM     21  C   UNL     1      23.341   3.556  24.736  0.00  0.00    +0.306 C 
ATOM     22  C   UNL     1      21.564   6.086  20.681  0.00  0.00    +0.112 A 
ATOM     23  C   UNL     1      22.661   6.821  20.867  0.00  0.00    +0.031 A 
ATOM     35  H   UNL     1      24.371   5.298  25.201  0.00  0.00    +0.156 HD
ENDROOT
BRANCH  10  24
ATOM     24  C   UNL     1      22.417   5.696  25.692  0.00  0.00    +0.042 A 
ATOM     27  C   UNL     1      21.677   5.306  26.807  0.00  0.00    +0.069 A 
ATOM     28  C   UNL     1      22.138   6.907  25.057  0.00  0.00    +0.069 A 
ATOM     29  C   UNL     1      21.116   7.727  25.537  0.00  0.00    +0.125 A 
ATOM     30  C   UNL     1      20.655   6.125  27.287  0.00  0.00    +0.125 A 
ATOM     32  C   UNL     1      20.375   7.336  26.652  0.00  0.00    +0.091 A 
BRANCH  29   6
ATOM      6  O   UNL     1      20.842   8.906  24.917  0.00  0.00    -0.495 OA
ATOM     33  C   UNL     1      20.434   9.994  25.744  0.00  0.00    +0.277 C 
ENDBRANCH  29   6
BRANCH  30   7
ATOM      7  O   UNL     1      19.931   5.745  28.375  0.00  0.00    -0.495 OA
ATOM     34  C   UNL     1      19.911   6.639  29.487  0.00  0.00    +0.277 C 
ENDBRANCH  30   7
ENDBRANCH  10  24
BRANCH  22  11
ATOM     11  N   UNL     1      20.368   6.762  20.382  0.00  0.00    -0.215 N 
ATOM     36  H   UNL     1      20.461   7.505  19.677  0.00  0.00    +0.173 HD
BRANCH  11   1
ATOM      1  S   UNL     1      19.412   7.189  21.729  0.00  0.00    +0.043 S 
ATOM      4  O   UNL     1      19.689   6.288  22.831  0.00  0.00    -0.155 OA
ATOM      5  O   UNL     1      19.450   8.627  21.909  0.00  0.00    -0.155 OA
BRANCH   1  25
ATOM     25  C   UNL     1      17.806   6.769  21.098  0.00  0.00    +0.188 C 
BRANCH  25  26
ATOM     26  C   UNL     1      17.898   6.165  19.707  0.00  0.00    +0.021 C 
ATOM     31  C   UNL     1      16.536   6.100  19.038  0.00  0.00    +0.005 C 
ENDBRANCH  25  26
ENDBRANCH   1  25
ENDBRANCH  11   1
ENDBRANCH  22  11
TORSDOF 7
ENDMDL
MODEL 9
REMARK VINA RESULT:      -5.8     25.897     29.245
REMARK  Name = 11879855
REMARK  10 active torsions:
REMARK  status: ('A' for Active; 'I' for Inactive)
REMARK    1  A    between atoms: S_1  and  N_11
REMARK    2  A    between atoms: S_1  and  C_25
REMARK    3  A    between atoms: O_6  and  C_29
REMARK    4  A    between atoms: O_6  and  C_33
REMARK    5  A    between atoms: O_7  and  C_30
REMARK    6  A    between atoms: O_7  and  C_34
REMARK    7  A    between atoms: N_10  and  C_24
REMARK    8  A    between atoms: N_11  and  C_22
REMARK    9  A    between atoms: C_25  and  C_26
REMARK   10  A    between atoms: C_26  and  C_31
REMARK                            x       y       z     vdW  Elec       q    Type
REMARK                         _______ _______ _______ _____ _____    ______ ____
ROOT
ATOM      2  O   UNL     1      -6.796 -13.363  14.562  0.00  0.00    -0.266 OA
ATOM      3  O   UNL     1      -9.545 -11.339  18.328  0.00  0.00    -0.252 OA
ATOM      8  N   UNL     1      -7.335 -10.903  18.847  0.00  0.00    -0.284 N 
ATOM      9  N   UNL     1      -5.892 -12.121  16.331  0.00  0.00    -0.310 N 
ATOM     10  N   UNL     1      -8.663  -9.258  17.802  0.00  0.00    -0.269 N 
ATOM     12  C   UNL     1      -5.908 -12.934  18.759  0.00  0.00    +0.027 C 
ATOM     13  C   UNL     1      -4.948 -10.730  18.210  0.00  0.00    +0.054 C 
ATOM     14  C   UNL     1      -4.663 -12.063  18.906  0.00  0.00    +0.018 C 
ATOM     15  C   UNL     1      -7.133 -12.246  19.394  0.00  0.00    +0.114 C 
ATOM     16  C   UNL     1      -6.121 -13.230  17.269  0.00  0.00    +0.130 C 
ATOM     17  C   UNL     1      -6.140 -10.044  18.903  0.00  0.00    +0.119 C 
ATOM     18  C   UNL     1      -5.257 -10.939  16.740  0.00  0.00    +0.027 A 
ATOM     19  C   UNL     1      -4.958  -9.980  15.844  0.00  0.00    +0.024 A 
ATOM     20  C   UNL     1      -6.253 -12.344  14.985  0.00  0.00    +0.274 A 
ATOM     21  C   UNL     1      -8.600 -10.546  18.332  0.00  0.00    +0.306 C 
ATOM     22  C   UNL     1      -5.920 -11.239  14.050  0.00  0.00    +0.112 A 
ATOM     23  C   UNL     1      -5.299 -10.132  14.456  0.00  0.00    +0.031 A 
ATOM     35  H   UNL     1      -8.052  -8.548  18.190  0.00  0.00    +0.156 HD
ENDROOT
BRANCH  10  24
ATOM     24  C   UNL     1      -9.493  -8.802  16.748  0.00  0.00    +0.042 A 
ATOM     27  C   UNL     1      -9.419  -9.404  15.493  0.00  0.00    +0.069 A 
ATOM     28  C   UNL     1     -10.384  -7.752  16.967  0.00  0.00    +0.069 A 
ATOM     29  C   UNL     1     -11.202  -7.302  15.930  0.00  0.00    +0.125 A 
ATOM     30  C   UNL     1     -10.236  -8.955  14.455  0.00  0.00    +0.125 A 
ATOM     32  C   UNL     1     -11.127  -7.904  14.674  0.00  0.00    +0.091 A 
BRANCH  29   6
ATOM      6  O   UNL     1     -12.070  -6.277  16.142  0.00  0.00    -0.495 OA
ATOM     33  C   UNL     1     -12.920  -5.910  15.057  0.00  0.00    +0.277 C 
ENDBRANCH  29   6
BRANCH  30   7
ATOM      7  O   UNL     1     -10.164  -9.542  13.229  0.00  0.00    -0.495 OA
ATOM     34  C   UNL     1     -11.191  -9.218  12.293  0.00  0.00    +0.277 C 
ENDBRANCH  30   7
ENDBRANCH  10  24
BRANCH  22  11
ATOM     11  N   UNL     1      -6.244 -11.345  12.686  0.00  0.00    -0.215 N 
ATOM     36  H   UNL     1      -7.210 -11.643  12.497  0.00  0.00    +0.173 HD
BRANCH  11   1
ATOM      1  S   UNL     1      -5.071 -12.112  11.713  0.00  0.00    +0.043 S 
ATOM      4  O   UNL     1      -3.791 -12.105  12.393  0.00  0.00    -0.155 OA
ATOM      5  O   UNL     1      -5.625 -13.336  11.167  0.00  0.00    -0.155 OA
BRANCH   1  25
ATOM     25  C   UNL     1      -4.969 -10.933  10.387  0.00  0.00    +0.188 C 
BRANCH  25  26
ATOM     26  C   UNL     1      -4.157  -9.714  10.793  0.00  0.00    +0.021 C 
ATOM     31  C   UNL     1      -4.970  -8.437  10.661  0.00  0.00    +0.005 C 
ENDBRANCH  25  26
ENDBRANCH   1  25
ENDBRANCH  11   1
ENDBRANCH  22  11
TORSDOF 7
ENDMDL
MODEL 10
REMARK VINA RESULT:      -5.5     15.052     18.478
REMARK  Name = 11879855
REMARK  10 active torsions:
REMARK  status: ('A' for Active; 'I' for Inactive)
REMARK    1  A    between atoms: S_1  and  N_11
REMARK    2  A    between atoms: S_1  and  C_25
REMARK    3  A    between atoms: O_6  and  C_29
REMARK    4  A    between atoms: O_6  and  C_33
REMARK    5  A    between atoms: O_7  and  C_30
REMARK    6  A    between atoms: O_7  and  C_34
REMARK    7  A    between atoms: N_10  and  C_24
REMARK    8  A    between atoms: N_11  and  C_22
REMARK    9  A    between atoms: C_25  and  C_26
REMARK   10  A    between atoms: C_26  and  C_31
REMARK                            x       y       z     vdW  Elec       q    Type
REMARK                         _______ _______ _______ _____ _____    ______ ____
ROOT
ATOM      2  O   UNL     1      -6.466  10.399   5.811  0.00  0.00    -0.266 OA
ATOM      3  O   UNL     1      -2.686  12.409   3.071  0.00  0.00    -0.252 OA
ATOM      8  N   UNL     1      -1.710  10.812   4.428  0.00  0.00    -0.284 N 
ATOM      9  N   UNL     1      -4.245   9.655   5.887  0.00  0.00    -0.310 N 
ATOM     10  N   UNL     1      -2.255  10.305   2.191  0.00  0.00    -0.269 N 
ATOM     12  C   UNL     1      -2.329  11.074   6.819  0.00  0.00    +0.027 C 
ATOM     13  C   UNL     1      -1.862   8.831   5.907  0.00  0.00    +0.054 C 
ATOM     14  C   UNL     1      -1.678   9.729   7.132  0.00  0.00    +0.018 C 
ATOM     15  C   UNL     1      -1.679  11.718   5.578  0.00  0.00    +0.114 C 
ATOM     16  C   UNL     1      -3.835  10.854   6.632  0.00  0.00    +0.130 C 
ATOM     17  C   UNL     1      -1.154   9.475   4.700  0.00  0.00    +0.119 C 
ATOM     18  C   UNL     1      -3.333   8.630   5.595  0.00  0.00    +0.027 A 
ATOM     19  C   UNL     1      -3.750   7.492   5.009  0.00  0.00    +0.024 A 
ATOM     20  C   UNL     1      -5.615   9.544   5.567  0.00  0.00    +0.274 A 
ATOM     21  C   UNL     1      -2.241  11.265   3.201  0.00  0.00    +0.306 C 
ATOM     22  C   UNL     1      -6.009   8.277   4.899  0.00  0.00    +0.112 A 
ATOM     23  C   UNL     1      -5.129   7.307   4.648  0.00  0.00    +0.031 A 
ATOM     35  H   UNL     1      -1.543   9.584   2.202  0.00  0.00    +0.156 HD
ENDROOT
BRANCH  10  24
ATOM     24  C   UNL     1      -3.177  10.198   1.120  0.00  0.00    +0.042 A 
ATOM     27  C   UNL     1      -4.545  10.126   1.382  0.00  0.00    +0.069 A 
ATOM     28  C   UNL     1      -2.716  10.166  -0.196  0.00  0.00    +0.069 A 
ATOM     29  C   UNL     1      -3.623  10.061  -1.251  0.00  0.00    +0.125 A 
ATOM     30  C   UNL     1      -5.452  10.021   0.328  0.00  0.00    +0.125 A 
ATOM     32  C   UNL     1      -4.991   9.988  -0.989  0.00  0.00    +0.091 A 
BRANCH  29   6
ATOM      6  O   UNL     1      -3.174  10.028  -2.535  0.00  0.00    -0.495 OA
ATOM     33  C   UNL     1      -3.893  10.799  -3.495  0.00  0.00    +0.277 C 
ENDBRANCH  29   6
BRANCH  30   7
ATOM      7  O   UNL     1      -6.787   9.950   0.583  0.00  0.00    -0.495 OA
ATOM     34  C   UNL     1      -7.634   9.549  -0.494  0.00  0.00    +0.277 C 
ENDBRANCH  30   7
ENDBRANCH  10  24
BRANCH  22  11
ATOM     11  N   UNL     1      -7.346   8.061   4.523  0.00  0.00    -0.215 N 
ATOM     36  H   UNL     1      -7.831   8.895   4.166  0.00  0.00    +0.173 HD
BRANCH  11   1
ATOM      1  S   UNL     1      -8.269   7.125   5.609  0.00  0.00    +0.043 S 
ATOM      4  O   UNL     1      -7.681   5.805   5.739  0.00  0.00    -0.155 OA
ATOM      5  O   UNL     1      -8.590   7.921   6.778  0.00  0.00    -0.155 OA
BRANCH   1  25
ATOM     25  C   UNL     1      -9.757   6.946   4.656  0.00  0.00    +0.188 C 
BRANCH  25  26
ATOM     26  C   UNL     1     -10.154   5.486   4.519  0.00  0.00    +0.021 C 
ATOM     31  C   UNL     1     -11.623   5.277   4.847  0.00  0.00    +0.005 C 
ENDBRANCH  25  26
ENDBRANCH   1  25
ENDBRANCH  11   1
ENDBRANCH  22  11
TORSDOF 7
ENDMDL
