MODEL 1
REMARK VINA RESULT:      -8.1      0.000      0.000
REMARK  Name = 51137668
REMARK  5 active torsions:
REMARK  status: ('A' for Active; 'I' for Inactive)
REMARK    1  A    between atoms: N_6  and  C_13
REMARK    2  A    between atoms: C_9  and  C_14
REMARK    3  A    between atoms: C_13  and  C_15
REMARK    4  A    between atoms: C_18  and  C_22
REMARK    5  A    between atoms: C_21  and  C_23
REMARK                            x       y       z     vdW  Elec       q    Type
REMARK                         _______ _______ _______ _____ _____    ______ ____
ROOT
ATOM      6  N   UNL     1      14.947   7.097  20.188  0.00  0.00    -0.297 NA
ATOM      9  C   UNL     1      12.899   7.011  21.327  0.00  0.00    +0.092 C 
ATOM     10  C   UNL     1      12.678   6.669  19.844  0.00  0.00    +0.029 C 
ATOM     11  C   UNL     1      14.292   7.654  21.374  0.00  0.00    +0.097 C 
ATOM     12  C   UNL     1      13.935   7.157  19.134  0.00  0.00    +0.085 C 
ENDROOT
BRANCH   9  14
ATOM      5  O   UNL     1      12.201   9.130  22.338  0.00  0.00    -0.420 OA
ATOM      7  N   UNL     1      10.562   7.618  22.166  0.00  0.00    -0.112 NA
ATOM      8  N   UNL     1      10.033   8.755  22.747  0.00  0.00    -0.107 NA
ATOM     14  C   UNL     1      11.828   7.882  21.944  0.00  0.00    +0.222 A 
ATOM     18  C   UNL     1      11.026   9.611  22.829  0.00  0.00    +0.251 A 
BRANCH  18  22
ATOM      4  F   UNL     1      11.271  11.841  21.149  0.00  0.00    -0.205 F 
ATOM     22  C   UNL     1      11.062  10.949  23.344  0.00  0.00    +0.074 A 
ATOM     24  C   UNL     1      11.185  12.032  22.474  0.00  0.00    +0.136 A 
ATOM     25  C   UNL     1      10.973  11.164  24.719  0.00  0.00    +0.016 A 
ATOM     26  C   UNL     1      11.220  13.332  22.980  0.00  0.00    +0.039 A 
ATOM     27  C   UNL     1      11.008  12.465  25.224  0.00  0.00    +0.001 A 
ATOM     28  C   UNL     1      11.131  13.548  24.355  0.00  0.00    +0.003 A 
ENDBRANCH  18  22
ENDBRANCH   9  14
BRANCH   6  13
ATOM     13  C   UNL     1      16.160   7.820  19.833  0.00  0.00    +0.119 C 
BRANCH  13  15
ATOM     15  C   UNL     1      17.397   7.001  20.090  0.00  0.00    -0.033 A 
ATOM     16  C   UNL     1      18.271   7.361  21.115  0.00  0.00    +0.005 A 
ATOM     17  C   UNL     1      17.668   5.882  19.303  0.00  0.00    +0.005 A 
ATOM     19  C   UNL     1      19.418   6.603  21.352  0.00  0.00    +0.012 A 
ATOM     20  C   UNL     1      18.813   5.123  19.540  0.00  0.00    +0.012 A 
ATOM     21  C   UNL     1      19.688   5.484  20.565  0.00  0.00    +0.055 A 
BRANCH  21  23
ATOM      1  F   UNL     1      21.967   5.004  20.018  0.00  0.00    -0.166 F 
ATOM      2  F   UNL     1      20.708   3.337  20.622  0.00  0.00    -0.166 F 
ATOM      3  F   UNL     1      21.389   4.784  22.096  0.00  0.00    -0.166 F 
ATOM     23  C   UNL     1      20.913   4.672  20.820  0.00  0.00    +0.417 C 
ENDBRANCH  21  23
ENDBRANCH  13  15
ENDBRANCH   6  13
TORSDOF 5
ENDMDL
MODEL 2
REMARK VINA RESULT:      -7.3      4.084      5.269
REMARK  Name = 51137668
REMARK  5 active torsions:
REMARK  status: ('A' for Active; 'I' for Inactive)
REMARK    1  A    between atoms: N_6  and  C_13
REMARK    2  A    between atoms: C_9  and  C_14
REMARK    3  A    between atoms: C_13  and  C_15
REMARK    4  A    between atoms: C_18  and  C_22
REMARK    5  A    between atoms: C_21  and  C_23
REMARK                            x       y       z     vdW  Elec       q    Type
REMARK                         _______ _______ _______ _____ _____    ______ ____
ROOT
ATOM      6  N   UNL     1      18.415   6.367  20.667  0.00  0.00    -0.297 NA
ATOM      9  C   UNL     1      16.143   6.920  20.479  0.00  0.00    +0.092 C 
ATOM     10  C   UNL     1      16.522   5.919  19.374  0.00  0.00    +0.029 C 
ATOM     11  C   UNL     1      17.486   7.448  21.001  0.00  0.00    +0.097 C 
ATOM     12  C   UNL     1      18.044   5.957  19.312  0.00  0.00    +0.085 C 
ENDROOT
BRANCH   9  14
ATOM      5  O   UNL     1      14.423   7.771  18.959  0.00  0.00    -0.420 OA
ATOM      7  N   UNL     1      15.021   9.215  20.559  0.00  0.00    -0.112 NA
ATOM      8  N   UNL     1      14.053   9.819  19.781  0.00  0.00    -0.107 NA
ATOM     14  C   UNL     1      15.205   8.022  20.043  0.00  0.00    +0.222 A 
ATOM     18  C   UNL     1      13.733   8.940  18.858  0.00  0.00    +0.251 A 
BRANCH  18  22
ATOM      4  F   UNL     1      11.069   8.124  19.163  0.00  0.00    -0.205 F 
ATOM     22  C   UNL     1      12.787   9.021  17.784  0.00  0.00    +0.074 A 
ATOM     24  C   UNL     1      11.470   8.603  17.977  0.00  0.00    +0.136 A 
ATOM     25  C   UNL     1      13.187   9.517  16.544  0.00  0.00    +0.016 A 
ATOM     26  C   UNL     1      10.553   8.683  16.928  0.00  0.00    +0.039 A 
ATOM     27  C   UNL     1      12.270   9.597  15.495  0.00  0.00    +0.001 A 
ATOM     28  C   UNL     1      10.953   9.180  15.688  0.00  0.00    +0.003 A 
ENDBRANCH  18  22
ENDBRANCH   9  14
BRANCH   6  13
ATOM     13  C   UNL     1      19.807   6.781  20.758  0.00  0.00    +0.119 C 
BRANCH  13  15
ATOM     15  C   UNL     1      20.677   5.702  21.344  0.00  0.00    -0.033 A 
ATOM     16  C   UNL     1      20.806   4.477  20.689  0.00  0.00    +0.005 A 
ATOM     17  C   UNL     1      21.354   5.926  22.543  0.00  0.00    +0.005 A 
ATOM     19  C   UNL     1      21.611   3.476  21.233  0.00  0.00    +0.012 A 
ATOM     20  C   UNL     1      22.160   4.927  23.086  0.00  0.00    +0.012 A 
ATOM     21  C   UNL     1      22.288   3.701  22.431  0.00  0.00    +0.055 A 
BRANCH  21  23
ATOM      1  F   UNL     1      24.294   3.105  23.590  0.00  0.00    -0.166 F 
ATOM      2  F   UNL     1      23.561   1.724  22.078  0.00  0.00    -0.166 F 
ATOM      3  F   UNL     1      22.536   1.901  23.988  0.00  0.00    -0.166 F 
ATOM     23  C   UNL     1      23.151   2.632  23.011  0.00  0.00    +0.417 C 
ENDBRANCH  21  23
ENDBRANCH  13  15
ENDBRANCH   6  13
TORSDOF 5
ENDMDL
MODEL 3
REMARK VINA RESULT:      -7.2      4.513     10.786
REMARK  Name = 51137668
REMARK  5 active torsions:
REMARK  status: ('A' for Active; 'I' for Inactive)
REMARK    1  A    between atoms: N_6  and  C_13
REMARK    2  A    between atoms: C_9  and  C_14
REMARK    3  A    between atoms: C_13  and  C_15
REMARK    4  A    between atoms: C_18  and  C_22
REMARK    5  A    between atoms: C_21  and  C_23
REMARK                            x       y       z     vdW  Elec       q    Type
REMARK                         _______ _______ _______ _____ _____    ______ ____
ROOT
ATOM      6  N   UNL     1      17.752   7.779  20.839  0.00  0.00    -0.297 NA
ATOM      9  C   UNL     1      19.797   6.635  20.957  0.00  0.00    +0.092 C 
ATOM     10  C   UNL     1      18.780   5.793  20.166  0.00  0.00    +0.029 C 
ATOM     11  C   UNL     1      18.947   7.689  21.681  0.00  0.00    +0.097 C 
ATOM     12  C   UNL     1      17.421   6.394  20.505  0.00  0.00    +0.085 C 
ENDROOT
BRANCH   9  14
ATOM      5  O   UNL     1      21.366   4.800  21.361  0.00  0.00    -0.420 OA
ATOM      7  N   UNL     1      20.899   6.016  23.179  0.00  0.00    -0.112 NA
ATOM      8  N   UNL     1      21.789   5.026  23.547  0.00  0.00    -0.107 NA
ATOM     14  C   UNL     1      20.681   5.847  21.895  0.00  0.00    +0.222 A 
ATOM     18  C   UNL     1      22.033   4.339  22.454  0.00  0.00    +0.251 A 
BRANCH  18  22
ATOM      4  F   UNL     1      22.543   2.465  24.476  0.00  0.00    -0.205 F 
ATOM     22  C   UNL     1      22.880   3.201  22.240  0.00  0.00    +0.074 A 
ATOM     24  C   UNL     1      23.108   2.292  23.272  0.00  0.00    +0.136 A 
ATOM     25  C   UNL     1      23.475   3.006  20.994  0.00  0.00    +0.016 A 
ATOM     26  C   UNL     1      23.933   1.187  23.059  0.00  0.00    +0.039 A 
ATOM     27  C   UNL     1      24.300   1.901  20.780  0.00  0.00    +0.001 A 
ATOM     28  C   UNL     1      24.529   0.992  21.813  0.00  0.00    +0.003 A 
ENDBRANCH  18  22
ENDBRANCH   9  14
BRANCH   6  13
ATOM     13  C   UNL     1      16.654   8.465  21.504  0.00  0.00    +0.119 C 
BRANCH  13  15
ATOM     15  C   UNL     1      15.411   8.487  20.657  0.00  0.00    -0.033 A 
ATOM     16  C   UNL     1      15.383   9.231  19.477  0.00  0.00    +0.005 A 
ATOM     17  C   UNL     1      14.286   7.762  21.051  0.00  0.00    +0.005 A 
ATOM     19  C   UNL     1      14.229   9.251  18.692  0.00  0.00    +0.012 A 
ATOM     20  C   UNL     1      13.133   7.781  20.266  0.00  0.00    +0.012 A 
ATOM     21  C   UNL     1      13.106   8.526  19.087  0.00  0.00    +0.055 A 
BRANCH  21  23
ATOM      1  F   UNL     1      11.706   7.419  17.494  0.00  0.00    -0.166 F 
ATOM      2  F   UNL     1      11.859   9.584  17.361  0.00  0.00    -0.166 F 
ATOM      3  F   UNL     1      10.720   8.665  18.969  0.00  0.00    -0.166 F 
ATOM     23  C   UNL     1      11.873   8.546  18.247  0.00  0.00    +0.417 C 
ENDBRANCH  21  23
ENDBRANCH  13  15
ENDBRANCH   6  13
TORSDOF 5
ENDMDL
MODEL 4
REMARK VINA RESULT:      -7.2      4.110     10.935
REMARK  Name = 51137668
REMARK  5 active torsions:
REMARK  status: ('A' for Active; 'I' for Inactive)
REMARK    1  A    between atoms: N_6  and  C_13
REMARK    2  A    between atoms: C_9  and  C_14
REMARK    3  A    between atoms: C_13  and  C_15
REMARK    4  A    between atoms: C_18  and  C_22
REMARK    5  A    between atoms: C_21  and  C_23
REMARK                            x       y       z     vdW  Elec       q    Type
REMARK                         _______ _______ _______ _____ _____    ______ ____
ROOT
ATOM      6  N   UNL     1      17.647   7.447  21.160  0.00  0.00    -0.297 NA
ATOM      9  C   UNL     1      19.550   6.286  21.890  0.00  0.00    +0.092 C 
ATOM     10  C   UNL     1      19.620   7.745  22.374  0.00  0.00    +0.029 C 
ATOM     11  C   UNL     1      18.470   6.290  20.799  0.00  0.00    +0.097 C 
ATOM     12  C   UNL     1      18.604   8.493  21.519  0.00  0.00    +0.085 C 
ENDROOT
BRANCH   9  14
ATOM      5  O   UNL     1      21.288   4.565  22.012  0.00  0.00    -0.420 OA
ATOM      7  N   UNL     1      21.685   6.155  20.490  0.00  0.00    -0.112 NA
ATOM      8  N   UNL     1      22.734   5.257  20.452  0.00  0.00    -0.107 NA
ATOM     14  C   UNL     1      20.864   5.711  21.414  0.00  0.00    +0.222 A 
ATOM     18  C   UNL     1      22.461   4.346  21.357  0.00  0.00    +0.251 A 
BRANCH  18  22
ATOM      4  F   UNL     1      24.233   3.045  19.619  0.00  0.00    -0.205 F 
ATOM     22  C   UNL     1      23.193   3.178  21.753  0.00  0.00    +0.074 A 
ATOM     24  C   UNL     1      24.065   2.560  20.858  0.00  0.00    +0.136 A 
ATOM     25  C   UNL     1      23.029   2.662  23.038  0.00  0.00    +0.016 A 
ATOM     26  C   UNL     1      24.774   1.423  21.248  0.00  0.00    +0.039 A 
ATOM     27  C   UNL     1      23.739   1.525  23.428  0.00  0.00    +0.001 A 
ATOM     28  C   UNL     1      24.611   0.906  22.533  0.00  0.00    +0.003 A 
ENDBRANCH  18  22
ENDBRANCH   9  14
BRANCH   6  13
ATOM     13  C   UNL     1      16.759   7.855  20.081  0.00  0.00    +0.119 C 
BRANCH  13  15
ATOM     15  C   UNL     1      15.310   7.706  20.460  0.00  0.00    -0.033 A 
ATOM     16  C   UNL     1      14.833   8.284  21.636  0.00  0.00    +0.005 A 
ATOM     17  C   UNL     1      14.444   6.989  19.634  0.00  0.00    +0.005 A 
ATOM     19  C   UNL     1      13.490   8.145  21.987  0.00  0.00    +0.012 A 
ATOM     20  C   UNL     1      13.102   6.850  19.984  0.00  0.00    +0.012 A 
ATOM     21  C   UNL     1      12.625   7.429  21.161  0.00  0.00    +0.055 A 
BRANCH  21  23
ATOM      1  F   UNL     1      10.782   5.982  21.644  0.00  0.00    -0.166 F 
ATOM      2  F   UNL     1      10.348   7.854  20.626  0.00  0.00    -0.166 F 
ATOM      3  F   UNL     1      10.874   7.853  22.736  0.00  0.00    -0.166 F 
ATOM     23  C   UNL     1      11.188   7.282  21.536  0.00  0.00    +0.417 C 
ENDBRANCH  21  23
ENDBRANCH  13  15
ENDBRANCH   6  13
TORSDOF 5
ENDMDL
MODEL 5
REMARK VINA RESULT:      -7.1     18.397     21.489
REMARK  Name = 51137668
REMARK  5 active torsions:
REMARK  status: ('A' for Active; 'I' for Inactive)
REMARK    1  A    between atoms: N_6  and  C_13
REMARK    2  A    between atoms: C_9  and  C_14
REMARK    3  A    between atoms: C_13  and  C_15
REMARK    4  A    between atoms: C_18  and  C_22
REMARK    5  A    between atoms: C_21  and  C_23
REMARK                            x       y       z     vdW  Elec       q    Type
REMARK                         _______ _______ _______ _____ _____    ______ ____
ROOT
ATOM      6  N   UNL     1      12.524   6.237   3.347  0.00  0.00    -0.297 NA
ATOM      9  C   UNL     1      13.521   4.830   1.757  0.00  0.00    +0.092 C 
ATOM     10  C   UNL     1      14.380   6.094   1.938  0.00  0.00    +0.029 C 
ATOM     11  C   UNL     1      12.169   5.187   2.390  0.00  0.00    +0.097 C 
ATOM     12  C   UNL     1      13.467   7.097   2.632  0.00  0.00    +0.085 C 
ENDROOT
BRANCH   9  14
ATOM      5  O   UNL     1      12.141   4.311  -0.197  0.00  0.00    -0.420 OA
ATOM      7  N   UNL     1      14.326   3.946  -0.501  0.00  0.00    -0.112 NA
ATOM      8  N   UNL     1      13.672   3.615  -1.673  0.00  0.00    -0.107 NA
ATOM     14  C   UNL     1      13.394   4.347   0.331  0.00  0.00    +0.222 A 
ATOM     18  C   UNL     1      12.399   3.843  -1.449  0.00  0.00    +0.251 A 
BRANCH  18  22
ATOM      4  F   UNL     1      11.601   1.328  -2.396  0.00  0.00    -0.205 F 
ATOM     22  C   UNL     1      11.260   3.680  -2.305  0.00  0.00    +0.074 A 
ATOM     24  C   UNL     1      10.896   2.411  -2.755  0.00  0.00    +0.136 A 
ATOM     25  C   UNL     1      10.515   4.796  -2.688  0.00  0.00    +0.016 A 
ATOM     26  C   UNL     1       9.787   2.258  -3.589  0.00  0.00    +0.039 A 
ATOM     27  C   UNL     1       9.406   4.643  -3.521  0.00  0.00    +0.001 A 
ATOM     28  C   UNL     1       9.043   3.374  -3.971  0.00  0.00    +0.003 A 
ENDBRANCH  18  22
ENDBRANCH   9  14
BRANCH   6  13
ATOM     13  C   UNL     1      11.360   6.970   3.825  0.00  0.00    +0.119 C 
BRANCH  13  15
ATOM     15  C   UNL     1      10.905   6.482   5.174  0.00  0.00    -0.033 A 
ATOM     16  C   UNL     1      11.644   6.797   6.315  0.00  0.00    +0.005 A 
ATOM     17  C   UNL     1       9.745   5.716   5.284  0.00  0.00    +0.005 A 
ATOM     19  C   UNL     1      11.223   6.344   7.566  0.00  0.00    +0.012 A 
ATOM     20  C   UNL     1       9.323   5.265   6.534  0.00  0.00    +0.012 A 
ATOM     21  C   UNL     1      10.063   5.579   7.675  0.00  0.00    +0.055 A 
BRANCH  21  23
ATOM      1  F   UNL     1       8.515   5.756   9.490  0.00  0.00    -0.166 F 
ATOM      2  F   UNL     1      10.571   5.237   9.972  0.00  0.00    -0.166 F 
ATOM      3  F   UNL     1       9.266   3.774   9.030  0.00  0.00    -0.166 F 
ATOM     23  C   UNL     1       9.611   5.096   9.012  0.00  0.00    +0.417 C 
ENDBRANCH  21  23
ENDBRANCH  13  15
ENDBRANCH   6  13
TORSDOF 5
ENDMDL
MODEL 6
REMARK VINA RESULT:      -7.0     27.301     30.428
REMARK  Name = 51137668
REMARK  5 active torsions:
REMARK  status: ('A' for Active; 'I' for Inactive)
REMARK    1  A    between atoms: N_6  and  C_13
REMARK    2  A    between atoms: C_9  and  C_14
REMARK    3  A    between atoms: C_13  and  C_15
REMARK    4  A    between atoms: C_18  and  C_22
REMARK    5  A    between atoms: C_21  and  C_23
REMARK                            x       y       z     vdW  Elec       q    Type
REMARK                         _______ _______ _______ _____ _____    ______ ____
ROOT
ATOM      6  N   UNL     1     -15.089   5.458  22.482  0.00  0.00    -0.297 NA
ATOM      9  C   UNL     1     -16.055   3.589  23.518  0.00  0.00    +0.092 C 
ATOM     10  C   UNL     1     -17.023   4.149  22.460  0.00  0.00    +0.029 C 
ATOM     11  C   UNL     1     -15.031   4.711  23.740  0.00  0.00    +0.097 C 
ATOM     12  C   UNL     1     -16.514   5.555  22.165  0.00  0.00    +0.085 C 
ENDROOT
BRANCH   9  14
ATOM      5  O   UNL     1     -15.913   3.017  25.894  0.00  0.00    -0.420 OA
ATOM      7  N   UNL     1     -17.966   2.815  25.029  0.00  0.00    -0.112 NA
ATOM      8  N   UNL     1     -18.030   2.464  26.364  0.00  0.00    -0.107 NA
ATOM     14  C   UNL     1     -16.712   3.130  24.799  0.00  0.00    +0.222 A 
ATOM     18  C   UNL     1     -16.809   2.596  26.829  0.00  0.00    +0.251 A 
BRANCH  18  22
ATOM      4  F   UNL     1     -16.089   4.712  28.520  0.00  0.00    -0.205 F 
ATOM     22  C   UNL     1     -16.284   2.372  28.145  0.00  0.00    +0.074 A 
ATOM     24  C   UNL     1     -15.938   3.453  28.955  0.00  0.00    +0.136 A 
ATOM     25  C   UNL     1     -16.121   1.068  28.613  0.00  0.00    +0.016 A 
ATOM     26  C   UNL     1     -15.427   3.230  30.234  0.00  0.00    +0.039 A 
ATOM     27  C   UNL     1     -15.611   0.845  29.892  0.00  0.00    +0.001 A 
ATOM     28  C   UNL     1     -15.264   1.926  30.702  0.00  0.00    +0.003 A 
ENDBRANCH  18  22
ENDBRANCH   9  14
BRANCH   6  13
ATOM     13  C   UNL     1     -14.454   6.765  22.582  0.00  0.00    +0.119 C 
BRANCH  13  15
ATOM     15  C   UNL     1     -13.660   7.099  21.348  0.00  0.00    -0.033 A 
ATOM     16  C   UNL     1     -12.358   6.617  21.205  0.00  0.00    +0.005 A 
ATOM     17  C   UNL     1     -14.224   7.889  20.348  0.00  0.00    +0.005 A 
ATOM     19  C   UNL     1     -11.621   6.927  20.062  0.00  0.00    +0.012 A 
ATOM     20  C   UNL     1     -13.488   8.199  19.204  0.00  0.00    +0.012 A 
ATOM     21  C   UNL     1     -12.186   7.717  19.062  0.00  0.00    +0.055 A 
BRANCH  21  23
ATOM      1  F   UNL     1     -10.452   7.113  17.529  0.00  0.00    -0.166 F 
ATOM      2  F   UNL     1     -10.726   9.229  17.951  0.00  0.00    -0.166 F 
ATOM      3  F   UNL     1     -12.163   8.166  16.712  0.00  0.00    -0.166 F 
ATOM     23  C   UNL     1     -11.399   8.047  17.838  0.00  0.00    +0.417 C 
ENDBRANCH  21  23
ENDBRANCH  13  15
ENDBRANCH   6  13
TORSDOF 5
ENDMDL
MODEL 7
REMARK VINA RESULT:      -6.8     27.021     29.854
REMARK  Name = 51137668
REMARK  5 active torsions:
REMARK  status: ('A' for Active; 'I' for Inactive)
REMARK    1  A    between atoms: N_6  and  C_13
REMARK    2  A    between atoms: C_9  and  C_14
REMARK    3  A    between atoms: C_13  and  C_15
REMARK    4  A    between atoms: C_18  and  C_22
REMARK    5  A    between atoms: C_21  and  C_23
REMARK                            x       y       z     vdW  Elec       q    Type
REMARK                         _______ _______ _______ _____ _____    ______ ____
ROOT
ATOM      6  N   UNL     1     -13.210   7.601  33.283  0.00  0.00    -0.297 NA
ATOM      9  C   UNL     1     -11.483   8.925  32.406  0.00  0.00    +0.092 C 
ATOM     10  C   UNL     1     -11.772   9.350  33.857  0.00  0.00    +0.029 C 
ATOM     11  C   UNL     1     -12.702   8.087  31.998  0.00  0.00    +0.097 C 
ATOM     12  C   UNL     1     -13.138   8.757  34.178  0.00  0.00    +0.085 C 
ENDROOT
BRANCH   9  14
ATOM      5  O   UNL     1     -11.665   9.928  30.180  0.00  0.00    -0.420 OA
ATOM      7  N   UNL     1     -10.580  11.199  31.667  0.00  0.00    -0.112 NA
ATOM      8  N   UNL     1     -10.610  11.880  30.465  0.00  0.00    -0.107 NA
ATOM     14  C   UNL     1     -11.208  10.066  31.454  0.00  0.00    +0.222 A 
ATOM     18  C   UNL     1     -11.252  11.101  29.626  0.00  0.00    +0.251 A 
BRANCH  18  22
ATOM      4  F   UNL     1     -10.195   9.466  27.610  0.00  0.00    -0.205 F 
ATOM     22  C   UNL     1     -11.580  11.292  28.243  0.00  0.00    +0.074 A 
ATOM     24  C   UNL     1     -11.033  10.456  27.270  0.00  0.00    +0.136 A 
ATOM     25  C   UNL     1     -12.451  12.317  27.873  0.00  0.00    +0.016 A 
ATOM     26  C   UNL     1     -11.355  10.646  25.926  0.00  0.00    +0.039 A 
ATOM     27  C   UNL     1     -12.773  12.507  26.529  0.00  0.00    +0.001 A 
ATOM     28  C   UNL     1     -12.225  11.672  25.556  0.00  0.00    +0.003 A 
ENDBRANCH  18  22
ENDBRANCH   9  14
BRANCH   6  13
ATOM     13  C   UNL     1     -14.558   7.063  33.181  0.00  0.00    +0.119 C 
BRANCH  13  15
ATOM     15  C   UNL     1     -14.601   5.812  32.345  0.00  0.00    -0.033 A 
ATOM     16  C   UNL     1     -15.469   5.730  31.256  0.00  0.00    +0.005 A 
ATOM     17  C   UNL     1     -13.773   4.735  32.660  0.00  0.00    +0.005 A 
ATOM     19  C   UNL     1     -15.509   4.570  30.481  0.00  0.00    +0.012 A 
ATOM     20  C   UNL     1     -13.812   3.576  31.885  0.00  0.00    +0.012 A 
ATOM     21  C   UNL     1     -14.680   3.494  30.796  0.00  0.00    +0.055 A 
BRANCH  21  23
ATOM      1  F   UNL     1     -15.141   2.467  28.685  0.00  0.00    -0.166 F 
ATOM      2  F   UNL     1     -15.565   1.310  30.477  0.00  0.00    -0.166 F 
ATOM      3  F   UNL     1     -13.509   1.636  29.846  0.00  0.00    -0.166 F 
ATOM     23  C   UNL     1     -14.721   2.254  29.967  0.00  0.00    +0.417 C 
ENDBRANCH  21  23
ENDBRANCH  13  15
ENDBRANCH   6  13
TORSDOF 5
ENDMDL
MODEL 8
REMARK VINA RESULT:      -6.8     27.525     29.847
REMARK  Name = 51137668
REMARK  5 active torsions:
REMARK  status: ('A' for Active; 'I' for Inactive)
REMARK    1  A    between atoms: N_6  and  C_13
REMARK    2  A    between atoms: C_9  and  C_14
REMARK    3  A    between atoms: C_13  and  C_15
REMARK    4  A    between atoms: C_18  and  C_22
REMARK    5  A    between atoms: C_21  and  C_23
REMARK                            x       y       z     vdW  Elec       q    Type
REMARK                         _______ _______ _______ _____ _____    ______ ____
ROOT
ATOM      6  N   UNL     1      -3.341 -11.245  13.839  0.00  0.00    -0.297 NA
ATOM      9  C   UNL     1      -4.180 -11.286  11.649  0.00  0.00    +0.092 C 
ATOM     10  C   UNL     1      -2.924 -12.170  11.735  0.00  0.00    +0.029 C 
ATOM     11  C   UNL     1      -4.140 -10.430  12.922  0.00  0.00    +0.097 C 
ATOM     12  C   UNL     1      -2.233 -11.749  13.027  0.00  0.00    +0.085 C 
ENDROOT
BRANCH   9  14
ATOM      5  O   UNL     1      -4.840 -11.068   9.301  0.00  0.00    -0.420 OA
ATOM      7  N   UNL     1      -3.929  -9.218  10.168  0.00  0.00    -0.112 NA
ATOM      8  N   UNL     1      -4.253  -8.956   8.850  0.00  0.00    -0.107 NA
ATOM     14  C   UNL     1      -4.290 -10.461  10.387  0.00  0.00    +0.222 A 
ATOM     18  C   UNL     1      -4.781 -10.064   8.383  0.00  0.00    +0.251 A 
BRANCH  18  22
ATOM      4  F   UNL     1      -6.952  -8.677   7.279  0.00  0.00    -0.205 F 
ATOM     22  C   UNL     1      -5.297 -10.373   7.081  0.00  0.00    +0.074 A 
ATOM     24  C   UNL     1      -6.379  -9.659   6.568  0.00  0.00    +0.136 A 
ATOM     25  C   UNL     1      -4.713 -11.391   6.328  0.00  0.00    +0.016 A 
ATOM     26  C   UNL     1      -6.878  -9.963   5.301  0.00  0.00    +0.039 A 
ATOM     27  C   UNL     1      -5.212 -11.696   5.061  0.00  0.00    +0.001 A 
ATOM     28  C   UNL     1      -6.294 -10.982   4.548  0.00  0.00    +0.003 A 
ENDBRANCH  18  22
ENDBRANCH   9  14
BRANCH   6  13
ATOM     13  C   UNL     1      -2.881 -10.491  14.996  0.00  0.00    +0.119 C 
BRANCH  13  15
ATOM     15  C   UNL     1      -3.767 -10.705  16.193  0.00  0.00    -0.033 A 
ATOM     16  C   UNL     1      -3.310 -11.462  17.273  0.00  0.00    +0.005 A 
ATOM     17  C   UNL     1      -5.044 -10.147  16.225  0.00  0.00    +0.005 A 
ATOM     19  C   UNL     1      -4.132 -11.661  18.383  0.00  0.00    +0.012 A 
ATOM     20  C   UNL     1      -5.865 -10.345  17.334  0.00  0.00    +0.012 A 
ATOM     21  C   UNL     1      -5.409 -11.103  18.413  0.00  0.00    +0.055 A 
BRANCH  21  23
ATOM      1  F   UNL     1      -5.619 -11.262  20.791  0.00  0.00    -0.166 F 
ATOM      2  F   UNL     1      -6.910 -12.528  19.583  0.00  0.00    -0.166 F 
ATOM      3  F   UNL     1      -7.286 -10.390  19.714  0.00  0.00    -0.166 F 
ATOM     23  C   UNL     1      -6.286 -11.314  19.601  0.00  0.00    +0.417 C 
ENDBRANCH  21  23
ENDBRANCH  13  15
ENDBRANCH   6  13
TORSDOF 5
ENDMDL
MODEL 9
REMARK VINA RESULT:      -6.7     29.610     32.829
REMARK  Name = 51137668
REMARK  5 active torsions:
REMARK  status: ('A' for Active; 'I' for Inactive)
REMARK    1  A    between atoms: N_6  and  C_13
REMARK    2  A    between atoms: C_9  and  C_14
REMARK    3  A    between atoms: C_13  and  C_15
REMARK    4  A    between atoms: C_18  and  C_22
REMARK    5  A    between atoms: C_21  and  C_23
REMARK                            x       y       z     vdW  Elec       q    Type
REMARK                         _______ _______ _______ _____ _____    ______ ____
ROOT
ATOM      6  N   UNL     1      -4.631 -12.498   4.926  0.00  0.00    -0.297 NA
ATOM      9  C   UNL     1      -2.918 -12.717   3.338  0.00  0.00    +0.092 C 
ATOM     10  C   UNL     1      -4.283 -12.886   2.649  0.00  0.00    +0.029 C 
ATOM     11  C   UNL     1      -3.217 -12.871   4.836  0.00  0.00    +0.097 C 
ATOM     12  C   UNL     1      -5.267 -13.152   3.782  0.00  0.00    +0.085 C 
ENDROOT
BRANCH   9  14
ATOM      5  O   UNL     1      -1.018 -13.201   1.871  0.00  0.00    -0.420 OA
ATOM      7  N   UNL     1      -1.566 -14.884   3.239  0.00  0.00    -0.112 NA
ATOM      8  N   UNL     1      -0.488 -15.289   2.476  0.00  0.00    -0.107 NA
ATOM     14  C   UNL     1      -1.841 -13.660   2.853  0.00  0.00    +0.222 A 
ATOM     18  C   UNL     1      -0.203 -14.276   1.690  0.00  0.00    +0.251 A 
BRANCH  18  22
ATOM      4  F   UNL     1       2.511 -14.075   2.362  0.00  0.00    -0.205 F 
ATOM     22  C   UNL     1       0.817 -14.130   0.693  0.00  0.00    +0.074 A 
ATOM     24  C   UNL     1       2.157 -14.032   1.069  0.00  0.00    +0.136 A 
ATOM     25  C   UNL     1       0.466 -14.085  -0.656  0.00  0.00    +0.016 A 
ATOM     26  C   UNL     1       3.146 -13.889   0.095  0.00  0.00    +0.039 A 
ATOM     27  C   UNL     1       1.455 -13.942  -1.630  0.00  0.00    +0.001 A 
ATOM     28  C   UNL     1       2.794 -13.844  -1.254  0.00  0.00    +0.003 A 
ENDBRANCH  18  22
ENDBRANCH   9  14
BRANCH   6  13
ATOM     13  C   UNL     1      -5.230 -12.892   6.193  0.00  0.00    +0.119 C 
BRANCH  13  15
ATOM     15  C   UNL     1      -4.873 -11.940   7.302  0.00  0.00    -0.033 A 
ATOM     16  C   UNL     1      -4.295 -12.423   8.477  0.00  0.00    +0.005 A 
ATOM     17  C   UNL     1      -5.120 -10.576   7.156  0.00  0.00    +0.005 A 
ATOM     19  C   UNL     1      -3.964 -11.540   9.505  0.00  0.00    +0.012 A 
ATOM     20  C   UNL     1      -4.789  -9.693   8.184  0.00  0.00    +0.012 A 
ATOM     21  C   UNL     1      -4.211 -10.176   9.359  0.00  0.00    +0.055 A 
BRANCH  21  23
ATOM      1  F   UNL     1      -4.522  -8.041  10.393  0.00  0.00    -0.166 F 
ATOM      2  F   UNL     1      -2.530  -8.911  10.466  0.00  0.00    -0.166 F 
ATOM      3  F   UNL     1      -4.123  -9.719  11.706  0.00  0.00    -0.166 F 
ATOM     23  C   UNL     1      -3.856  -9.232  10.458  0.00  0.00    +0.417 C 
ENDBRANCH  21  23
ENDBRANCH  13  15
ENDBRANCH   6  13
TORSDOF 5
ENDMDL
MODEL 10
REMARK VINA RESULT:      -6.7     27.208     29.400
REMARK  Name = 51137668
REMARK  5 active torsions:
REMARK  status: ('A' for Active; 'I' for Inactive)
REMARK    1  A    between atoms: N_6  and  C_13
REMARK    2  A    between atoms: C_9  and  C_14
REMARK    3  A    between atoms: C_13  and  C_15
REMARK    4  A    between atoms: C_18  and  C_22
REMARK    5  A    between atoms: C_21  and  C_23
REMARK                            x       y       z     vdW  Elec       q    Type
REMARK                         _______ _______ _______ _____ _____    ______ ____
ROOT
ATOM      6  N   UNL     1      -4.261 -11.041  11.130  0.00  0.00    -0.297 NA
ATOM      9  C   UNL     1      -2.976 -10.493  13.014  0.00  0.00    +0.092 C 
ATOM     10  C   UNL     1      -2.278 -11.614  12.224  0.00  0.00    +0.029 C 
ATOM     11  C   UNL     1      -4.411 -10.470  12.470  0.00  0.00    +0.097 C 
ATOM     12  C   UNL     1      -3.355 -12.177  11.303  0.00  0.00    +0.085 C 
ENDROOT
BRANCH   9  14
ATOM      5  O   UNL     1      -4.104 -10.611  15.185  0.00  0.00    -0.420 OA
ATOM      7  N   UNL     1      -1.879 -10.812  15.301  0.00  0.00    -0.112 NA
ATOM      8  N   UNL     1      -2.382 -10.897  16.585  0.00  0.00    -0.107 NA
ATOM     14  C   UNL     1      -2.919 -10.646  14.517  0.00  0.00    +0.222 A 
ATOM     18  C   UNL     1      -3.685 -10.773  16.470  0.00  0.00    +0.251 A 
BRANCH  18  22
ATOM      4  F   UNL     1      -3.282 -11.907  19.001  0.00  0.00    -0.205 F 
ATOM     22  C   UNL     1      -4.713 -10.785  17.469  0.00  0.00    +0.074 A 
ATOM     24  C   UNL     1      -4.473 -11.359  18.716  0.00  0.00    +0.136 A 
ATOM     25  C   UNL     1      -5.957 -10.219  17.189  0.00  0.00    +0.016 A 
ATOM     26  C   UNL     1      -5.477 -11.369  19.685  0.00  0.00    +0.039 A 
ATOM     27  C   UNL     1      -6.961 -10.228  18.158  0.00  0.00    +0.001 A 
ATOM     28  C   UNL     1      -6.721 -10.803  19.405  0.00  0.00    +0.003 A 
ENDBRANCH  18  22
ENDBRANCH   9  14
BRANCH   6  13
ATOM     13  C   UNL     1      -5.536 -11.435  10.547  0.00  0.00    +0.119 C 
BRANCH  13  15
ATOM     15  C   UNL     1      -6.278 -10.257   9.975  0.00  0.00    -0.033 A 
ATOM     16  C   UNL     1      -5.709  -9.507   8.945  0.00  0.00    +0.005 A 
ATOM     17  C   UNL     1      -7.535  -9.916  10.473  0.00  0.00    +0.005 A 
ATOM     19  C   UNL     1      -6.396  -8.415   8.415  0.00  0.00    +0.012 A 
ATOM     20  C   UNL     1      -8.223  -8.825   9.943  0.00  0.00    +0.012 A 
ATOM     21  C   UNL     1      -7.653  -8.075   8.914  0.00  0.00    +0.055 A 
BRANCH  21  23
ATOM      1  F   UNL     1      -9.427  -6.484   9.125  0.00  0.00    -0.166 F 
ATOM      2  F   UNL     1      -8.935  -7.177   7.123  0.00  0.00    -0.166 F 
ATOM      3  F   UNL     1      -7.607  -5.803   8.163  0.00  0.00    -0.166 F 
ATOM     23  C   UNL     1      -8.389  -6.908   8.345  0.00  0.00    +0.417 C 
ENDBRANCH  21  23
ENDBRANCH  13  15
ENDBRANCH   6  13
TORSDOF 5
ENDMDL
