MODEL 1
REMARK VINA RESULT:      -6.5      0.000      0.000
REMARK  Name = 75367090
REMARK  10 active torsions:
REMARK  status: ('A' for Active; 'I' for Inactive)
REMARK    1  A    between atoms: O_3  and  C_8
REMARK    2  A    between atoms: N_5  and  C_7
REMARK    3  A    between atoms: N_5  and  C_12
REMARK    4  A    between atoms: N_6  and  C_13
REMARK    5  A    between atoms: C_9  and  C_13
REMARK    6  A    between atoms: C_11  and  C_12
REMARK    7  A    between atoms: C_11  and  C_14
REMARK    8  A    between atoms: C_11  and  C_15
REMARK    9  A    between atoms: C_11  and  C_16
REMARK   10  A    between atoms: C_17  and  C_18
REMARK                            x       y       z     vdW  Elec       q    Type
REMARK                         _______ _______ _______ _____ _____    ______ ____
ROOT
ATOM      2  O   UNL     1      10.591   7.474  20.846  0.00  0.00    -0.371 OA
ATOM      7  C   UNL     1      10.978   9.355  22.244  0.00  0.00    +0.111 C 
ATOM      8  C   UNL     1      11.892   9.440  21.035  0.00  0.00    +0.164 C 
ATOM      9  C   UNL     1      11.168   8.526  20.056  0.00  0.00    +0.165 C 
ATOM     10  C   UNL     1      10.588   7.886  22.224  0.00  0.00    +0.181 C 
ENDROOT
BRANCH   8   3
ATOM      3  O   UNL     1      12.016  10.757  20.536  0.00  0.00    -0.388 OA
ATOM     25  H   UNL     1      12.763  10.779  19.913  0.00  0.00    +0.210 HD
ENDBRANCH   8   3
BRANCH   7   5
ATOM      5  N   UNL     1      11.616   9.755  23.487  0.00  0.00    -0.308 NA
ATOM     24  H   UNL     1      12.600   9.949  23.306  0.00  0.00    +0.122 HD
BRANCH   5  12
ATOM     12  C   UNL     1      10.983  10.945  24.042  0.00  0.00    +0.087 C 
BRANCH  12  11
ATOM     11  C   UNL     1      11.895  12.198  24.057  0.00  0.00    -0.025 C 
ATOM     14  C   UNL     1      11.885  12.880  25.438  0.00  0.00    +0.012 C 
ATOM     15  C   UNL     1      11.450  13.212  22.988  0.00  0.00    +0.012 C 
ATOM     16  C   UNL     1      13.335  11.752  23.742  0.00  0.00    +0.012 C 
ENDBRANCH  12  11
ENDBRANCH   5  12
ENDBRANCH   7   5
BRANCH   9  13
ATOM     13  C   UNL     1      12.084   7.932  19.000  0.00  0.00    +0.138 C 
BRANCH  13   6
ATOM      4  O   UNL     1      14.472   7.415  17.493  0.00  0.00    -0.270 OA
ATOM      6  N   UNL     1      13.392   7.674  19.529  0.00  0.00    -0.309 N 
ATOM     17  C   UNL     1      14.497   7.433  18.720  0.00  0.00    +0.244 C 
ATOM     26  H   UNL     1      13.468   7.604  20.538  0.00  0.00    +0.149 HD
BRANCH  17  18
ATOM      1  F   UNL     1      19.334   6.393  21.375  0.00  0.00    -0.205 F 
ATOM     18  C   UNL     1      15.777   7.157  19.423  0.00  0.00    +0.037 A 
ATOM     19  C   UNL     1      16.623   6.149  18.961  0.00  0.00    +0.016 A 
ATOM     20  C   UNL     1      16.134   7.907  20.544  0.00  0.00    +0.016 A 
ATOM     21  C   UNL     1      17.824   5.889  19.621  0.00  0.00    +0.039 A 
ATOM     22  C   UNL     1      17.335   7.648  21.203  0.00  0.00    +0.039 A 
ATOM     23  C   UNL     1      18.180   6.639  20.741  0.00  0.00    +0.123 A 
ENDBRANCH  17  18
ENDBRANCH  13   6
ENDBRANCH   9  13
TORSDOF 7
ENDMDL
MODEL 2
REMARK VINA RESULT:      -6.4      1.583      2.265
REMARK  Name = 75367090
REMARK  10 active torsions:
REMARK  status: ('A' for Active; 'I' for Inactive)
REMARK    1  A    between atoms: O_3  and  C_8
REMARK    2  A    between atoms: N_5  and  C_7
REMARK    3  A    between atoms: N_5  and  C_12
REMARK    4  A    between atoms: N_6  and  C_13
REMARK    5  A    between atoms: C_9  and  C_13
REMARK    6  A    between atoms: C_11  and  C_12
REMARK    7  A    between atoms: C_11  and  C_14
REMARK    8  A    between atoms: C_11  and  C_15
REMARK    9  A    between atoms: C_11  and  C_16
REMARK   10  A    between atoms: C_17  and  C_18
REMARK                            x       y       z     vdW  Elec       q    Type
REMARK                         _______ _______ _______ _____ _____    ______ ____
ROOT
ATOM      2  O   UNL     1      13.388   8.706  22.148  0.00  0.00    -0.371 OA
ATOM      7  C   UNL     1      11.321   9.764  22.650  0.00  0.00    +0.111 C 
ATOM      8  C   UNL     1      11.061   8.578  21.739  0.00  0.00    +0.164 C 
ATOM      9  C   UNL     1      12.325   7.758  21.959  0.00  0.00    +0.165 C 
ATOM     10  C   UNL     1      12.808   9.991  22.432  0.00  0.00    +0.181 C 
ENDROOT
BRANCH   8   3
ATOM      3  O   UNL     1       9.896   7.861  22.095  0.00  0.00    -0.388 OA
ATOM     25  H   UNL     1       9.137   8.468  22.049  0.00  0.00    +0.210 HD
ENDBRANCH   8   3
BRANCH   7   5
ATOM      5  N   UNL     1      10.517  10.932  22.332  0.00  0.00    -0.308 NA
ATOM     24  H   UNL     1       9.903  11.136  23.120  0.00  0.00    +0.122 HD
BRANCH   5  12
ATOM     12  C   UNL     1      11.359  12.092  22.062  0.00  0.00    +0.087 C 
BRANCH  12  11
ATOM     11  C   UNL     1      10.948  13.366  22.843  0.00  0.00    -0.025 C 
ATOM     14  C   UNL     1      10.332  13.011  24.208  0.00  0.00    +0.012 C 
ATOM     15  C   UNL     1       9.941  14.203  22.034  0.00  0.00    +0.012 C 
ATOM     16  C   UNL     1      12.212  14.214  23.083  0.00  0.00    +0.012 C 
ENDBRANCH  12  11
ENDBRANCH   5  12
ENDBRANCH   7   5
BRANCH   9  13
ATOM     13  C   UNL     1      12.655   6.840  20.794  0.00  0.00    +0.138 C 
BRANCH  13   6
ATOM      4  O   UNL     1      14.673   7.969  19.093  0.00  0.00    -0.270 OA
ATOM      6  N   UNL     1      14.049   6.501  20.777  0.00  0.00    -0.309 N 
ATOM     17  C   UNL     1      14.959   7.102  19.914  0.00  0.00    +0.244 C 
ATOM     26  H   UNL     1      14.339   5.741  21.383  0.00  0.00    +0.149 HD
BRANCH  17  18
ATOM      1  F   UNL     1      20.262   5.285  20.245  0.00  0.00    -0.205 F 
ATOM     18  C   UNL     1      16.362   6.622  20.002  0.00  0.00    +0.037 A 
ATOM     19  C   UNL     1      17.138   6.935  21.118  0.00  0.00    +0.016 A 
ATOM     20  C   UNL     1      16.905   5.857  18.968  0.00  0.00    +0.016 A 
ATOM     21  C   UNL     1      18.456   6.485  21.200  0.00  0.00    +0.039 A 
ATOM     22  C   UNL     1      18.221   5.406  19.051  0.00  0.00    +0.039 A 
ATOM     23  C   UNL     1      18.997   5.720  20.167  0.00  0.00    +0.123 A 
ENDBRANCH  17  18
ENDBRANCH  13   6
ENDBRANCH   9  13
TORSDOF 7
ENDMDL
MODEL 3
REMARK VINA RESULT:      -6.1      3.377      4.020
REMARK  Name = 75367090
REMARK  10 active torsions:
REMARK  status: ('A' for Active; 'I' for Inactive)
REMARK    1  A    between atoms: O_3  and  C_8
REMARK    2  A    between atoms: N_5  and  C_7
REMARK    3  A    between atoms: N_5  and  C_12
REMARK    4  A    between atoms: N_6  and  C_13
REMARK    5  A    between atoms: C_9  and  C_13
REMARK    6  A    between atoms: C_11  and  C_12
REMARK    7  A    between atoms: C_11  and  C_14
REMARK    8  A    between atoms: C_11  and  C_15
REMARK    9  A    between atoms: C_11  and  C_16
REMARK   10  A    between atoms: C_17  and  C_18
REMARK                            x       y       z     vdW  Elec       q    Type
REMARK                         _______ _______ _______ _____ _____    ______ ____
ROOT
ATOM      2  O   UNL     1      13.290   8.122  21.661  0.00  0.00    -0.371 OA
ATOM      7  C   UNL     1      11.305   8.975  22.649  0.00  0.00    +0.111 C 
ATOM      8  C   UNL     1      10.932   8.075  21.484  0.00  0.00    +0.164 C 
ATOM      9  C   UNL     1      12.199   7.244  21.339  0.00  0.00    +0.165 C 
ATOM     10  C   UNL     1      12.763   9.274  22.342  0.00  0.00    +0.181 C 
ENDROOT
BRANCH   8   3
ATOM      3  O   UNL     1       9.801   7.271  21.757  0.00  0.00    -0.388 OA
ATOM     25  H   UNL     1       9.214   7.762  22.357  0.00  0.00    +0.210 HD
ENDBRANCH   8   3
BRANCH   7   5
ATOM      5  N   UNL     1      10.489  10.173  22.745  0.00  0.00    -0.308 NA
ATOM     24  H   UNL     1       9.513   9.901  22.859  0.00  0.00    +0.122 HD
BRANCH   5  12
ATOM     12  C   UNL     1      10.896  10.996  23.878  0.00  0.00    +0.087 C 
BRANCH  12  11
ATOM     11  C   UNL     1      11.175  12.477  23.515  0.00  0.00    -0.025 C 
ATOM     14  C   UNL     1      10.981  12.730  22.009  0.00  0.00    +0.012 C 
ATOM     15  C   UNL     1      12.605  12.880  23.916  0.00  0.00    +0.012 C 
ATOM     16  C   UNL     1      10.179  13.361  24.291  0.00  0.00    +0.012 C 
ENDBRANCH  12  11
ENDBRANCH   5  12
ENDBRANCH   7   5
BRANCH   9  13
ATOM     13  C   UNL     1      12.390   6.680  19.941  0.00  0.00    +0.138 C 
BRANCH  13   6
ATOM      4  O   UNL     1      11.292   8.010  17.646  0.00  0.00    -0.270 OA
ATOM      6  N   UNL     1      13.066   7.616  19.089  0.00  0.00    -0.309 N 
ATOM     17  C   UNL     1      12.453   8.214  17.993  0.00  0.00    +0.244 C 
ATOM     26  H   UNL     1      14.049   7.775  19.279  0.00  0.00    +0.149 HD
BRANCH  17  18
ATOM      1  F   UNL     1      15.638  11.718  14.976  0.00  0.00    -0.205 F 
ATOM     18  C   UNL     1      13.296   9.141  17.195  0.00  0.00    +0.037 A 
ATOM     19  C   UNL     1      13.899   8.697  16.019  0.00  0.00    +0.016 A 
ATOM     20  C   UNL     1      13.484  10.457  17.621  0.00  0.00    +0.016 A 
ATOM     21  C   UNL     1      14.692   9.567  15.270  0.00  0.00    +0.039 A 
ATOM     22  C   UNL     1      14.275  11.327  16.872  0.00  0.00    +0.039 A 
ATOM     23  C   UNL     1      14.879  10.881  15.696  0.00  0.00    +0.123 A 
ENDBRANCH  17  18
ENDBRANCH  13   6
ENDBRANCH   9  13
TORSDOF 7
ENDMDL
MODEL 4
REMARK VINA RESULT:      -6.1      3.250      7.462
REMARK  Name = 75367090
REMARK  10 active torsions:
REMARK  status: ('A' for Active; 'I' for Inactive)
REMARK    1  A    between atoms: O_3  and  C_8
REMARK    2  A    between atoms: N_5  and  C_7
REMARK    3  A    between atoms: N_5  and  C_12
REMARK    4  A    between atoms: N_6  and  C_13
REMARK    5  A    between atoms: C_9  and  C_13
REMARK    6  A    between atoms: C_11  and  C_12
REMARK    7  A    between atoms: C_11  and  C_14
REMARK    8  A    between atoms: C_11  and  C_15
REMARK    9  A    between atoms: C_11  and  C_16
REMARK   10  A    between atoms: C_17  and  C_18
REMARK                            x       y       z     vdW  Elec       q    Type
REMARK                         _______ _______ _______ _____ _____    ______ ____
ROOT
ATOM      2  O   UNL     1      10.619   7.104  21.894  0.00  0.00    -0.371 OA
ATOM      7  C   UNL     1      12.970   6.870  21.644  0.00  0.00    +0.111 C 
ATOM      8  C   UNL     1      12.622   8.347  21.697  0.00  0.00    +0.164 C 
ATOM      9  C   UNL     1      11.256   8.302  22.367  0.00  0.00    +0.165 C 
ATOM     10  C   UNL     1      11.622   6.255  21.307  0.00  0.00    +0.181 C 
ENDROOT
BRANCH   8   3
ATOM      3  O   UNL     1      13.554   9.101  22.446  0.00  0.00    -0.388 OA
ATOM     25  H   UNL     1      13.961   9.758  21.856  0.00  0.00    +0.210 HD
ENDBRANCH   8   3
BRANCH   7   5
ATOM      5  N   UNL     1      13.999   6.547  20.670  0.00  0.00    -0.308 NA
ATOM     24  H   UNL     1      14.053   7.299  19.984  0.00  0.00    +0.122 HD
BRANCH   5  12
ATOM     12  C   UNL     1      15.298   6.386  21.313  0.00  0.00    +0.087 C 
BRANCH  12  11
ATOM     11  C   UNL     1      16.487   6.933  20.481  0.00  0.00    -0.025 C 
ATOM     14  C   UNL     1      17.830   6.663  21.183  0.00  0.00    +0.012 C 
ATOM     15  C   UNL     1      16.337   8.445  20.239  0.00  0.00    +0.012 C 
ATOM     16  C   UNL     1      16.494   6.215  19.118  0.00  0.00    +0.012 C 
ENDBRANCH  12  11
ENDBRANCH   5  12
ENDBRANCH   7   5
BRANCH   9  13
ATOM     13  C   UNL     1      10.389   9.506  22.044  0.00  0.00    +0.138 C 
BRANCH  13   6
ATOM      4  O   UNL     1      11.572  12.059  21.474  0.00  0.00    -0.270 OA
ATOM      6  N   UNL     1      10.611  10.575  22.975  0.00  0.00    -0.309 N 
ATOM     17  C   UNL     1      11.194  11.783  22.609  0.00  0.00    +0.244 C 
ATOM     26  H   UNL     1      10.386  10.385  23.946  0.00  0.00    +0.149 HD
BRANCH  17  18
ATOM      1  F   UNL     1      11.895  15.544  26.719  0.00  0.00    -0.205 F 
ATOM     18  C   UNL     1      11.379  12.778  23.696  0.00  0.00    +0.037 A 
ATOM     19  C   UNL     1      10.491  12.810  24.772  0.00  0.00    +0.016 A 
ATOM     20  C   UNL     1      12.441  13.682  23.644  0.00  0.00    +0.016 A 
ATOM     21  C   UNL     1      10.664  13.745  25.792  0.00  0.00    +0.039 A 
ATOM     22  C   UNL     1      12.615  14.615  24.664  0.00  0.00    +0.039 A 
ATOM     23  C   UNL     1      11.726  14.647  25.739  0.00  0.00    +0.123 A 
ENDBRANCH  17  18
ENDBRANCH  13   6
ENDBRANCH   9  13
TORSDOF 7
ENDMDL
MODEL 5
REMARK VINA RESULT:      -6.0     26.718     29.710
REMARK  Name = 75367090
REMARK  10 active torsions:
REMARK  status: ('A' for Active; 'I' for Inactive)
REMARK    1  A    between atoms: O_3  and  C_8
REMARK    2  A    between atoms: N_5  and  C_7
REMARK    3  A    between atoms: N_5  and  C_12
REMARK    4  A    between atoms: N_6  and  C_13
REMARK    5  A    between atoms: C_9  and  C_13
REMARK    6  A    between atoms: C_11  and  C_12
REMARK    7  A    between atoms: C_11  and  C_14
REMARK    8  A    between atoms: C_11  and  C_15
REMARK    9  A    between atoms: C_11  and  C_16
REMARK   10  A    between atoms: C_17  and  C_18
REMARK                            x       y       z     vdW  Elec       q    Type
REMARK                         _______ _______ _______ _____ _____    ______ ____
ROOT
ATOM      2  O   UNL     1     -16.403   4.949  22.308  0.00  0.00    -0.371 OA
ATOM      7  C   UNL     1     -14.054   5.081  21.978  0.00  0.00    +0.111 C 
ATOM      8  C   UNL     1     -14.346   5.098  23.467  0.00  0.00    +0.164 C 
ATOM      9  C   UNL     1     -15.741   4.490  23.499  0.00  0.00    +0.165 C 
ATOM     10  C   UNL     1     -15.409   5.457  21.401  0.00  0.00    +0.181 C 
ENDROOT
BRANCH   8   3
ATOM      3  O   UNL     1     -13.420   4.334  24.213  0.00  0.00    -0.388 OA
ATOM     25  H   UNL     1     -12.568   4.341  23.743  0.00  0.00    +0.210 HD
ENDBRANCH   8   3
BRANCH   7   5
ATOM      5  N   UNL     1     -12.996   5.994  21.580  0.00  0.00    -0.308 NA
ATOM     24  H   UNL     1     -12.541   5.629  20.743  0.00  0.00    +0.122 HD
BRANCH   5  12
ATOM     12  C   UNL     1     -13.526   7.323  21.301  0.00  0.00    +0.087 C 
BRANCH  12  11
ATOM     11  C   UNL     1     -12.641   8.171  20.352  0.00  0.00    -0.025 C 
ATOM     14  C   UNL     1     -11.287   7.486  20.091  0.00  0.00    +0.012 C 
ATOM     15  C   UNL     1     -12.395   9.572  20.938  0.00  0.00    +0.012 C 
ATOM     16  C   UNL     1     -13.379   8.322  19.008  0.00  0.00    +0.012 C 
ENDBRANCH  12  11
ENDBRANCH   5  12
ENDBRANCH   7   5
BRANCH   9  13
ATOM     13  C   UNL     1     -16.546   4.897  24.722  0.00  0.00    +0.138 C 
BRANCH  13   6
ATOM      4  O   UNL     1     -17.944   2.859  26.182  0.00  0.00    -0.270 OA
ATOM      6  N   UNL     1     -16.085   4.217  25.898  0.00  0.00    -0.309 N 
ATOM     17  C   UNL     1     -16.833   3.238  26.544  0.00  0.00    +0.244 C 
ATOM     26  H   UNL     1     -15.204   4.534  26.290  0.00  0.00    +0.149 HD
BRANCH  17  18
ATOM      1  F   UNL     1     -14.541   1.008  31.159  0.00  0.00    -0.205 F 
ATOM     18  C   UNL     1     -16.227   2.648  27.765  0.00  0.00    +0.037 A 
ATOM     19  C   UNL     1     -16.439   1.304  28.069  0.00  0.00    +0.016 A 
ATOM     20  C   UNL     1     -15.445   3.438  28.608  0.00  0.00    +0.016 A 
ATOM     21  C   UNL     1     -15.870   0.749  29.216  0.00  0.00    +0.039 A 
ATOM     22  C   UNL     1     -14.875   2.884  29.754  0.00  0.00    +0.039 A 
ATOM     23  C   UNL     1     -15.089   1.540  30.058  0.00  0.00    +0.123 A 
ENDBRANCH  17  18
ENDBRANCH  13   6
ENDBRANCH   9  13
TORSDOF 7
ENDMDL
MODEL 6
REMARK VINA RESULT:      -6.0     26.034     27.762
REMARK  Name = 75367090
REMARK  10 active torsions:
REMARK  status: ('A' for Active; 'I' for Inactive)
REMARK    1  A    between atoms: O_3  and  C_8
REMARK    2  A    between atoms: N_5  and  C_7
REMARK    3  A    between atoms: N_5  and  C_12
REMARK    4  A    between atoms: N_6  and  C_13
REMARK    5  A    between atoms: C_9  and  C_13
REMARK    6  A    between atoms: C_11  and  C_12
REMARK    7  A    between atoms: C_11  and  C_14
REMARK    8  A    between atoms: C_11  and  C_15
REMARK    9  A    between atoms: C_11  and  C_16
REMARK   10  A    between atoms: C_17  and  C_18
REMARK                            x       y       z     vdW  Elec       q    Type
REMARK                         _______ _______ _______ _____ _____    ______ ____
ROOT
ATOM      2  O   UNL     1      -1.195 -11.471  15.102  0.00  0.00    -0.371 OA
ATOM      7  C   UNL     1      -3.257 -11.215  16.254  0.00  0.00    +0.111 C 
ATOM      8  C   UNL     1      -3.522 -11.840  14.896  0.00  0.00    +0.164 C 
ATOM      9  C   UNL     1      -2.147 -12.399  14.558  0.00  0.00    +0.165 C 
ATOM     10  C   UNL     1      -1.871 -10.624  16.047  0.00  0.00    +0.181 C 
ENDROOT
BRANCH   8   3
ATOM      3  O   UNL     1      -4.507 -12.853  14.945  0.00  0.00    -0.388 OA
ATOM     25  H   UNL     1      -4.896 -12.859  15.837  0.00  0.00    +0.210 HD
ENDBRANCH   8   3
BRANCH   7   5
ATOM      5  N   UNL     1      -4.244 -10.222  16.643  0.00  0.00    -0.308 NA
ATOM     24  H   UNL     1      -4.962 -10.169  15.921  0.00  0.00    +0.122 HD
BRANCH   5  12
ATOM     12  C   UNL     1      -4.863 -10.568  17.916  0.00  0.00    +0.087 C 
BRANCH  12  11
ATOM     11  C   UNL     1      -6.412 -10.621  17.873  0.00  0.00    -0.025 C 
ATOM     14  C   UNL     1      -6.985  -9.502  16.985  0.00  0.00    +0.012 C 
ATOM     15  C   UNL     1      -7.004 -10.499  19.288  0.00  0.00    +0.012 C 
ATOM     16  C   UNL     1      -6.832 -11.979  17.279  0.00  0.00    +0.012 C 
ENDBRANCH  12  11
ENDBRANCH   5  12
ENDBRANCH   7   5
BRANCH   9  13
ATOM     13  C   UNL     1      -1.915 -12.557  13.065  0.00  0.00    +0.138 C 
BRANCH  13   6
ATOM      4  O   UNL     1      -1.457  -9.943  11.972  0.00  0.00    -0.270 OA
ATOM      6  N   UNL     1      -2.845 -11.771  12.306  0.00  0.00    -0.309 N 
ATOM     17  C   UNL     1      -2.536 -10.508  11.813  0.00  0.00    +0.244 C 
ATOM     26  H   UNL     1      -3.779 -12.150  12.199  0.00  0.00    +0.149 HD
BRANCH  17  18
ATOM      1  F   UNL     1      -6.620  -7.877   8.999  0.00  0.00    -0.205 F 
ATOM     18  C   UNL     1      -3.616  -9.811  11.069  0.00  0.00    +0.037 A 
ATOM     19  C   UNL     1      -3.378  -9.331   9.781  0.00  0.00    +0.016 A 
ATOM     20  C   UNL     1      -4.870  -9.637  11.656  0.00  0.00    +0.016 A 
ATOM     21  C   UNL     1      -4.392  -8.677   9.082  0.00  0.00    +0.039 A 
ATOM     22  C   UNL     1      -5.884  -8.984  10.958  0.00  0.00    +0.039 A 
ATOM     23  C   UNL     1      -5.645  -8.503   9.670  0.00  0.00    +0.123 A 
ENDBRANCH  17  18
ENDBRANCH  13   6
ENDBRANCH   9  13
TORSDOF 7
ENDMDL
MODEL 7
REMARK VINA RESULT:      -6.0     27.255     29.809
REMARK  Name = 75367090
REMARK  10 active torsions:
REMARK  status: ('A' for Active; 'I' for Inactive)
REMARK    1  A    between atoms: O_3  and  C_8
REMARK    2  A    between atoms: N_5  and  C_7
REMARK    3  A    between atoms: N_5  and  C_12
REMARK    4  A    between atoms: N_6  and  C_13
REMARK    5  A    between atoms: C_9  and  C_13
REMARK    6  A    between atoms: C_11  and  C_12
REMARK    7  A    between atoms: C_11  and  C_14
REMARK    8  A    between atoms: C_11  and  C_15
REMARK    9  A    between atoms: C_11  and  C_16
REMARK   10  A    between atoms: C_17  and  C_18
REMARK                            x       y       z     vdW  Elec       q    Type
REMARK                         _______ _______ _______ _____ _____    ______ ____
ROOT
ATOM      2  O   UNL     1     -17.580   1.831  25.302  0.00  0.00    -0.371 OA
ATOM      7  C   UNL     1     -16.442   3.185  26.889  0.00  0.00    +0.111 C 
ATOM      8  C   UNL     1     -16.082   3.652  25.490  0.00  0.00    +0.164 C 
ATOM      9  C   UNL     1     -17.242   3.083  24.684  0.00  0.00    +0.165 C 
ATOM     10  C   UNL     1     -16.983   1.791  26.610  0.00  0.00    +0.181 C 
ENDROOT
BRANCH   8   3
ATOM      3  O   UNL     1     -16.009   5.060  25.388  0.00  0.00    -0.388 OA
ATOM     25  H   UNL     1     -16.731   5.364  24.810  0.00  0.00    +0.210 HD
ENDBRANCH   8   3
BRANCH   7   5
ATOM      5  N   UNL     1     -15.318   3.182  27.810  0.00  0.00    -0.308 NA
ATOM     24  H   UNL     1     -14.549   3.708  27.396  0.00  0.00    +0.122 HD
BRANCH   5  12
ATOM     12  C   UNL     1     -15.684   3.787  29.086  0.00  0.00    +0.087 C 
BRANCH  12  11
ATOM     11  C   UNL     1     -15.315   2.927  30.322  0.00  0.00    -0.025 C 
ATOM     14  C   UNL     1     -15.732   1.458  30.125  0.00  0.00    +0.012 C 
ATOM     15  C   UNL     1     -15.986   3.478  31.592  0.00  0.00    +0.012 C 
ATOM     16  C   UNL     1     -13.787   2.981  30.509  0.00  0.00    +0.012 C 
ENDBRANCH  12  11
ENDBRANCH   5  12
ENDBRANCH   7   5
BRANCH   9  13
ATOM     13  C   UNL     1     -16.902   2.858  23.221  0.00  0.00    +0.138 C 
BRANCH  13   6
ATOM      4  O   UNL     1     -17.052   5.247  21.635  0.00  0.00    -0.270 OA
ATOM      6  N   UNL     1     -15.803   3.683  22.808  0.00  0.00    -0.309 N 
ATOM     17  C   UNL     1     -15.969   4.828  22.036  0.00  0.00    +0.244 C 
ATOM     26  H   UNL     1     -14.874   3.353  23.046  0.00  0.00    +0.149 HD
BRANCH  17  18
ATOM      1  F   UNL     1     -11.280   7.589  20.654  0.00  0.00    -0.205 F 
ATOM     18  C   UNL     1     -14.729   5.558  21.670  0.00  0.00    +0.037 A 
ATOM     19  C   UNL     1     -14.804   6.722  20.906  0.00  0.00    +0.016 A 
ATOM     20  C   UNL     1     -13.487   5.081  22.091  0.00  0.00    +0.016 A 
ATOM     21  C   UNL     1     -13.640   7.408  20.561  0.00  0.00    +0.039 A 
ATOM     22  C   UNL     1     -12.322   5.766  21.748  0.00  0.00    +0.039 A 
ATOM     23  C   UNL     1     -12.399   6.930  20.982  0.00  0.00    +0.123 A 
ENDBRANCH  17  18
ENDBRANCH  13   6
ENDBRANCH   9  13
TORSDOF 7
ENDMDL
MODEL 8
REMARK VINA RESULT:      -5.9     26.675     28.021
REMARK  Name = 75367090
REMARK  10 active torsions:
REMARK  status: ('A' for Active; 'I' for Inactive)
REMARK    1  A    between atoms: O_3  and  C_8
REMARK    2  A    between atoms: N_5  and  C_7
REMARK    3  A    between atoms: N_5  and  C_12
REMARK    4  A    between atoms: N_6  and  C_13
REMARK    5  A    between atoms: C_9  and  C_13
REMARK    6  A    between atoms: C_11  and  C_12
REMARK    7  A    between atoms: C_11  and  C_14
REMARK    8  A    between atoms: C_11  and  C_15
REMARK    9  A    between atoms: C_11  and  C_16
REMARK   10  A    between atoms: C_17  and  C_18
REMARK                            x       y       z     vdW  Elec       q    Type
REMARK                         _______ _______ _______ _____ _____    ______ ____
ROOT
ATOM      2  O   UNL     1      -4.709 -11.291  18.666  0.00  0.00    -0.371 OA
ATOM      7  C   UNL     1      -6.869 -10.577  17.980  0.00  0.00    +0.111 C 
ATOM      8  C   UNL     1      -5.871 -10.266  16.879  0.00  0.00    +0.164 C 
ATOM      9  C   UNL     1      -4.739 -11.221  17.231  0.00  0.00    +0.165 C 
ATOM     10  C   UNL     1      -5.948 -10.767  19.175  0.00  0.00    +0.181 C 
ENDROOT
BRANCH   8   3
ATOM      3  O   UNL     1      -6.390 -10.514  15.587  0.00  0.00    -0.388 OA
ATOM     25  H   UNL     1      -5.647 -10.539  14.959  0.00  0.00    +0.210 HD
ENDBRANCH   8   3
BRANCH   7   5
ATOM      5  N   UNL     1      -7.856  -9.531  18.186  0.00  0.00    -0.308 NA
ATOM     24  H   UNL     1      -7.765  -8.839  17.444  0.00  0.00    +0.122 HD
BRANCH   5  12
ATOM     12  C   UNL     1      -9.208 -10.076  18.176  0.00  0.00    +0.087 C 
BRANCH  12  11
ATOM     11  C   UNL     1     -10.189  -9.316  17.246  0.00  0.00    -0.025 C 
ATOM     14  C   UNL     1      -9.762  -7.848  17.065  0.00  0.00    +0.012 C 
ATOM     15  C   UNL     1     -11.621  -9.362  17.806  0.00  0.00    +0.012 C 
ATOM     16  C   UNL     1     -10.177 -10.002  15.867  0.00  0.00    +0.012 C 
ENDBRANCH  12  11
ENDBRANCH   5  12
ENDBRANCH   7   5
BRANCH   9  13
ATOM     13  C   UNL     1      -3.386 -10.765  16.711  0.00  0.00    +0.138 C 
BRANCH  13   6
ATOM      4  O   UNL     1      -2.667 -12.276  14.379  0.00  0.00    -0.270 OA
ATOM      6  N   UNL     1      -3.472 -10.328  15.347  0.00  0.00    -0.309 N 
ATOM     17  C   UNL     1      -3.100 -11.132  14.274  0.00  0.00    +0.244 C 
ATOM     26  H   UNL     1      -3.755  -9.366  15.195  0.00  0.00    +0.149 HD
BRANCH  17  18
ATOM      1  F   UNL     1      -3.568  -8.832   9.174  0.00  0.00    -0.205 F 
ATOM     18  C   UNL     1      -3.224 -10.524  12.925  0.00  0.00    +0.037 A 
ATOM     19  C   UNL     1      -4.485 -10.235  12.403  0.00  0.00    +0.016 A 
ATOM     20  C   UNL     1      -2.079 -10.240  12.178  0.00  0.00    +0.016 A 
ATOM     21  C   UNL     1      -4.602  -9.664  11.136  0.00  0.00    +0.039 A 
ATOM     22  C   UNL     1      -2.196  -9.669  10.911  0.00  0.00    +0.039 A 
ATOM     23  C   UNL     1      -3.457  -9.381  10.390  0.00  0.00    +0.123 A 
ENDBRANCH  17  18
ENDBRANCH  13   6
ENDBRANCH   9  13
TORSDOF 7
ENDMDL
MODEL 9
REMARK VINA RESULT:      -5.9      2.410      6.502
REMARK  Name = 75367090
REMARK  10 active torsions:
REMARK  status: ('A' for Active; 'I' for Inactive)
REMARK    1  A    between atoms: O_3  and  C_8
REMARK    2  A    between atoms: N_5  and  C_7
REMARK    3  A    between atoms: N_5  and  C_12
REMARK    4  A    between atoms: N_6  and  C_13
REMARK    5  A    between atoms: C_9  and  C_13
REMARK    6  A    between atoms: C_11  and  C_12
REMARK    7  A    between atoms: C_11  and  C_14
REMARK    8  A    between atoms: C_11  and  C_15
REMARK    9  A    between atoms: C_11  and  C_16
REMARK   10  A    between atoms: C_17  and  C_18
REMARK                            x       y       z     vdW  Elec       q    Type
REMARK                         _______ _______ _______ _____ _____    ______ ____
ROOT
ATOM      2  O   UNL     1      11.071   8.855  20.323  0.00  0.00    -0.371 OA
ATOM      7  C   UNL     1      12.366   6.949  19.748  0.00  0.00    +0.111 C 
ATOM      8  C   UNL     1      12.023   6.887  21.226  0.00  0.00    +0.164 C 
ATOM      9  C   UNL     1      10.821   7.819  21.286  0.00  0.00    +0.165 C 
ATOM     10  C   UNL     1      12.121   8.418  19.443  0.00  0.00    +0.181 C 
ENDROOT
BRANCH   8   3
ATOM      3  O   UNL     1      11.701   5.580  21.657  0.00  0.00    -0.388 OA
ATOM     25  H   UNL     1      11.802   5.543  22.624  0.00  0.00    +0.210 HD
ENDBRANCH   8   3
BRANCH   7   5
ATOM      5  N   UNL     1      13.722   6.525  19.445  0.00  0.00    -0.308 NA
ATOM     24  H   UNL     1      14.093   7.112  18.698  0.00  0.00    +0.122 HD
BRANCH   5  12
ATOM     12  C   UNL     1      14.582   6.636  20.618  0.00  0.00    +0.087 C 
BRANCH  12  11
ATOM     11  C   UNL     1      16.057   6.982  20.290  0.00  0.00    -0.025 C 
ATOM     14  C   UNL     1      16.997   6.554  21.432  0.00  0.00    +0.012 C 
ATOM     15  C   UNL     1      16.223   8.490  20.035  0.00  0.00    +0.012 C 
ATOM     16  C   UNL     1      16.460   6.219  19.014  0.00  0.00    +0.012 C 
ENDBRANCH  12  11
ENDBRANCH   5  12
ENDBRANCH   7   5
BRANCH   9  13
ATOM     13  C   UNL     1      10.606   8.434  22.659  0.00  0.00    +0.138 C 
BRANCH  13   6
ATOM      4  O   UNL     1      10.305  11.051  23.797  0.00  0.00    -0.270 OA
ATOM      6  N   UNL     1      11.659   9.350  22.990  0.00  0.00    -0.309 N 
ATOM     17  C   UNL     1      11.420  10.604  23.541  0.00  0.00    +0.244 C 
ATOM     26  H   UNL     1      12.601   9.070  22.738  0.00  0.00    +0.149 HD
BRANCH  17  18
ATOM      1  F   UNL     1      15.942  13.781  24.532  0.00  0.00    -0.205 F 
ATOM     18  C   UNL     1      12.616  11.445  23.803  0.00  0.00    +0.037 A 
ATOM     19  C   UNL     1      12.651  12.279  24.921  0.00  0.00    +0.016 A 
ATOM     20  C   UNL     1      13.706  11.401  22.932  0.00  0.00    +0.016 A 
ATOM     21  C   UNL     1      13.774  13.069  25.167  0.00  0.00    +0.039 A 
ATOM     22  C   UNL     1      14.829  12.190  23.178  0.00  0.00    +0.039 A 
ATOM     23  C   UNL     1      14.863  13.024  24.296  0.00  0.00    +0.123 A 
ENDBRANCH  17  18
ENDBRANCH  13   6
ENDBRANCH   9  13
TORSDOF 7
ENDMDL
MODEL 10
REMARK VINA RESULT:      -5.9     26.263     28.178
REMARK  Name = 75367090
REMARK  10 active torsions:
REMARK  status: ('A' for Active; 'I' for Inactive)
REMARK    1  A    between atoms: O_3  and  C_8
REMARK    2  A    between atoms: N_5  and  C_7
REMARK    3  A    between atoms: N_5  and  C_12
REMARK    4  A    between atoms: N_6  and  C_13
REMARK    5  A    between atoms: C_9  and  C_13
REMARK    6  A    between atoms: C_11  and  C_12
REMARK    7  A    between atoms: C_11  and  C_14
REMARK    8  A    between atoms: C_11  and  C_15
REMARK    9  A    between atoms: C_11  and  C_16
REMARK   10  A    between atoms: C_17  and  C_18
REMARK                            x       y       z     vdW  Elec       q    Type
REMARK                         _______ _______ _______ _____ _____    ______ ____
ROOT
ATOM      2  O   UNL     1      -3.097 -12.208  13.095  0.00  0.00    -0.371 OA
ATOM      7  C   UNL     1      -3.240 -11.323  10.895  0.00  0.00    +0.111 C 
ATOM      8  C   UNL     1      -2.560 -10.307  11.795  0.00  0.00    +0.164 C 
ATOM      9  C   UNL     1      -2.090 -11.196  12.938  0.00  0.00    +0.165 C 
ATOM     10  C   UNL     1      -3.920 -12.221  11.916  0.00  0.00    +0.181 C 
ENDROOT
BRANCH   8   3
ATOM      3  O   UNL     1      -1.483  -9.649  11.159  0.00  0.00    -0.388 OA
ATOM     25  H   UNL     1      -1.372 -10.032  10.271  0.00  0.00    +0.210 HD
ENDBRANCH   8   3
BRANCH   7   5
ATOM      5  N   UNL     1      -4.171 -10.734   9.948  0.00  0.00    -0.308 NA
ATOM     24  H   UNL     1      -4.156 -11.279   9.086  0.00  0.00    +0.122 HD
BRANCH   5  12
ATOM     12  C   UNL     1      -5.526 -10.718  10.485  0.00  0.00    +0.087 C 
BRANCH  12  11
ATOM     11  C   UNL     1      -6.086  -9.296  10.746  0.00  0.00    -0.025 C 
ATOM     14  C   UNL     1      -7.520  -9.153  10.206  0.00  0.00    +0.012 C 
ATOM     15  C   UNL     1      -5.190  -8.227  10.097  0.00  0.00    +0.012 C 
ATOM     16  C   UNL     1      -6.111  -9.059  12.268  0.00  0.00    +0.012 C 
ENDBRANCH  12  11
ENDBRANCH   5  12
ENDBRANCH   7   5
BRANCH   9  13
ATOM     13  C   UNL     1      -1.908 -10.445  14.246  0.00  0.00    +0.138 C 
BRANCH  13   6
ATOM      4  O   UNL     1      -2.455 -11.044  16.999  0.00  0.00    -0.270 OA
ATOM      6  N   UNL     1      -3.159 -10.274  14.927  0.00  0.00    -0.309 N 
ATOM     17  C   UNL     1      -3.334 -10.592  16.270  0.00  0.00    +0.244 C 
ATOM     26  H   UNL     1      -3.945  -9.970  14.364  0.00  0.00    +0.149 HD
BRANCH  17  18
ATOM      1  F   UNL     1      -8.485  -9.797  18.357  0.00  0.00    -0.205 F 
ATOM     18  C   UNL     1      -4.696 -10.381  16.822  0.00  0.00    +0.037 A 
ATOM     19  C   UNL     1      -5.675  -9.759  16.046  0.00  0.00    +0.016 A 
ATOM     20  C   UNL     1      -4.999 -10.805  18.116  0.00  0.00    +0.016 A 
ATOM     21  C   UNL     1      -6.954  -9.561  16.565  0.00  0.00    +0.039 A 
ATOM     22  C   UNL     1      -6.279 -10.608  18.635  0.00  0.00    +0.039 A 
ATOM     23  C   UNL     1      -7.256  -9.985  17.858  0.00  0.00    +0.123 A 
ENDBRANCH  17  18
ENDBRANCH  13   6
ENDBRANCH   9  13
TORSDOF 7
ENDMDL
