MODEL 1
REMARK VINA RESULT:      -7.1      0.000      0.000
REMARK  Name = 11886195
REMARK  7 active torsions:
REMARK  status: ('A' for Active; 'I' for Inactive)
REMARK    1  A    between atoms: S_1  and  N_7
REMARK    2  A    between atoms: S_1  and  C_20
REMARK    3  A    between atoms: O_4  and  C_19
REMARK    4  A    between atoms: O_4  and  C_23
REMARK    5  A    between atoms: N_7  and  C_15
REMARK    6  A    between atoms: N_8  and  C_16
REMARK    7  A    between atoms: C_21  and  C_27
REMARK                            x       y       z     vdW  Elec       q    Type
REMARK                         _______ _______ _______ _____ _____    ______ ____
ROOT
ATOM      2  O   UNL     1      15.455  10.997  20.384  0.00  0.00    -0.370 OA
ATOM      3  O   UNL     1      13.510  11.767  18.035  0.00  0.00    -0.370 OA
ATOM     13  C   UNL     1      13.357  11.625  19.456  0.00  0.00    +0.170 C 
ATOM     14  C   UNL     1      14.214  10.454  19.897  0.00  0.00    +0.175 C 
ATOM     15  C   UNL     1      13.955  12.817  20.169  0.00  0.00    +0.133 C 
ATOM     16  C   UNL     1      14.460   9.658  18.630  0.00  0.00    +0.171 C 
ATOM     17  C   UNL     1      15.417  12.426  20.280  0.00  0.00    +0.183 C 
ATOM     18  C   UNL     1      14.344  10.712  17.534  0.00  0.00    +0.190 C 
ENDROOT
BRANCH  16   8
ATOM      8  N   UNL     1      13.547   8.520  18.495  0.00  0.00    -0.187 N 
ATOM      9  N   UNL     1      12.651   8.473  17.505  0.00  0.00    -0.041 NA
ATOM     10  N   UNL     1      12.495   6.655  18.784  0.00  0.00    -0.071 NA
ATOM     11  N   UNL     1      12.008   7.326  17.687  0.00  0.00    -0.020 NA
ATOM     19  C   UNL     1      13.450   7.415  19.270  0.00  0.00    +0.342 A 
BRANCH  19   4
ATOM      4  O   UNL     1      14.197   7.163  20.329  0.00  0.00    -0.423 OA
BRANCH   4  23
ATOM     23  C   UNL     1      15.538   6.822  20.234  0.00  0.00    +0.132 A 
ATOM     28  C   UNL     1      15.998   6.221  19.078  0.00  0.00    +0.046 A 
ATOM     29  C   UNL     1      16.376   7.093  21.299  0.00  0.00    +0.046 A 
ATOM     30  C   UNL     1      17.347   5.877  18.984  0.00  0.00    +0.004 A 
ATOM     31  C   UNL     1      17.724   6.750  21.205  0.00  0.00    +0.004 A 
ATOM     32  C   UNL     1      18.210   6.142  20.047  0.00  0.00    +0.000 A 
ENDBRANCH   4  23
ENDBRANCH  19   4
ENDBRANCH  16   8
BRANCH  15   7
ATOM      7  N   UNL     1      13.362  12.997  21.472  0.00  0.00    -0.182 NA
ATOM     33  H   UNL     1      13.977  12.982  22.294  0.00  0.00    +0.148 HD
BRANCH   7   1
ATOM      1  S   UNL     1      11.680  12.856  21.661  0.00  0.00    +0.060 S 
ATOM      5  O   UNL     1      11.303  11.456  21.601  0.00  0.00    -0.153 OA
ATOM      6  O   UNL     1      11.030  13.825  20.798  0.00  0.00    -0.153 OA
BRANCH   1  20
ATOM     20  C   UNL     1      11.451  13.412  23.323  0.00  0.00    +0.123 A 
ATOM     21  C   UNL     1      12.257  12.951  24.354  0.00  0.00    +0.078 A 
ATOM     22  C   UNL     1      10.435  14.327  23.562  0.00  0.00    +0.030 A 
ATOM     24  C   UNL     1      12.043  13.416  25.653  0.00  0.00    +0.021 A 
ATOM     25  C   UNL     1      10.222  14.792  24.860  0.00  0.00    +0.002 A 
ATOM     26  C   UNL     1      11.026  14.336  25.904  0.00  0.00    +0.001 A 
BRANCH  21  27
ATOM     12  N   UNL     1      14.162  11.243  23.952  0.00  0.00    -0.191 NA
ATOM     27  C   UNL     1      13.310  12.007  24.132  0.00  0.00    +0.101 C 
ENDBRANCH  21  27
ENDBRANCH   1  20
ENDBRANCH   7   1
ENDBRANCH  15   7
TORSDOF 7
ENDMDL
MODEL 2
REMARK VINA RESULT:      -6.9     27.739     29.869
REMARK  Name = 11886195
REMARK  7 active torsions:
REMARK  status: ('A' for Active; 'I' for Inactive)
REMARK    1  A    between atoms: S_1  and  N_7
REMARK    2  A    between atoms: S_1  and  C_20
REMARK    3  A    between atoms: O_4  and  C_19
REMARK    4  A    between atoms: O_4  and  C_23
REMARK    5  A    between atoms: N_7  and  C_15
REMARK    6  A    between atoms: N_8  and  C_16
REMARK    7  A    between atoms: C_21  and  C_27
REMARK                            x       y       z     vdW  Elec       q    Type
REMARK                         _______ _______ _______ _____ _____    ______ ____
ROOT
ATOM      2  O   UNL     1      -6.574 -11.618  15.468  0.00  0.00    -0.370 OA
ATOM      3  O   UNL     1      -4.955 -10.475  17.909  0.00  0.00    -0.370 OA
ATOM     13  C   UNL     1      -5.695  -9.879  16.832  0.00  0.00    +0.170 C 
ATOM     14  C   UNL     1      -5.459 -10.717  15.591  0.00  0.00    +0.175 C 
ATOM     15  C   UNL     1      -7.181 -10.001  17.088  0.00  0.00    +0.133 C 
ATOM     16  C   UNL     1      -4.195 -11.501  15.891  0.00  0.00    +0.171 C 
ATOM     17  C   UNL     1      -7.490 -11.384  16.546  0.00  0.00    +0.183 C 
ATOM     18  C   UNL     1      -4.198 -11.588  17.413  0.00  0.00    +0.190 C 
ENDROOT
BRANCH  16   8
ATOM      8  N   UNL     1      -3.000 -10.885  15.308  0.00  0.00    -0.187 N 
ATOM      9  N   UNL     1      -2.042 -10.374  16.087  0.00  0.00    -0.041 NA
ATOM     10  N   UNL     1      -1.513 -10.126  13.936  0.00  0.00    -0.071 NA
ATOM     11  N   UNL     1      -1.132  -9.909  15.240  0.00  0.00    -0.020 NA
ATOM     19  C   UNL     1      -2.676 -10.733  14.003  0.00  0.00    +0.342 A 
BRANCH  19   4
ATOM      4  O   UNL     1      -3.416 -11.133  12.986  0.00  0.00    -0.423 OA
BRANCH   4  23
ATOM     23  C   UNL     1      -3.845 -10.270  11.988  0.00  0.00    +0.132 A 
ATOM     28  C   UNL     1      -3.018 -10.032  10.906  0.00  0.00    +0.046 A 
ATOM     29  C   UNL     1      -5.086  -9.673  12.104  0.00  0.00    +0.046 A 
ATOM     30  C   UNL     1      -3.450  -9.163   9.903  0.00  0.00    +0.004 A 
ATOM     31  C   UNL     1      -5.517  -8.805  11.101  0.00  0.00    +0.004 A 
ATOM     32  C   UNL     1      -4.698  -8.550  10.000  0.00  0.00    +0.000 A 
ENDBRANCH   4  23
ENDBRANCH  19   4
ENDBRANCH  16   8
BRANCH  15   7
ATOM      7  N   UNL     1      -7.918  -8.985  16.376  0.00  0.00    -0.182 NA
ATOM     33  H   UNL     1      -7.391  -8.248  15.894  0.00  0.00    +0.148 HD
BRANCH   7   1
ATOM      1  S   UNL     1      -9.586  -8.806  16.647  0.00  0.00    +0.060 S 
ATOM      5  O   UNL     1      -9.880  -7.418  16.950  0.00  0.00    -0.153 OA
ATOM      6  O   UNL     1     -10.029  -9.859  17.541  0.00  0.00    -0.153 OA
BRANCH   1  20
ATOM     20  C   UNL     1     -10.255  -9.170  15.052  0.00  0.00    +0.123 A 
ATOM     21  C   UNL     1     -11.622  -9.145  14.821  0.00  0.00    +0.078 A 
ATOM     22  C   UNL     1      -9.362  -9.481  14.036  0.00  0.00    +0.030 A 
ATOM     24  C   UNL     1     -12.109  -9.439  13.546  0.00  0.00    +0.021 A 
ATOM     25  C   UNL     1      -9.849  -9.774  12.761  0.00  0.00    +0.002 A 
ATOM     26  C   UNL     1     -11.222  -9.752  12.517  0.00  0.00    +0.001 A 
BRANCH  21  27
ATOM     12  N   UNL     1     -13.321  -8.570  16.690  0.00  0.00    -0.191 NA
ATOM     27  C   UNL     1     -12.562  -8.827  15.854  0.00  0.00    +0.101 C 
ENDBRANCH  21  27
ENDBRANCH   1  20
ENDBRANCH   7   1
ENDBRANCH  15   7
TORSDOF 7
ENDMDL
MODEL 3
REMARK VINA RESULT:      -6.9      4.775      9.049
REMARK  Name = 11886195
REMARK  7 active torsions:
REMARK  status: ('A' for Active; 'I' for Inactive)
REMARK    1  A    between atoms: S_1  and  N_7
REMARK    2  A    between atoms: S_1  and  C_20
REMARK    3  A    between atoms: O_4  and  C_19
REMARK    4  A    between atoms: O_4  and  C_23
REMARK    5  A    between atoms: N_7  and  C_15
REMARK    6  A    between atoms: N_8  and  C_16
REMARK    7  A    between atoms: C_21  and  C_27
REMARK                            x       y       z     vdW  Elec       q    Type
REMARK                         _______ _______ _______ _____ _____    ______ ____
ROOT
ATOM      2  O   UNL     1      17.662   8.934  20.847  0.00  0.00    -0.370 OA
ATOM      3  O   UNL     1      15.896   6.393  21.409  0.00  0.00    -0.370 OA
ATOM     13  C   UNL     1      17.017   6.663  20.553  0.00  0.00    +0.170 C 
ATOM     14  C   UNL     1      16.859   8.074  20.019  0.00  0.00    +0.175 C 
ATOM     15  C   UNL     1      18.295   6.710  21.361  0.00  0.00    +0.133 C 
ATOM     16  C   UNL     1      15.389   8.396  20.213  0.00  0.00    +0.171 C 
ATOM     17  C   UNL     1      18.313   8.146  21.852  0.00  0.00    +0.183 C 
ATOM     18  C   UNL     1      14.996   7.509  21.388  0.00  0.00    +0.190 C 
ENDROOT
BRANCH  16   8
ATOM      8  N   UNL     1      14.604   8.194  18.993  0.00  0.00    -0.187 N 
ATOM      9  N   UNL     1      14.945   7.254  18.105  0.00  0.00    -0.041 NA
ATOM     10  N   UNL     1      13.124   8.344  17.425  0.00  0.00    -0.071 NA
ATOM     11  N   UNL     1      14.033   7.351  17.145  0.00  0.00    -0.020 NA
ATOM     19  C   UNL     1      13.498   8.853  18.577  0.00  0.00    +0.342 A 
BRANCH  19   4
ATOM      4  O   UNL     1      12.912   9.838  19.231  0.00  0.00    -0.423 OA
BRANCH   4  23
ATOM     23  C   UNL     1      12.105   9.624  20.339  0.00  0.00    +0.132 A 
ATOM     28  C   UNL     1      12.095  10.564  21.353  0.00  0.00    +0.046 A 
ATOM     29  C   UNL     1      11.335   8.479  20.398  0.00  0.00    +0.046 A 
ATOM     30  C   UNL     1      11.284  10.348  22.468  0.00  0.00    +0.004 A 
ATOM     31  C   UNL     1      10.524   8.263  21.512  0.00  0.00    +0.004 A 
ATOM     32  C   UNL     1      10.499   9.197  22.547  0.00  0.00    +0.000 A 
ENDBRANCH   4  23
ENDBRANCH  19   4
ENDBRANCH  16   8
BRANCH  15   7
ATOM      7  N   UNL     1      19.445   6.426  20.537  0.00  0.00    -0.182 NA
ATOM     33  H   UNL     1      19.360   6.553  19.522  0.00  0.00    +0.148 HD
BRANCH   7   1
ATOM      1  S   UNL     1      20.753   5.557  21.184  0.00  0.00    +0.060 S 
ATOM      5  O   UNL     1      20.876   4.286  20.496  0.00  0.00    -0.153 OA
ATOM      6  O   UNL     1      20.671   5.600  22.632  0.00  0.00    -0.153 OA
BRANCH   1  20
ATOM     20  C   UNL     1      22.127   6.565  20.715  0.00  0.00    +0.123 A 
ATOM     21  C   UNL     1      23.432   6.117  20.858  0.00  0.00    +0.078 A 
ATOM     22  C   UNL     1      21.855   7.825  20.199  0.00  0.00    +0.030 A 
ATOM     24  C   UNL     1      24.488   6.945  20.476  0.00  0.00    +0.021 A 
ATOM     25  C   UNL     1      22.911   8.652  19.816  0.00  0.00    +0.002 A 
ATOM     26  C   UNL     1      24.227   8.212  19.955  0.00  0.00    +0.001 A 
BRANCH  21  27
ATOM     12  N   UNL     1      23.983   3.775  21.818  0.00  0.00    -0.191 NA
ATOM     27  C   UNL     1      23.737   4.822  21.389  0.00  0.00    +0.101 C 
ENDBRANCH  21  27
ENDBRANCH   1  20
ENDBRANCH   7   1
ENDBRANCH  15   7
TORSDOF 7
ENDMDL
MODEL 4
REMARK VINA RESULT:      -6.8     28.029     30.243
REMARK  Name = 11886195
REMARK  7 active torsions:
REMARK  status: ('A' for Active; 'I' for Inactive)
REMARK    1  A    between atoms: S_1  and  N_7
REMARK    2  A    between atoms: S_1  and  C_20
REMARK    3  A    between atoms: O_4  and  C_19
REMARK    4  A    between atoms: O_4  and  C_23
REMARK    5  A    between atoms: N_7  and  C_15
REMARK    6  A    between atoms: N_8  and  C_16
REMARK    7  A    between atoms: C_21  and  C_27
REMARK                            x       y       z     vdW  Elec       q    Type
REMARK                         _______ _______ _______ _____ _____    ______ ____
ROOT
ATOM      2  O   UNL     1      -4.099  -9.940  16.952  0.00  0.00    -0.370 OA
ATOM      3  O   UNL     1      -4.560 -12.952  17.734  0.00  0.00    -0.370 OA
ATOM     13  C   UNL     1      -4.980 -12.127  16.636  0.00  0.00    +0.170 C 
ATOM     14  C   UNL     1      -5.271 -10.743  17.183  0.00  0.00    +0.175 C 
ATOM     15  C   UNL     1      -3.835 -11.915  15.671  0.00  0.00    +0.133 C 
ATOM     16  C   UNL     1      -5.467 -10.952  18.673  0.00  0.00    +0.171 C 
ATOM     17  C   UNL     1      -3.107 -10.735  16.289  0.00  0.00    +0.183 C 
ATOM     18  C   UNL     1      -4.643 -12.204  18.955  0.00  0.00    +0.190 C 
ENDROOT
BRANCH  16   8
ATOM      8  N   UNL     1      -6.880 -11.043  19.046  0.00  0.00    -0.187 N 
ATOM      9  N   UNL     1      -7.315 -12.011  19.858  0.00  0.00    -0.041 NA
ATOM     10  N   UNL     1      -9.004 -10.691  19.245  0.00  0.00    -0.071 NA
ATOM     11  N   UNL     1      -8.619 -11.791  19.977  0.00  0.00    -0.020 NA
ATOM     19  C   UNL     1      -7.908 -10.243  18.676  0.00  0.00    +0.342 A 
BRANCH  19   4
ATOM      4  O   UNL     1      -7.805  -9.197  17.878  0.00  0.00    -0.423 OA
BRANCH   4  23
ATOM     23  C   UNL     1      -8.742  -8.912  16.894  0.00  0.00    +0.132 A 
ATOM     28  C   UNL     1      -8.700  -9.614  15.705  0.00  0.00    +0.046 A 
ATOM     29  C   UNL     1      -9.688  -7.935  17.133  0.00  0.00    +0.046 A 
ATOM     30  C   UNL     1      -9.641  -9.326  14.716  0.00  0.00    +0.004 A 
ATOM     31  C   UNL     1     -10.629  -7.647  16.144  0.00  0.00    +0.004 A 
ATOM     32  C   UNL     1     -10.606  -8.342  14.935  0.00  0.00    +0.000 A 
ENDBRANCH   4  23
ENDBRANCH  19   4
ENDBRANCH  16   8
BRANCH  15   7
ATOM      7  N   UNL     1      -4.318 -11.595  14.349  0.00  0.00    -0.182 NA
ATOM     33  H   UNL     1      -5.279 -11.250  14.251  0.00  0.00    +0.148 HD
BRANCH   7   1
ATOM      1  S   UNL     1      -3.459 -12.131  12.985  0.00  0.00    +0.060 S 
ATOM      5  O   UNL     1      -4.087 -13.329  12.459  0.00  0.00    -0.153 OA
ATOM      6  O   UNL     1      -2.042 -12.124  13.293  0.00  0.00    -0.153 OA
BRANCH   1  20
ATOM     20  C   UNL     1      -3.743 -10.818  11.836  0.00  0.00    +0.123 A 
ATOM     21  C   UNL     1      -5.025 -10.359  11.569  0.00  0.00    +0.078 A 
ATOM     22  C   UNL     1      -2.637 -10.260  11.210  0.00  0.00    +0.030 A 
ATOM     24  C   UNL     1      -5.205  -9.320  10.655  0.00  0.00    +0.021 A 
ATOM     25  C   UNL     1      -2.817  -9.221  10.297  0.00  0.00    +0.002 A 
ATOM     26  C   UNL     1      -4.101  -8.751  10.020  0.00  0.00    +0.001 A 
BRANCH  21  27
ATOM     12  N   UNL     1      -7.114 -11.373  12.715  0.00  0.00    -0.191 NA
ATOM     27  C   UNL     1      -6.180 -10.920  12.202  0.00  0.00    +0.101 C 
ENDBRANCH  21  27
ENDBRANCH   1  20
ENDBRANCH   7   1
ENDBRANCH  15   7
TORSDOF 7
ENDMDL
MODEL 5
REMARK VINA RESULT:      -6.8     27.901     30.270
REMARK  Name = 11886195
REMARK  7 active torsions:
REMARK  status: ('A' for Active; 'I' for Inactive)
REMARK    1  A    between atoms: S_1  and  N_7
REMARK    2  A    between atoms: S_1  and  C_20
REMARK    3  A    between atoms: O_4  and  C_19
REMARK    4  A    between atoms: O_4  and  C_23
REMARK    5  A    between atoms: N_7  and  C_15
REMARK    6  A    between atoms: N_8  and  C_16
REMARK    7  A    between atoms: C_21  and  C_27
REMARK                            x       y       z     vdW  Elec       q    Type
REMARK                         _______ _______ _______ _____ _____    ______ ____
ROOT
ATOM      2  O   UNL     1      -4.074 -10.102  17.094  0.00  0.00    -0.370 OA
ATOM      3  O   UNL     1      -4.949 -13.106  16.776  0.00  0.00    -0.370 OA
ATOM     13  C   UNL     1      -5.266 -11.892  16.077  0.00  0.00    +0.170 C 
ATOM     14  C   UNL     1      -5.344 -10.777  17.102  0.00  0.00    +0.175 C 
ATOM     15  C   UNL     1      -4.118 -11.492  15.176  0.00  0.00    +0.133 C 
ATOM     16  C   UNL     1      -5.542 -11.487  18.428  0.00  0.00    +0.171 C 
ATOM     17  C   UNL     1      -3.218 -10.721  16.124  0.00  0.00    +0.183 C 
ATOM     18  C   UNL     1      -4.903 -12.850  18.187  0.00  0.00    +0.190 C 
ENDROOT
BRANCH  16   8
ATOM      8  N   UNL     1      -6.947 -11.526  18.840  0.00  0.00    -0.187 N 
ATOM      9  N   UNL     1      -7.435 -12.568  19.520  0.00  0.00    -0.041 NA
ATOM     10  N   UNL     1      -9.029 -11.050  19.172  0.00  0.00    -0.071 NA
ATOM     11  N   UNL     1      -8.713 -12.271  19.721  0.00  0.00    -0.020 NA
ATOM     19  C   UNL     1      -7.918 -10.606  18.631  0.00  0.00    +0.342 A 
BRANCH  19   4
ATOM      4  O   UNL     1      -7.755  -9.464  17.990  0.00  0.00    -0.423 OA
BRANCH   4  23
ATOM     23  C   UNL     1      -8.656  -9.005  17.040  0.00  0.00    +0.132 A 
ATOM     28  C   UNL     1      -8.614  -9.535  15.764  0.00  0.00    +0.046 A 
ATOM     29  C   UNL     1      -9.568  -8.031  17.396  0.00  0.00    +0.046 A 
ATOM     30  C   UNL     1      -9.519  -9.071  14.809  0.00  0.00    +0.004 A 
ATOM     31  C   UNL     1     -10.474  -7.569  16.441  0.00  0.00    +0.004 A 
ATOM     32  C   UNL     1     -10.449  -8.088  15.147  0.00  0.00    +0.000 A 
ENDBRANCH   4  23
ENDBRANCH  19   4
ENDBRANCH  16   8
BRANCH  15   7
ATOM      7  N   UNL     1      -4.574 -10.655  14.092  0.00  0.00    -0.182 NA
ATOM     33  H   UNL     1      -4.561  -9.637  14.224  0.00  0.00    +0.148 HD
BRANCH   7   1
ATOM      1  S   UNL     1      -5.447 -11.340  12.806  0.00  0.00    +0.060 S 
ATOM      5  O   UNL     1      -6.866 -11.129  13.019  0.00  0.00    -0.153 OA
ATOM      6  O   UNL     1      -4.936 -12.675  12.555  0.00  0.00    -0.153 OA
BRANCH   1  20
ATOM     20  C   UNL     1      -4.943 -10.331  11.445  0.00  0.00    +0.123 A 
ATOM     21  C   UNL     1      -3.604 -10.191  11.109  0.00  0.00    +0.078 A 
ATOM     22  C   UNL     1      -5.935  -9.684  10.722  0.00  0.00    +0.030 A 
ATOM     24  C   UNL     1      -3.250  -9.384  10.027  0.00  0.00    +0.021 A 
ATOM     25  C   UNL     1      -5.580  -8.878   9.640  0.00  0.00    +0.002 A 
ATOM     26  C   UNL     1      -4.238  -8.729   9.293  0.00  0.00    +0.001 A 
BRANCH  21  27
ATOM     12  N   UNL     1      -1.722 -11.381  12.432  0.00  0.00    -0.191 NA
ATOM     27  C   UNL     1      -2.564 -10.849  11.841  0.00  0.00    +0.101 C 
ENDBRANCH  21  27
ENDBRANCH   1  20
ENDBRANCH   7   1
ENDBRANCH  15   7
TORSDOF 7
ENDMDL
MODEL 6
REMARK VINA RESULT:      -6.8     14.700     16.430
REMARK  Name = 11886195
REMARK  7 active torsions:
REMARK  status: ('A' for Active; 'I' for Inactive)
REMARK    1  A    between atoms: S_1  and  N_7
REMARK    2  A    between atoms: S_1  and  C_20
REMARK    3  A    between atoms: O_4  and  C_19
REMARK    4  A    between atoms: O_4  and  C_23
REMARK    5  A    between atoms: N_7  and  C_15
REMARK    6  A    between atoms: N_8  and  C_16
REMARK    7  A    between atoms: C_21  and  C_27
REMARK                            x       y       z     vdW  Elec       q    Type
REMARK                         _______ _______ _______ _____ _____    ______ ____
ROOT
ATOM      2  O   UNL     1      13.590   6.891   6.302  0.00  0.00    -0.370 OA
ATOM      3  O   UNL     1      13.731   9.847   5.237  0.00  0.00    -0.370 OA
ATOM     13  C   UNL     1      12.971   8.686   4.868  0.00  0.00    +0.170 C 
ATOM     14  C   UNL     1      13.874   7.477   5.018  0.00  0.00    +0.175 C 
ATOM     15  C   UNL     1      11.859   8.449   5.866  0.00  0.00    +0.133 C 
ATOM     16  C   UNL     1      15.281   8.045   5.011  0.00  0.00    +0.171 C 
ATOM     17  C   UNL     1      12.563   7.654   6.950  0.00  0.00    +0.183 C 
ATOM     18  C   UNL     1      15.082   9.463   5.532  0.00  0.00    +0.190 C 
ENDROOT
BRANCH  16   8
ATOM      8  N   UNL     1      15.917   7.951   3.695  0.00  0.00    -0.187 N 
ATOM      9  N   UNL     1      15.351   7.252   2.707  0.00  0.00    -0.041 NA
ATOM     10  N   UNL     1      17.268   8.159   2.020  0.00  0.00    -0.071 NA
ATOM     11  N   UNL     1      16.184   7.382   1.681  0.00  0.00    -0.020 NA
ATOM     19  C   UNL     1      17.081   8.501   3.274  0.00  0.00    +0.342 A 
BRANCH  19   4
ATOM      4  O   UNL     1      17.877   9.249   4.015  0.00  0.00    -0.423 OA
BRANCH   4  23
ATOM     23  C   UNL     1      18.867   8.713   4.825  0.00  0.00    +0.132 A 
ATOM     28  C   UNL     1      18.908   9.071   6.159  0.00  0.00    +0.046 A 
ATOM     29  C   UNL     1      19.783   7.837   4.276  0.00  0.00    +0.046 A 
ATOM     30  C   UNL     1      19.905   8.532   6.974  0.00  0.00    +0.004 A 
ATOM     31  C   UNL     1      20.779   7.299   5.090  0.00  0.00    +0.004 A 
ATOM     32  C   UNL     1      20.841   7.647   6.440  0.00  0.00    +0.000 A 
ENDBRANCH   4  23
ENDBRANCH  19   4
ENDBRANCH  16   8
BRANCH  15   7
ATOM      7  N   UNL     1      10.783   7.689   5.278  0.00  0.00    -0.182 NA
ATOM     33  H   UNL     1      10.901   7.336   4.321  0.00  0.00    +0.148 HD
BRANCH   7   1
ATOM      1  S   UNL     1       9.245   7.706   5.999  0.00  0.00    +0.060 S 
ATOM      5  O   UNL     1       8.241   7.381   5.003  0.00  0.00    -0.153 OA
ATOM      6  O   UNL     1       9.118   8.911   6.798  0.00  0.00    -0.153 OA
BRANCH   1  20
ATOM     20  C   UNL     1       9.355   6.350   7.126  0.00  0.00    +0.123 A 
ATOM     21  C   UNL     1       9.767   5.094   6.704  0.00  0.00    +0.078 A 
ATOM     22  C   UNL     1       9.015   6.585   8.451  0.00  0.00    +0.030 A 
ATOM     24  C   UNL     1       9.839   4.050   7.628  0.00  0.00    +0.021 A 
ATOM     25  C   UNL     1       9.089   5.541   9.374  0.00  0.00    +0.002 A 
ATOM     26  C   UNL     1       9.501   4.274   8.962  0.00  0.00    +0.001 A 
BRANCH  21  27
ATOM     12  N   UNL     1      10.408   4.613   4.241  0.00  0.00    -0.191 NA
ATOM     27  C   UNL     1      10.121   4.828   5.343  0.00  0.00    +0.101 C 
ENDBRANCH  21  27
ENDBRANCH   1  20
ENDBRANCH   7   1
ENDBRANCH  15   7
TORSDOF 7
ENDMDL
MODEL 7
REMARK VINA RESULT:      -6.8     27.749     29.716
REMARK  Name = 11886195
REMARK  7 active torsions:
REMARK  status: ('A' for Active; 'I' for Inactive)
REMARK    1  A    between atoms: S_1  and  N_7
REMARK    2  A    between atoms: S_1  and  C_20
REMARK    3  A    between atoms: O_4  and  C_19
REMARK    4  A    between atoms: O_4  and  C_23
REMARK    5  A    between atoms: N_7  and  C_15
REMARK    6  A    between atoms: N_8  and  C_16
REMARK    7  A    between atoms: C_21  and  C_27
REMARK                            x       y       z     vdW  Elec       q    Type
REMARK                         _______ _______ _______ _____ _____    ______ ____
ROOT
ATOM      2  O   UNL     1      -6.526 -11.780  15.396  0.00  0.00    -0.370 OA
ATOM      3  O   UNL     1      -5.077 -10.335  17.784  0.00  0.00    -0.370 OA
ATOM     13  C   UNL     1      -5.809  -9.880  16.635  0.00  0.00    +0.170 C 
ATOM     14  C   UNL     1      -5.473 -10.803  15.480  0.00  0.00    +0.175 C 
ATOM     15  C   UNL     1      -7.294 -10.075  16.850  0.00  0.00    +0.133 C 
ATOM     16  C   UNL     1      -4.177 -11.476  15.889  0.00  0.00    +0.171 C 
ATOM     17  C   UNL     1      -7.496 -11.516  16.419  0.00  0.00    +0.183 C 
ATOM     18  C   UNL     1      -4.235 -11.435  17.412  0.00  0.00    +0.190 C 
ENDROOT
BRANCH  16   8
ATOM      8  N   UNL     1      -3.000 -10.836  15.296  0.00  0.00    -0.187 N 
ATOM      9  N   UNL     1      -2.046 -10.306  16.067  0.00  0.00    -0.041 NA
ATOM     10  N   UNL     1      -1.540 -10.047  13.912  0.00  0.00    -0.071 NA
ATOM     11  N   UNL     1      -1.152  -9.823  15.212  0.00  0.00    -0.020 NA
ATOM     19  C   UNL     1      -2.690 -10.677  13.988  0.00  0.00    +0.342 A 
BRANCH  19   4
ATOM      4  O   UNL     1      -3.431 -11.091  12.977  0.00  0.00    -0.423 OA
BRANCH   4  23
ATOM     23  C   UNL     1      -3.845 -10.247  11.958  0.00  0.00    +0.132 A 
ATOM     28  C   UNL     1      -3.004 -10.031  10.883  0.00  0.00    +0.046 A 
ATOM     29  C   UNL     1      -5.085  -9.646  12.047  0.00  0.00    +0.046 A 
ATOM     30  C   UNL     1      -3.421  -9.181   9.857  0.00  0.00    +0.004 A 
ATOM     31  C   UNL     1      -5.502  -8.796  11.022  0.00  0.00    +0.004 A 
ATOM     32  C   UNL     1      -4.669  -8.563   9.927  0.00  0.00    +0.000 A 
ENDBRANCH   4  23
ENDBRANCH  19   4
ENDBRANCH  16   8
BRANCH  15   7
ATOM      7  N   UNL     1      -8.063  -9.172  16.028  0.00  0.00    -0.182 NA
ATOM     33  H   UNL     1      -7.906  -8.163  16.133  0.00  0.00    +0.148 HD
BRANCH   7   1
ATOM      1  S   UNL     1      -9.433  -9.742  15.200  0.00  0.00    +0.060 S 
ATOM      5  O   UNL     1     -10.119 -10.722  16.021  0.00  0.00    -0.153 OA
ATOM      6  O   UNL     1      -9.053 -10.068  13.838  0.00  0.00    -0.153 OA
BRANCH   1  20
ATOM     20  C   UNL     1     -10.441  -8.293  15.121  0.00  0.00    +0.123 A 
ATOM     21  C   UNL     1     -11.605  -8.265  14.368  0.00  0.00    +0.078 A 
ATOM     22  C   UNL     1     -10.027  -7.181  15.842  0.00  0.00    +0.030 A 
ATOM     24  C   UNL     1     -12.372  -7.099  14.333  0.00  0.00    +0.021 A 
ATOM     25  C   UNL     1     -10.794  -6.016  15.808  0.00  0.00    +0.002 A 
ATOM     26  C   UNL     1     -11.966  -5.976  15.053  0.00  0.00    +0.001 A 
BRANCH  21  27
ATOM     12  N   UNL     1     -12.412 -10.317  13.008  0.00  0.00    -0.191 NA
ATOM     27  C   UNL     1     -12.051  -9.399  13.616  0.00  0.00    +0.101 C 
ENDBRANCH  21  27
ENDBRANCH   1  20
ENDBRANCH   7   1
ENDBRANCH  15   7
TORSDOF 7
ENDMDL
MODEL 8
REMARK VINA RESULT:      -6.7     15.024     17.158
REMARK  Name = 11886195
REMARK  7 active torsions:
REMARK  status: ('A' for Active; 'I' for Inactive)
REMARK    1  A    between atoms: S_1  and  N_7
REMARK    2  A    between atoms: S_1  and  C_20
REMARK    3  A    between atoms: O_4  and  C_19
REMARK    4  A    between atoms: O_4  and  C_23
REMARK    5  A    between atoms: N_7  and  C_15
REMARK    6  A    between atoms: N_8  and  C_16
REMARK    7  A    between atoms: C_21  and  C_27
REMARK                            x       y       z     vdW  Elec       q    Type
REMARK                         _______ _______ _______ _____ _____    ______ ____
ROOT
ATOM      2  O   UNL     1      14.405   6.720   6.841  0.00  0.00    -0.370 OA
ATOM      3  O   UNL     1      12.842   9.383   6.244  0.00  0.00    -0.370 OA
ATOM     13  C   UNL     1      12.894   8.091   5.618  0.00  0.00    +0.170 C 
ATOM     14  C   UNL     1      14.324   7.596   5.702  0.00  0.00    +0.175 C 
ATOM     15  C   UNL     1      12.102   7.086   6.425  0.00  0.00    +0.133 C 
ATOM     16  C   UNL     1      15.150   8.844   5.952  0.00  0.00    +0.171 C 
ATOM     17  C   UNL     1      13.114   6.634   7.461  0.00  0.00    +0.183 C 
ATOM     18  C   UNL     1      14.162   9.775   6.646  0.00  0.00    +0.190 C 
ENDROOT
BRANCH  16   8
ATOM      8  N   UNL     1      15.748   9.376   4.726  0.00  0.00    -0.187 N 
ATOM      9  N   UNL     1      15.219  10.437   4.109  0.00  0.00    -0.041 NA
ATOM     10  N   UNL     1      17.016   9.711   3.008  0.00  0.00    -0.071 NA
ATOM     11  N   UNL     1      16.001  10.639   3.055  0.00  0.00    -0.020 NA
ATOM     19  C   UNL     1      16.838   8.938   4.055  0.00  0.00    +0.342 A 
BRANCH  19   4
ATOM      4  O   UNL     1      17.583   7.907   4.408  0.00  0.00    -0.423 OA
BRANCH   4  23
ATOM     23  C   UNL     1      18.801   8.050   5.057  0.00  0.00    +0.132 A 
ATOM     28  C   UNL     1      18.828   8.630   6.311  0.00  0.00    +0.046 A 
ATOM     29  C   UNL     1      19.950   7.609   4.431  0.00  0.00    +0.046 A 
ATOM     30  C   UNL     1      20.053   8.775   6.963  0.00  0.00    +0.004 A 
ATOM     31  C   UNL     1      21.175   7.754   5.082  0.00  0.00    +0.004 A 
ATOM     32  C   UNL     1      21.227   8.338   6.348  0.00  0.00    +0.000 A 
ENDBRANCH   4  23
ENDBRANCH  19   4
ENDBRANCH  16   8
BRANCH  15   7
ATOM      7  N   UNL     1      11.668   5.982   5.603  0.00  0.00    -0.182 NA
ATOM     33  H   UNL     1      12.308   5.630   4.882  0.00  0.00    +0.148 HD
BRANCH   7   1
ATOM      1  S   UNL     1      10.028   5.540   5.581  0.00  0.00    +0.060 S 
ATOM      5  O   UNL     1       9.435   5.817   6.875  0.00  0.00    -0.153 OA
ATOM      6  O   UNL     1       9.908   4.220   4.990  0.00  0.00    -0.153 OA
BRANCH   1  20
ATOM     20  C   UNL     1       9.357   6.688   4.416  0.00  0.00    +0.123 A 
ATOM     21  C   UNL     1       9.871   6.796   3.133  0.00  0.00    +0.078 A 
ATOM     22  C   UNL     1       8.296   7.480   4.832  0.00  0.00    +0.030 A 
ATOM     24  C   UNL     1       9.312   7.716   2.244  0.00  0.00    +0.021 A 
ATOM     25  C   UNL     1       7.736   8.399   3.944  0.00  0.00    +0.002 A 
ATOM     26  C   UNL     1       8.245   8.517   2.651  0.00  0.00    +0.001 A 
BRANCH  21  27
ATOM     12  N   UNL     1      11.851   5.338   2.318  0.00  0.00    -0.191 NA
ATOM     27  C   UNL     1      10.966   5.990   2.682  0.00  0.00    +0.101 C 
ENDBRANCH  21  27
ENDBRANCH   1  20
ENDBRANCH   7   1
ENDBRANCH  15   7
TORSDOF 7
ENDMDL
MODEL 9
REMARK VINA RESULT:      -6.6      5.202      8.889
REMARK  Name = 11886195
REMARK  7 active torsions:
REMARK  status: ('A' for Active; 'I' for Inactive)
REMARK    1  A    between atoms: S_1  and  N_7
REMARK    2  A    between atoms: S_1  and  C_20
REMARK    3  A    between atoms: O_4  and  C_19
REMARK    4  A    between atoms: O_4  and  C_23
REMARK    5  A    between atoms: N_7  and  C_15
REMARK    6  A    between atoms: N_8  and  C_16
REMARK    7  A    between atoms: C_21  and  C_27
REMARK                            x       y       z     vdW  Elec       q    Type
REMARK                         _______ _______ _______ _____ _____    ______ ____
ROOT
ATOM      2  O   UNL     1      17.574   6.195  19.926  0.00  0.00    -0.370 OA
ATOM      3  O   UNL     1      17.004   9.116  20.941  0.00  0.00    -0.370 OA
ATOM     13  C   UNL     1      17.265   7.863  21.593  0.00  0.00    +0.170 C 
ATOM     14  C   UNL     1      16.580   6.775  20.790  0.00  0.00    +0.175 C 
ATOM     15  C   UNL     1      18.736   7.524  21.506  0.00  0.00    +0.133 C 
ATOM     16  C   UNL     1      15.540   7.504  19.961  0.00  0.00    +0.171 C 
ATOM     17  C   UNL     1      18.831   6.847  20.150  0.00  0.00    +0.183 C 
ATOM     18  C   UNL     1      16.130   8.903  19.823  0.00  0.00    +0.190 C 
ENDROOT
BRANCH  16   8
ATOM      8  N   UNL     1      14.205   7.451  20.562  0.00  0.00    -0.187 N 
ATOM      9  N   UNL     1      14.018   7.762  21.848  0.00  0.00    -0.041 NA
ATOM     10  N   UNL     1      12.084   7.202  20.893  0.00  0.00    -0.071 NA
ATOM     11  N   UNL     1      12.715   7.608  22.047  0.00  0.00    -0.020 NA
ATOM     19  C   UNL     1      13.028   7.112  19.985  0.00  0.00    +0.342 A 
BRANCH  19   4
ATOM      4  O   UNL     1      12.878   6.753  18.724  0.00  0.00    -0.423 OA
BRANCH   4  23
ATOM     23  C   UNL     1      12.740   7.674  17.696  0.00  0.00    +0.132 A 
ATOM     28  C   UNL     1      13.854   8.026  16.958  0.00  0.00    +0.046 A 
ATOM     29  C   UNL     1      11.494   8.212  17.439  0.00  0.00    +0.046 A 
ATOM     30  C   UNL     1      13.716   8.954  15.924  0.00  0.00    +0.004 A 
ATOM     31  C   UNL     1      11.356   9.138  16.405  0.00  0.00    +0.004 A 
ATOM     32  C   UNL     1      12.467   9.510  15.648  0.00  0.00    +0.000 A 
ENDBRANCH   4  23
ENDBRANCH  19   4
ENDBRANCH  16   8
BRANCH  15   7
ATOM      7  N   UNL     1      19.128   6.626  22.565  0.00  0.00    -0.182 NA
ATOM     33  H   UNL     1      18.430   5.971  22.933  0.00  0.00    +0.148 HD
BRANCH   7   1
ATOM      1  S   UNL     1      20.569   6.909  23.421  0.00  0.00    +0.060 S 
ATOM      5  O   UNL     1      20.337   6.702  24.838  0.00  0.00    -0.153 OA
ATOM      6  O   UNL     1      21.156   8.149  22.949  0.00  0.00    -0.153 OA
BRANCH   1  20
ATOM     20  C   UNL     1      21.601   5.597  22.840  0.00  0.00    +0.123 A 
ATOM     21  C   UNL     1      22.878   5.407  23.345  0.00  0.00    +0.078 A 
ATOM     22  C   UNL     1      21.087   4.761  21.858  0.00  0.00    +0.030 A 
ATOM     24  C   UNL     1      23.661   4.358  22.858  0.00  0.00    +0.021 A 
ATOM     25  C   UNL     1      21.869   3.712  21.372  0.00  0.00    +0.002 A 
ATOM     26  C   UNL     1      23.155   3.511  21.872  0.00  0.00    +0.001 A 
BRANCH  21  27
ATOM     12  N   UNL     1      23.875   6.944  25.176  0.00  0.00    -0.191 NA
ATOM     27  C   UNL     1      23.429   6.257  24.357  0.00  0.00    +0.101 C 
ENDBRANCH  21  27
ENDBRANCH   1  20
ENDBRANCH   7   1
ENDBRANCH  15   7
TORSDOF 7
ENDMDL
MODEL 10
REMARK VINA RESULT:      -6.6     15.891     19.571
REMARK  Name = 11886195
REMARK  7 active torsions:
REMARK  status: ('A' for Active; 'I' for Inactive)
REMARK    1  A    between atoms: S_1  and  N_7
REMARK    2  A    between atoms: S_1  and  C_20
REMARK    3  A    between atoms: O_4  and  C_19
REMARK    4  A    between atoms: O_4  and  C_23
REMARK    5  A    between atoms: N_7  and  C_15
REMARK    6  A    between atoms: N_8  and  C_16
REMARK    7  A    between atoms: C_21  and  C_27
REMARK                            x       y       z     vdW  Elec       q    Type
REMARK                         _______ _______ _______ _____ _____    ______ ____
ROOT
ATOM      2  O   UNL     1       9.494   7.226   2.758  0.00  0.00    -0.370 OA
ATOM      3  O   UNL     1      12.313   8.389   1.989  0.00  0.00    -0.370 OA
ATOM     13  C   UNL     1      11.761   7.065   2.056  0.00  0.00    +0.170 C 
ATOM     14  C   UNL     1      10.829   7.014   3.251  0.00  0.00    +0.175 C 
ATOM     15  C   UNL     1      10.859   6.813   0.867  0.00  0.00    +0.133 C 
ATOM     16  C   UNL     1      11.251   8.185   4.118  0.00  0.00    +0.171 C 
ATOM     17  C   UNL     1       9.539   7.396   1.335  0.00  0.00    +0.183 C 
ATOM     18  C   UNL     1      11.856   9.157   3.112  0.00  0.00    +0.190 C 
ENDROOT
BRANCH  16   8
ATOM      8  N   UNL     1      12.144   7.784   5.208  0.00  0.00    -0.187 N 
ATOM      9  N   UNL     1      13.279   8.450   5.445  0.00  0.00    -0.041 NA
ATOM     10  N   UNL     1      13.041   6.773   6.894  0.00  0.00    -0.071 NA
ATOM     11  N   UNL     1      13.826   7.825   6.481  0.00  0.00    -0.020 NA
ATOM     19  C   UNL     1      12.003   6.767   6.089  0.00  0.00    +0.342 A 
BRANCH  19   4
ATOM      4  O   UNL     1      10.988   5.923   6.118  0.00  0.00    -0.423 OA
BRANCH   4  23
ATOM     23  C   UNL     1      10.281   5.643   7.278  0.00  0.00    +0.132 A 
ATOM     28  C   UNL     1       9.677   6.680   7.962  0.00  0.00    +0.046 A 
ATOM     29  C   UNL     1      10.201   4.335   7.715  0.00  0.00    +0.046 A 
ATOM     30  C   UNL     1       8.967   6.398   9.130  0.00  0.00    +0.004 A 
ATOM     31  C   UNL     1       9.490   4.053   8.881  0.00  0.00    +0.004 A 
ATOM     32  C   UNL     1       8.873   5.084   9.589  0.00  0.00    +0.000 A 
ENDBRANCH   4  23
ENDBRANCH  19   4
ENDBRANCH  16   8
BRANCH  15   7
ATOM      7  N   UNL     1      10.739   5.401   0.594  0.00  0.00    -0.182 NA
ATOM     33  H   UNL     1      10.412   4.785   1.347  0.00  0.00    +0.148 HD
BRANCH   7   1
ATOM      1  S   UNL     1      11.469   4.745  -0.792  0.00  0.00    +0.060 S 
ATOM      5  O   UNL     1      11.591   5.775  -1.807  0.00  0.00    -0.153 OA
ATOM      6  O   UNL     1      10.825   3.483  -1.106  0.00  0.00    -0.153 OA
BRANCH   1  20
ATOM     20  C   UNL     1      13.091   4.363  -0.204  0.00  0.00    +0.123 A 
ATOM     21  C   UNL     1      13.290   3.804   1.050  0.00  0.00    +0.078 A 
ATOM     22  C   UNL     1      14.162   4.642  -1.042  0.00  0.00    +0.030 A 
ATOM     24  C   UNL     1      14.588   3.518   1.476  0.00  0.00    +0.021 A 
ATOM     25  C   UNL     1      15.459   4.356  -0.617  0.00  0.00    +0.002 A 
ATOM     26  C   UNL     1      15.672   3.794   0.642  0.00  0.00    +0.001 A 
BRANCH  21  27
ATOM     12  N   UNL     1      11.320   3.269   2.644  0.00  0.00    -0.191 NA
ATOM     27  C   UNL     1      12.201   3.508   1.931  0.00  0.00    +0.101 C 
ENDBRANCH  21  27
ENDBRANCH   1  20
ENDBRANCH   7   1
ENDBRANCH  15   7
TORSDOF 7
ENDMDL
