MODEL 1
REMARK VINA RESULT:      -7.3      0.000      0.000
REMARK  Name = 28990679
REMARK  4 active torsions:
REMARK  status: ('A' for Active; 'I' for Inactive)
REMARK    1  A    between atoms: N_2  and  C_13
REMARK    2  A    between atoms: C_13  and  C_18
REMARK    3  A    between atoms: C_16  and  C_19
REMARK    4  A    between atoms: C_27  and  C_33
REMARK                            x       y       z     vdW  Elec       q    Type
REMARK                         _______ _______ _______ _____ _____    ______ ____
ROOT
ATOM      1  O   UNL     1      12.357   7.382   4.687  0.00  0.00    -0.267 OA
ATOM      2  N   UNL     1      12.074   6.451  -0.233  0.00  0.00    -0.297 NA
ATOM      3  N   UNL     1      12.496   5.912   2.883  0.00  0.00    -0.311 N 
ATOM      6  C   UNL     1      14.231   6.173   1.015  0.00  0.00    +0.024 C 
ATOM      7  C   UNL     1      12.636   4.318   0.939  0.00  0.00    +0.050 C 
ATOM      8  C   UNL     1      14.123   4.658   0.904  0.00  0.00    +0.017 C 
ATOM      9  C   UNL     1      13.486   6.845  -0.159  0.00  0.00    +0.090 C 
ATOM     10  C   UNL     1      11.924   4.990  -0.257  0.00  0.00    +0.094 C 
ATOM     11  C   UNL     1      13.689   6.609   2.383  0.00  0.00    +0.130 C 
ATOM     12  C   UNL     1      12.011   4.766   2.248  0.00  0.00    +0.026 A 
ATOM     14  C   UNL     1      10.990   4.080   2.783  0.00  0.00    +0.022 A 
ATOM     15  C   UNL     1      11.936   6.395   4.082  0.00  0.00    +0.259 A 
ATOM     16  C   UNL     1      10.769   5.625   4.640  0.00  0.00    +0.047 A 
ATOM     17  C   UNL     1      10.358   4.523   3.995  0.00  0.00    +0.015 A 
ENDROOT
BRANCH  16  19
ATOM     19  C   UNL     1      10.078   6.067   5.864  0.00  0.00    -0.011 A 
ATOM     23  C   UNL     1      10.290   5.397   7.068  0.00  0.00    +0.027 A 
ATOM     24  C   UNL     1       9.210   7.158   5.816  0.00  0.00    +0.009 A 
ATOM     27  C   UNL     1       9.636   5.818   8.226  0.00  0.00    +0.052 A 
ATOM     28  C   UNL     1       8.555   7.579   6.974  0.00  0.00    +0.002 A 
ATOM     30  C   UNL     1       8.768   6.909   8.179  0.00  0.00    +0.019 A 
BRANCH  27  33
ATOM      5  N   UNL     1      10.031   4.574  10.463  0.00  0.00    -0.191 NA
ATOM     33  C   UNL     1       9.853   5.131   9.461  0.00  0.00    +0.099 C 
ENDBRANCH  27  33
ENDBRANCH  16  19
BRANCH   2  13
ATOM     13  C   UNL     1      11.419   7.064  -1.386  0.00  0.00    +0.121 C 
BRANCH  13  18
ATOM      4  N   UNL     1       8.243   9.105  -1.646  0.00  0.00    -0.255 NA
ATOM     18  C   UNL     1      10.181   7.825  -0.989  0.00  0.00    -0.015 A 
ATOM     20  C   UNL     1       9.819   7.962   0.343  0.00  0.00    +0.016 A 
ATOM     21  C   UNL     1       9.367   8.410  -1.936  0.00  0.00    +0.116 A 
ATOM     22  C   UNL     1       8.662   8.675   0.689  0.00  0.00    +0.001 A 
ATOM     25  C   UNL     1       7.894   9.238  -0.352  0.00  0.00    +0.071 A 
ATOM     26  C   UNL     1       8.267   8.833   2.028  0.00  0.00    +0.010 A 
ATOM     29  C   UNL     1       6.745   9.945  -0.008  0.00  0.00    +0.028 A 
ATOM     31  C   UNL     1       7.114   9.546   2.343  0.00  0.00    +0.001 A 
ATOM     32  C   UNL     1       6.352  10.103   1.323  0.00  0.00    +0.002 A 
ENDBRANCH  13  18
ENDBRANCH   2  13
TORSDOF 4
ENDMDL
MODEL 2
REMARK VINA RESULT:      -7.3     23.242     26.614
REMARK  Name = 28990679
REMARK  4 active torsions:
REMARK  status: ('A' for Active; 'I' for Inactive)
REMARK    1  A    between atoms: N_2  and  C_13
REMARK    2  A    between atoms: C_13  and  C_18
REMARK    3  A    between atoms: C_16  and  C_19
REMARK    4  A    between atoms: C_27  and  C_33
REMARK                            x       y       z     vdW  Elec       q    Type
REMARK                         _______ _______ _______ _____ _____    ______ ____
ROOT
ATOM      1  O   UNL     1      -5.976 -11.775  10.954  0.00  0.00    -0.267 OA
ATOM      2  N   UNL     1      -3.140 -11.031  15.023  0.00  0.00    -0.297 NA
ATOM      3  N   UNL     1      -3.887 -11.621  11.978  0.00  0.00    -0.311 N 
ATOM      6  C   UNL     1      -3.127 -13.231  13.821  0.00  0.00    +0.024 C 
ATOM      7  C   UNL     1      -1.630 -11.443  13.077  0.00  0.00    +0.050 C 
ATOM      8  C   UNL     1      -1.730 -12.952  13.284  0.00  0.00    +0.017 C 
ATOM      9  C   UNL     1      -3.343 -12.479  15.152  0.00  0.00    +0.090 C 
ATOM     10  C   UNL     1      -1.832 -10.722  14.429  0.00  0.00    +0.094 C 
ATOM     11  C   UNL     1      -4.156 -12.842  12.750  0.00  0.00    +0.130 C 
ATOM     12  C   UNL     1      -2.654 -10.969  12.064  0.00  0.00    +0.026 A 
ATOM     14  C   UNL     1      -2.389  -9.922  11.268  0.00  0.00    +0.022 A 
ATOM     15  C   UNL     1      -4.891 -11.206  11.081  0.00  0.00    +0.259 A 
ATOM     16  C   UNL     1      -4.577 -10.007  10.226  0.00  0.00    +0.047 A 
ATOM     17  C   UNL     1      -3.371  -9.433  10.340  0.00  0.00    +0.015 A 
ENDROOT
BRANCH  16  19
ATOM     19  C   UNL     1      -5.571  -9.460   9.285  0.00  0.00    -0.011 A 
ATOM     23  C   UNL     1      -5.639  -9.943   7.979  0.00  0.00    +0.027 A 
ATOM     24  C   UNL     1      -6.446  -8.456   9.704  0.00  0.00    +0.009 A 
ATOM     27  C   UNL     1      -6.581  -9.424   7.091  0.00  0.00    +0.052 A 
ATOM     28  C   UNL     1      -7.388  -7.937   8.816  0.00  0.00    +0.002 A 
ATOM     30  C   UNL     1      -7.455  -8.422   7.509  0.00  0.00    +0.019 A 
BRANCH  27  33
ATOM      5  N   UNL     1      -6.707 -10.321   4.665  0.00  0.00    -0.191 NA
ATOM     33  C   UNL     1      -6.650  -9.919   5.751  0.00  0.00    +0.099 C 
ENDBRANCH  27  33
ENDBRANCH  16  19
BRANCH   2  13
ATOM     13  C   UNL     1      -3.301 -10.363  16.312  0.00  0.00    +0.121 C 
BRANCH  13  18
ATOM      4  N   UNL     1      -6.976  -9.464  16.339  0.00  0.00    -0.255 NA
ATOM     18  C   UNL     1      -4.745 -10.297  16.733  0.00  0.00    -0.015 A 
ATOM     20  C   UNL     1      -5.197 -10.969  17.859  0.00  0.00    +0.016 A 
ATOM     21  C   UNL     1      -5.667  -9.564  16.014  0.00  0.00    +0.116 A 
ATOM     22  C   UNL     1      -6.546 -10.892  18.232  0.00  0.00    +0.001 A 
ATOM     25  C   UNL     1      -7.412 -10.117  17.432  0.00  0.00    +0.071 A 
ATOM     26  C   UNL     1      -7.036 -11.561  19.366  0.00  0.00    +0.010 A 
ATOM     29  C   UNL     1      -8.752 -10.041  17.803  0.00  0.00    +0.028 A 
ATOM     31  C   UNL     1      -8.380 -11.467  19.714  0.00  0.00    +0.001 A 
ATOM     32  C   UNL     1      -9.239 -10.706  18.930  0.00  0.00    +0.002 A 
ENDBRANCH  13  18
ENDBRANCH   2  13
TORSDOF 4
ENDMDL
MODEL 3
REMARK VINA RESULT:      -7.1     14.224     18.654
REMARK  Name = 28990679
REMARK  4 active torsions:
REMARK  status: ('A' for Active; 'I' for Inactive)
REMARK    1  A    between atoms: N_2  and  C_13
REMARK    2  A    between atoms: C_13  and  C_18
REMARK    3  A    between atoms: C_16  and  C_19
REMARK    4  A    between atoms: C_27  and  C_33
REMARK                            x       y       z     vdW  Elec       q    Type
REMARK                         _______ _______ _______ _____ _____    ______ ____
ROOT
ATOM      1  O   UNL     1      13.826  12.036  22.193  0.00  0.00    -0.267 OA
ATOM      2  N   UNL     1      13.537   8.077  19.127  0.00  0.00    -0.297 NA
ATOM      3  N   UNL     1      13.469   9.760  21.837  0.00  0.00    -0.311 N 
ATOM      6  C   UNL     1      15.285   8.201  20.921  0.00  0.00    +0.024 C 
ATOM      7  C   UNL     1      13.072   7.303  21.456  0.00  0.00    +0.050 C 
ATOM      8  C   UNL     1      14.564   7.128  21.726  0.00  0.00    +0.017 C 
ATOM      9  C   UNL     1      14.975   8.033  19.417  0.00  0.00    +0.090 C 
ATOM     10  C   UNL     1      12.793   7.112  19.948  0.00  0.00    +0.094 C 
ATOM     11  C   UNL     1      14.877   9.581  21.456  0.00  0.00    +0.130 C 
ATOM     12  C   UNL     1      12.598   8.670  21.914  0.00  0.00    +0.026 A 
ATOM     14  C   UNL     1      11.348   8.838  22.372  0.00  0.00    +0.022 A 
ATOM     15  C   UNL     1      13.076  11.059  22.216  0.00  0.00    +0.259 A 
ATOM     16  C   UNL     1      11.658  11.222  22.692  0.00  0.00    +0.047 A 
ATOM     17  C   UNL     1      10.873  10.137  22.760  0.00  0.00    +0.015 A 
ENDROOT
BRANCH  16  19
ATOM     19  C   UNL     1      11.127  12.544  23.070  0.00  0.00    -0.011 A 
ATOM     23  C   UNL     1      11.275  13.010  24.375  0.00  0.00    +0.027 A 
ATOM     24  C   UNL     1      10.476  13.330  22.118  0.00  0.00    +0.009 A 
ATOM     27  C   UNL     1      10.773  14.262  24.730  0.00  0.00    +0.052 A 
ATOM     28  C   UNL     1       9.974  14.582  22.473  0.00  0.00    +0.002 A 
ATOM     30  C   UNL     1      10.123  15.048  23.780  0.00  0.00    +0.019 A 
BRANCH  27  33
ATOM      5  N   UNL     1      11.045  15.128  27.156  0.00  0.00    -0.191 NA
ATOM     33  C   UNL     1      10.924  14.740  26.069  0.00  0.00    +0.099 C 
ENDBRANCH  27  33
ENDBRANCH  16  19
BRANCH   2  13
ATOM     13  C   UNL     1      13.282   7.862  17.705  0.00  0.00    +0.121 C 
BRANCH  13  18
ATOM      4  N   UNL     1      14.737   9.788  14.791  0.00  0.00    -0.255 NA
ATOM     18  C   UNL     1      13.781   9.009  16.866  0.00  0.00    -0.015 A 
ATOM     20  C   UNL     1      13.760  10.310  17.344  0.00  0.00    +0.016 A 
ATOM     21  C   UNL     1      14.274   8.802  15.594  0.00  0.00    +0.116 A 
ATOM     22  C   UNL     1      14.230  11.362  16.545  0.00  0.00    +0.001 A 
ATOM     25  C   UNL     1      14.716  11.051  15.258  0.00  0.00    +0.071 A 
ATOM     26  C   UNL     1      14.223  12.692  16.999  0.00  0.00    +0.010 A 
ATOM     29  C   UNL     1      15.182  12.096  14.464  0.00  0.00    +0.028 A 
ATOM     31  C   UNL     1      14.696  13.716  16.184  0.00  0.00    +0.001 A 
ATOM     32  C   UNL     1      15.176  13.418  14.915  0.00  0.00    +0.002 A 
ENDBRANCH  13  18
ENDBRANCH   2  13
TORSDOF 4
ENDMDL
MODEL 4
REMARK VINA RESULT:      -7.1     25.691     28.969
REMARK  Name = 28990679
REMARK  4 active torsions:
REMARK  status: ('A' for Active; 'I' for Inactive)
REMARK    1  A    between atoms: N_2  and  C_13
REMARK    2  A    between atoms: C_13  and  C_18
REMARK    3  A    between atoms: C_16  and  C_19
REMARK    4  A    between atoms: C_27  and  C_33
REMARK                            x       y       z     vdW  Elec       q    Type
REMARK                         _______ _______ _______ _____ _____    ______ ____
ROOT
ATOM      1  O   UNL     1     -14.594   9.738  20.153  0.00  0.00    -0.267 OA
ATOM      2  N   UNL     1     -11.566   9.361  16.172  0.00  0.00    -0.297 NA
ATOM      3  N   UNL     1     -12.464   9.519  19.229  0.00  0.00    -0.311 N 
ATOM      6  C   UNL     1     -11.411  11.316  17.735  0.00  0.00    +0.024 C 
ATOM      7  C   UNL     1     -10.164   9.270  18.237  0.00  0.00    +0.050 C 
ATOM      8  C   UNL     1     -10.092  10.794  18.289  0.00  0.00    +0.017 C 
ATOM      9  C   UNL     1     -11.608  10.824  16.285  0.00  0.00    +0.090 C 
ATOM     10  C   UNL     1     -10.343   8.811  16.772  0.00  0.00    +0.094 C 
ATOM     11  C   UNL     1     -12.549  10.874  18.667  0.00  0.00    +0.130 C 
ATOM     12  C   UNL     1     -11.303   8.754  19.097  0.00  0.00    +0.026 A 
ATOM     14  C   UNL     1     -11.205   7.566  19.714  0.00  0.00    +0.022 A 
ATOM     15  C   UNL     1     -13.567   9.078  19.987  0.00  0.00    +0.259 A 
ATOM     16  C   UNL     1     -13.442   7.726  20.637  0.00  0.00    +0.047 A 
ATOM     17  C   UNL     1     -12.296   7.045  20.489  0.00  0.00    +0.015 A 
ENDROOT
BRANCH  16  19
ATOM     19  C   UNL     1     -14.552   7.148  21.415  0.00  0.00    -0.011 A 
ATOM     23  C   UNL     1     -15.366   6.168  20.850  0.00  0.00    +0.027 A 
ATOM     24  C   UNL     1     -14.786   7.583  22.720  0.00  0.00    +0.009 A 
ATOM     27  C   UNL     1     -16.415   5.621  21.588  0.00  0.00    +0.052 A 
ATOM     28  C   UNL     1     -15.835   7.036  23.459  0.00  0.00    +0.002 A 
ATOM     30  C   UNL     1     -16.650   6.055  22.893  0.00  0.00    +0.019 A 
BRANCH  27  33
ATOM      5  N   UNL     1     -17.930   3.802  20.537  0.00  0.00    -0.191 NA
ATOM     33  C   UNL     1     -17.252   4.617  21.009  0.00  0.00    +0.099 C 
ENDBRANCH  27  33
ENDBRANCH  16  19
BRANCH   2  13
ATOM     13  C   UNL     1     -11.702   8.939  14.780  0.00  0.00    +0.121 C 
BRANCH  13  18
ATOM      4  N   UNL     1     -14.199   6.574  13.201  0.00  0.00    -0.255 NA
ATOM     18  C   UNL     1     -12.960   8.141  14.557  0.00  0.00    -0.015 A 
ATOM     20  C   UNL     1     -14.021   8.209  15.447  0.00  0.00    +0.016 A 
ATOM     21  C   UNL     1     -13.097   7.316  13.459  0.00  0.00    +0.116 A 
ATOM     22  C   UNL     1     -15.182   7.457  15.217  0.00  0.00    +0.001 A 
ATOM     25  C   UNL     1     -15.229   6.642  14.066  0.00  0.00    +0.071 A 
ATOM     26  C   UNL     1     -16.275   7.503  16.099  0.00  0.00    +0.010 A 
ATOM     29  C   UNL     1     -16.381   5.896  13.839  0.00  0.00    +0.028 A 
ATOM     31  C   UNL     1     -17.415   6.746  15.847  0.00  0.00    +0.001 A 
ATOM     32  C   UNL     1     -17.468   5.941  14.715  0.00  0.00    +0.002 A 
ENDBRANCH  13  18
ENDBRANCH   2  13
TORSDOF 4
ENDMDL
MODEL 5
REMARK VINA RESULT:      -7.0      2.195      3.296
REMARK  Name = 28990679
REMARK  4 active torsions:
REMARK  status: ('A' for Active; 'I' for Inactive)
REMARK    1  A    between atoms: N_2  and  C_13
REMARK    2  A    between atoms: C_13  and  C_18
REMARK    3  A    between atoms: C_16  and  C_19
REMARK    4  A    between atoms: C_27  and  C_33
REMARK                            x       y       z     vdW  Elec       q    Type
REMARK                         _______ _______ _______ _____ _____    ______ ____
ROOT
ATOM      1  O   UNL     1      12.375   7.565   2.900  0.00  0.00    -0.267 OA
ATOM      2  N   UNL     1      13.396   4.534  -0.962  0.00  0.00    -0.297 NA
ATOM      3  N   UNL     1      12.913   5.462   2.051  0.00  0.00    -0.311 N 
ATOM      6  C   UNL     1      15.107   4.989   0.814  0.00  0.00    +0.024 C 
ATOM      7  C   UNL     1      13.483   3.186   1.139  0.00  0.00    +0.050 C 
ATOM      8  C   UNL     1      14.941   3.578   1.363  0.00  0.00    +0.017 C 
ATOM      9  C   UNL     1      14.756   5.016  -0.689  0.00  0.00    +0.090 C 
ATOM     10  C   UNL     1      13.169   3.206  -0.374  0.00  0.00    +0.094 C 
ATOM     11  C   UNL     1      14.238   5.947   1.640  0.00  0.00    +0.130 C 
ATOM     12  C   UNL     1      12.553   4.122   1.886  0.00  0.00    +0.026 A 
ATOM     14  C   UNL     1      11.383   3.675   2.370  0.00  0.00    +0.022 A 
ATOM     15  C   UNL     1      12.076   6.386   2.707  0.00  0.00    +0.259 A 
ATOM     16  C   UNL     1      10.756   5.863   3.208  0.00  0.00    +0.047 A 
ATOM     17  C   UNL     1      10.472   4.564   3.035  0.00  0.00    +0.015 A 
ENDROOT
BRANCH  16  19
ATOM     19  C   UNL     1       9.784   6.753   3.868  0.00  0.00    -0.011 A 
ATOM     23  C   UNL     1       9.716   6.805   5.259  0.00  0.00    +0.027 A 
ATOM     24  C   UNL     1       8.931   7.543   3.097  0.00  0.00    +0.009 A 
ATOM     27  C   UNL     1       8.796   7.648   5.882  0.00  0.00    +0.052 A 
ATOM     28  C   UNL     1       8.010   8.387   3.719  0.00  0.00    +0.002 A 
ATOM     30  C   UNL     1       7.943   8.439   5.112  0.00  0.00    +0.019 A 
BRANCH  27  33
ATOM      5  N   UNL     1       8.667   7.747   8.466  0.00  0.00    -0.191 NA
ATOM     33  C   UNL     1       8.725   7.702   7.309  0.00  0.00    +0.099 C 
ENDBRANCH  27  33
ENDBRANCH  16  19
BRANCH   2  13
ATOM     13  C   UNL     1      13.122   4.525  -2.397  0.00  0.00    +0.121 C 
BRANCH  13  18
ATOM      4  N   UNL     1       9.591   4.170  -3.709  0.00  0.00    -0.255 NA
ATOM     18  C   UNL     1      11.678   4.833  -2.693  0.00  0.00    -0.015 A 
ATOM     20  C   UNL     1      11.090   6.011  -2.256  0.00  0.00    +0.016 A 
ATOM     21  C   UNL     1      10.892   3.953  -3.410  0.00  0.00    +0.116 A 
ATOM     22  C   UNL     1       9.744   6.275  -2.545  0.00  0.00    +0.001 A 
ATOM     25  C   UNL     1       9.022   5.315  -3.284  0.00  0.00    +0.071 A 
ATOM     26  C   UNL     1       9.118   7.459  -2.117  0.00  0.00    +0.010 A 
ATOM     29  C   UNL     1       7.685   5.578  -3.570  0.00  0.00    +0.028 A 
ATOM     31  C   UNL     1       7.780   7.696  -2.418  0.00  0.00    +0.001 A 
ATOM     32  C   UNL     1       7.063   6.754  -3.145  0.00  0.00    +0.002 A 
ENDBRANCH  13  18
ENDBRANCH   2  13
TORSDOF 4
ENDMDL
MODEL 6
REMARK VINA RESULT:      -7.0      2.140      6.394
REMARK  Name = 28990679
REMARK  4 active torsions:
REMARK  status: ('A' for Active; 'I' for Inactive)
REMARK    1  A    between atoms: N_2  and  C_13
REMARK    2  A    between atoms: C_13  and  C_18
REMARK    3  A    between atoms: C_16  and  C_19
REMARK    4  A    between atoms: C_27  and  C_33
REMARK                            x       y       z     vdW  Elec       q    Type
REMARK                         _______ _______ _______ _____ _____    ______ ____
ROOT
ATOM      1  O   UNL     1      10.320   4.007   3.448  0.00  0.00    -0.267 OA
ATOM      2  N   UNL     1       8.848   8.233   5.711  0.00  0.00    -0.297 NA
ATOM      3  N   UNL     1      10.734   5.799   4.881  0.00  0.00    -0.311 N 
ATOM      6  C   UNL     1       9.406   6.181   7.039  0.00  0.00    +0.024 C 
ATOM      7  C   UNL     1      11.191   7.737   6.420  0.00  0.00    +0.050 C 
ATOM      8  C   UNL     1      10.690   6.830   7.540  0.00  0.00    +0.017 C 
ATOM      9  C   UNL     1       8.361   7.266   6.702  0.00  0.00    +0.090 C 
ATOM     10  C   UNL     1      10.131   8.822   6.120  0.00  0.00    +0.094 C 
ATOM     11  C   UNL     1       9.739   5.290   5.835  0.00  0.00    +0.130 C 
ATOM     12  C   UNL     1      11.496   6.933   5.170  0.00  0.00    +0.026 A 
ATOM     14  C   UNL     1      12.477   7.317   4.338  0.00  0.00    +0.022 A 
ATOM     15  C   UNL     1      10.949   5.031   3.719  0.00  0.00    +0.259 A 
ATOM     16  C   UNL     1      12.032   5.505   2.788  0.00  0.00    +0.047 A 
ATOM     17  C   UNL     1      12.741   6.592   3.126  0.00  0.00    +0.015 A 
ENDROOT
BRANCH  16  19
ATOM     19  C   UNL     1      12.311   4.804   1.522  0.00  0.00    -0.011 A 
ATOM     23  C   UNL     1      11.361   4.799   0.501  0.00  0.00    +0.027 A 
ATOM     24  C   UNL     1      13.528   4.145   1.346  0.00  0.00    +0.009 A 
ATOM     27  C   UNL     1      11.627   4.136  -0.696  0.00  0.00    +0.052 A 
ATOM     28  C   UNL     1      13.794   3.481   0.148  0.00  0.00    +0.002 A 
ATOM     30  C   UNL     1      12.844   3.476  -0.873  0.00  0.00    +0.019 A 
BRANCH  27  33
ATOM      5  N   UNL     1       9.863   4.124  -2.592  0.00  0.00    -0.191 NA
ATOM     33  C   UNL     1      10.654   4.130  -1.743  0.00  0.00    +0.099 C 
ENDBRANCH  27  33
ENDBRANCH  16  19
BRANCH   2  13
ATOM     13  C   UNL     1       7.852   9.272   5.460  0.00  0.00    +0.121 C 
BRANCH  13  18
ATOM      4  N   UNL     1       5.917  10.011   2.294  0.00  0.00    -0.255 NA
ATOM     18  C   UNL     1       7.500   9.370   3.999  0.00  0.00    -0.015 A 
ATOM     20  C   UNL     1       8.378   8.932   3.018  0.00  0.00    +0.016 A 
ATOM     21  C   UNL     1       6.293   9.896   3.588  0.00  0.00    +0.116 A 
ATOM     22  C   UNL     1       8.028   9.033   1.664  0.00  0.00    +0.001 A 
ATOM     25  C   UNL     1       6.770   9.586   1.343  0.00  0.00    +0.071 A 
ATOM     26  C   UNL     1       8.893   8.599   0.646  0.00  0.00    +0.010 A 
ATOM     29  C   UNL     1       6.423   9.685  -0.002  0.00  0.00    +0.028 A 
ATOM     31  C   UNL     1       8.520   8.711  -0.690  0.00  0.00    +0.001 A 
ATOM     32  C   UNL     1       7.283   9.255  -1.014  0.00  0.00    +0.002 A 
ENDBRANCH  13  18
ENDBRANCH   2  13
TORSDOF 4
ENDMDL
MODEL 7
REMARK VINA RESULT:      -7.0     14.442     19.237
REMARK  Name = 28990679
REMARK  4 active torsions:
REMARK  status: ('A' for Active; 'I' for Inactive)
REMARK    1  A    between atoms: N_2  and  C_13
REMARK    2  A    between atoms: C_13  and  C_18
REMARK    3  A    between atoms: C_16  and  C_19
REMARK    4  A    between atoms: C_27  and  C_33
REMARK                            x       y       z     vdW  Elec       q    Type
REMARK                         _______ _______ _______ _____ _____    ______ ____
ROOT
ATOM      1  O   UNL     1      14.873  10.330  22.774  0.00  0.00    -0.267 OA
ATOM      2  N   UNL     1      12.049   8.514  19.048  0.00  0.00    -0.297 NA
ATOM      3  N   UNL     1      13.017   9.135  22.023  0.00  0.00    -0.311 N 
ATOM      6  C   UNL     1      13.220   6.981  20.650  0.00  0.00    +0.024 C 
ATOM      7  C   UNL     1      11.005   7.853  21.219  0.00  0.00    +0.050 C 
ATOM      8  C   UNL     1      11.894   6.615  21.301  0.00  0.00    +0.017 C 
ATOM      9  C   UNL     1      12.992   7.397  19.181  0.00  0.00    +0.090 C 
ATOM     10  C   UNL     1      10.782   8.232  19.737  0.00  0.00    +0.094 C 
ATOM     11  C   UNL     1      13.890   8.086  21.478  0.00  0.00    +0.130 C 
ATOM     12  C   UNL     1      11.626   9.012  21.975  0.00  0.00    +0.026 A 
ATOM     14  C   UNL     1      10.848   9.925  22.578  0.00  0.00    +0.022 A 
ATOM     15  C   UNL     1      13.651  10.207  22.682  0.00  0.00    +0.259 A 
ATOM     16  C   UNL     1      12.752  11.233  23.318  0.00  0.00    +0.047 A 
ATOM     17  C   UNL     1      11.424  11.054  23.254  0.00  0.00    +0.015 A 
ENDROOT
BRANCH  16  19
ATOM     19  C   UNL     1      13.307  12.420  23.994  0.00  0.00    -0.011 A 
ATOM     23  C   UNL     1      13.481  12.420  25.377  0.00  0.00    +0.027 A 
ATOM     24  C   UNL     1      13.658  13.544  23.246  0.00  0.00    +0.009 A 
ATOM     27  C   UNL     1      14.008  13.543  26.014  0.00  0.00    +0.052 A 
ATOM     28  C   UNL     1      14.184  14.669  23.883  0.00  0.00    +0.002 A 
ATOM     30  C   UNL     1      14.359  14.667  25.267  0.00  0.00    +0.019 A 
BRANCH  27  33
ATOM      5  N   UNL     1      14.330  13.545  28.584  0.00  0.00    -0.191 NA
ATOM     33  C   UNL     1      14.187  13.544  27.432  0.00  0.00    +0.099 C 
ENDBRANCH  27  33
ENDBRANCH  16  19
BRANCH   2  13
ATOM     13  C   UNL     1      11.819   8.841  17.643  0.00  0.00    +0.121 C 
BRANCH  13  18
ATOM      4  N   UNL     1      14.484   9.940  15.192  0.00  0.00    -0.255 NA
ATOM     18  C   UNL     1      12.978   9.596  17.046  0.00  0.00    -0.015 A 
ATOM     20  C   UNL     1      13.611  10.611  17.748  0.00  0.00    +0.016 A 
ATOM     21  C   UNL     1      13.448   9.301  15.783  0.00  0.00    +0.116 A 
ATOM     22  C   UNL     1      14.688  11.299  17.171  0.00  0.00    +0.001 A 
ATOM     25  C   UNL     1      15.097  10.925  15.874  0.00  0.00    +0.071 A 
ATOM     26  C   UNL     1      15.351  12.333  17.854  0.00  0.00    +0.010 A 
ATOM     29  C   UNL     1      16.167  11.609  15.303  0.00  0.00    +0.028 A 
ATOM     31  C   UNL     1      16.418  12.999  17.259  0.00  0.00    +0.001 A 
ATOM     32  C   UNL     1      16.826  12.637  15.981  0.00  0.00    +0.002 A 
ENDBRANCH  13  18
ENDBRANCH   2  13
TORSDOF 4
ENDMDL
MODEL 8
REMARK VINA RESULT:      -7.0      2.450      3.848
REMARK  Name = 28990679
REMARK  4 active torsions:
REMARK  status: ('A' for Active; 'I' for Inactive)
REMARK    1  A    between atoms: N_2  and  C_13
REMARK    2  A    between atoms: C_13  and  C_18
REMARK    3  A    between atoms: C_16  and  C_19
REMARK    4  A    between atoms: C_27  and  C_33
REMARK                            x       y       z     vdW  Elec       q    Type
REMARK                         _______ _______ _______ _____ _____    ______ ____
ROOT
ATOM      1  O   UNL     1      12.319   7.413   3.400  0.00  0.00    -0.267 OA
ATOM      2  N   UNL     1      13.066   4.724  -0.767  0.00  0.00    -0.297 NA
ATOM      3  N   UNL     1      12.794   5.391   2.341  0.00  0.00    -0.311 N 
ATOM      6  C   UNL     1      14.896   5.034   0.919  0.00  0.00    +0.024 C 
ATOM      7  C   UNL     1      13.296   3.203   1.202  0.00  0.00    +0.050 C 
ATOM      8  C   UNL     1      14.767   3.581   1.356  0.00  0.00    +0.017 C 
ATOM      9  C   UNL     1      14.441   5.187  -0.549  0.00  0.00    +0.090 C 
ATOM     10  C   UNL     1      12.878   3.350  -0.279  0.00  0.00    +0.094 C 
ATOM     11  C   UNL     1      14.088   5.915   1.881  0.00  0.00    +0.130 C 
ATOM     12  C   UNL     1      12.421   4.069   2.089  0.00  0.00    +0.026 A 
ATOM     14  C   UNL     1      11.287   3.577   2.613  0.00  0.00    +0.022 A 
ATOM     15  C   UNL     1      12.006   6.253   3.129  0.00  0.00    +0.259 A 
ATOM     16  C   UNL     1      10.724   5.684   3.674  0.00  0.00    +0.047 A 
ATOM     17  C   UNL     1      10.426   4.403   3.412  0.00  0.00    +0.015 A 
ENDROOT
BRANCH  16  19
ATOM     19  C   UNL     1       9.801   6.510   4.473  0.00  0.00    -0.011 A 
ATOM     23  C   UNL     1       8.975   7.441   3.846  0.00  0.00    +0.027 A 
ATOM     24  C   UNL     1       9.756   6.358   5.860  0.00  0.00    +0.009 A 
ATOM     27  C   UNL     1       8.102   8.222   4.604  0.00  0.00    +0.052 A 
ATOM     28  C   UNL     1       8.882   7.138   6.618  0.00  0.00    +0.002 A 
ATOM     30  C   UNL     1       8.056   8.070   5.990  0.00  0.00    +0.019 A 
BRANCH  27  33
ATOM      5  N   UNL     1       6.567   9.954   3.442  0.00  0.00    -0.191 NA
ATOM     33  C   UNL     1       7.255   9.177   3.962  0.00  0.00    +0.099 C 
ENDBRANCH  27  33
ENDBRANCH  16  19
BRANCH   2  13
ATOM     13  C   UNL     1      12.692   4.835  -2.174  0.00  0.00    +0.121 C 
BRANCH  13  18
ATOM      4  N   UNL     1       9.543   6.853  -1.603  0.00  0.00    -0.255 NA
ATOM     18  C   UNL     1      11.292   5.363  -2.343  0.00  0.00    -0.015 A 
ATOM     20  C   UNL     1      10.460   4.887  -3.345  0.00  0.00    +0.016 A 
ATOM     21  C   UNL     1      10.790   6.338  -1.505  0.00  0.00    +0.116 A 
ATOM     22  C   UNL     1       9.160   5.394  -3.482  0.00  0.00    +0.001 A 
ATOM     25  C   UNL     1       8.737   6.389  -2.577  0.00  0.00    +0.071 A 
ATOM     26  C   UNL     1       8.293   4.933  -4.487  0.00  0.00    +0.010 A 
ATOM     29  C   UNL     1       7.446   6.892  -2.714  0.00  0.00    +0.028 A 
ATOM     31  C   UNL     1       7.007   5.453  -4.600  0.00  0.00    +0.001 A 
ATOM     32  C   UNL     1       6.583   6.435  -3.712  0.00  0.00    +0.002 A 
ENDBRANCH  13  18
ENDBRANCH   2  13
TORSDOF 4
ENDMDL
MODEL 9
REMARK VINA RESULT:      -6.9      3.311      8.163
REMARK  Name = 28990679
REMARK  4 active torsions:
REMARK  status: ('A' for Active; 'I' for Inactive)
REMARK    1  A    between atoms: N_2  and  C_13
REMARK    2  A    between atoms: C_13  and  C_18
REMARK    3  A    between atoms: C_16  and  C_19
REMARK    4  A    between atoms: C_27  and  C_33
REMARK                            x       y       z     vdW  Elec       q    Type
REMARK                         _______ _______ _______ _____ _____    ______ ____
ROOT
ATOM      1  O   UNL     1      10.612   7.025   1.550  0.00  0.00    -0.267 OA
ATOM      2  N   UNL     1      10.466   8.142   6.437  0.00  0.00    -0.297 NA
ATOM      3  N   UNL     1       9.783   6.657   3.697  0.00  0.00    -0.311 N 
ATOM      6  C   UNL     1       8.441   8.421   4.984  0.00  0.00    +0.024 C 
ATOM      7  C   UNL     1       8.893   6.248   6.016  0.00  0.00    +0.050 C 
ATOM      8  C   UNL     1       7.777   7.221   5.645  0.00  0.00    +0.017 C 
ATOM      9  C   UNL     1       9.440   9.078   5.961  0.00  0.00    +0.090 C 
ATOM     10  C   UNL     1       9.864   6.929   7.007  0.00  0.00    +0.094 C 
ATOM     11  C   UNL     1       9.108   7.962   3.680  0.00  0.00    +0.130 C 
ATOM     12  C   UNL     1       9.637   5.784   4.778  0.00  0.00    +0.026 A 
ATOM     14  C   UNL     1      10.169   4.553   4.726  0.00  0.00    +0.022 A 
ATOM     15  C   UNL     1      10.492   6.295   2.535  0.00  0.00    +0.259 A 
ATOM     16  C   UNL     1      11.106   4.921   2.520  0.00  0.00    +0.047 A 
ATOM     17  C   UNL     1      10.919   4.121   3.580  0.00  0.00    +0.015 A 
ENDROOT
BRANCH  16  19
ATOM     19  C   UNL     1      11.907   4.456   1.374  0.00  0.00    -0.011 A 
ATOM     23  C   UNL     1      11.275   3.996   0.219  0.00  0.00    +0.027 A 
ATOM     24  C   UNL     1      13.300   4.477   1.446  0.00  0.00    +0.009 A 
ATOM     27  C   UNL     1      12.035   3.557  -0.865  0.00  0.00    +0.052 A 
ATOM     28  C   UNL     1      14.061   4.037   0.361  0.00  0.00    +0.002 A 
ATOM     30  C   UNL     1      13.428   3.577  -0.794  0.00  0.00    +0.019 A 
BRANCH  27  33
ATOM      5  N   UNL     1      10.862   2.700  -3.009  0.00  0.00    -0.191 NA
ATOM     33  C   UNL     1      11.387   3.085  -2.049  0.00  0.00    +0.099 C 
ENDBRANCH  27  33
ENDBRANCH  16  19
BRANCH   2  13
ATOM     13  C   UNL     1      11.357   8.786   7.398  0.00  0.00    +0.121 C 
BRANCH  13  18
ATOM      4  N   UNL     1      14.713   7.342   6.414  0.00  0.00    -0.255 NA
ATOM     18  C   UNL     1      12.798   8.703   6.970  0.00  0.00    -0.015 A 
ATOM     20  C   UNL     1      13.545   9.848   6.735  0.00  0.00    +0.016 A 
ATOM     21  C   UNL     1      13.424   7.485   6.797  0.00  0.00    +0.116 A 
ATOM     22  C   UNL     1      14.886   9.745   6.337  0.00  0.00    +0.001 A 
ATOM     25  C   UNL     1      15.437   8.455   6.187  0.00  0.00    +0.071 A 
ATOM     26  C   UNL     1      15.670  10.885   6.091  0.00  0.00    +0.010 A 
ATOM     29  C   UNL     1      16.768   8.354   5.792  0.00  0.00    +0.028 A 
ATOM     31  C   UNL     1      16.998  10.754   5.698  0.00  0.00    +0.001 A 
ATOM     32  C   UNL     1      17.548   9.487   5.548  0.00  0.00    +0.002 A 
ENDBRANCH  13  18
ENDBRANCH   2  13
TORSDOF 4
ENDMDL
MODEL 10
REMARK VINA RESULT:      -6.9     42.888     44.241
REMARK  Name = 28990679
REMARK  4 active torsions:
REMARK  status: ('A' for Active; 'I' for Inactive)
REMARK    1  A    between atoms: N_2  and  C_13
REMARK    2  A    between atoms: C_13  and  C_18
REMARK    3  A    between atoms: C_16  and  C_19
REMARK    4  A    between atoms: C_27  and  C_33
REMARK                            x       y       z     vdW  Elec       q    Type
REMARK                         _______ _______ _______ _____ _____    ______ ____
ROOT
ATOM      1  O   UNL     1     -10.267 -11.634  39.443  0.00  0.00    -0.267 OA
ATOM      2  N   UNL     1      -6.406  -8.629  40.546  0.00  0.00    -0.297 NA
ATOM      3  N   UNL     1      -7.991 -11.133  39.366  0.00  0.00    -0.311 N 
ATOM      6  C   UNL     1      -6.541 -10.955  41.472  0.00  0.00    +0.024 C 
ATOM      7  C   UNL     1      -5.535 -10.591  39.271  0.00  0.00    +0.050 C 
ATOM      8  C   UNL     1      -5.413 -11.407  40.555  0.00  0.00    +0.017 C 
ATOM      9  C   UNL     1      -6.412  -9.445  41.767  0.00  0.00    +0.090 C 
ATOM     10  C   UNL     1      -5.383  -9.088  39.597  0.00  0.00    +0.094 C 
ATOM     11  C   UNL     1      -7.884 -11.315  40.821  0.00  0.00    +0.130 C 
ATOM     12  C   UNL     1      -6.864 -10.855  38.589  0.00  0.00    +0.026 A 
ATOM     14  C   UNL     1      -6.964 -10.803  37.251  0.00  0.00    +0.022 A 
ATOM     15  C   UNL     1      -9.259 -11.354  38.793  0.00  0.00    +0.259 A 
ATOM     16  C   UNL     1      -9.347 -11.255  37.293  0.00  0.00    +0.047 A 
ATOM     17  C   UNL     1      -8.228 -11.001  36.598  0.00  0.00    +0.015 A 
ENDROOT
BRANCH  16  19
ATOM     19  C   UNL     1     -10.632 -11.423  36.591  0.00  0.00    -0.011 A 
ATOM     23  C   UNL     1     -10.879 -12.577  35.851  0.00  0.00    +0.027 A 
ATOM     24  C   UNL     1     -11.602 -10.422  36.670  0.00  0.00    +0.009 A 
ATOM     27  C   UNL     1     -12.097 -12.734  35.189  0.00  0.00    +0.052 A 
ATOM     28  C   UNL     1     -12.820 -10.579  36.007  0.00  0.00    +0.002 A 
ATOM     30  C   UNL     1     -13.066 -11.735  35.266  0.00  0.00    +0.019 A 
BRANCH  27  33
ATOM      5  N   UNL     1     -12.556 -14.879  33.811  0.00  0.00    -0.191 NA
ATOM     33  C   UNL     1     -12.351 -13.918  34.429  0.00  0.00    +0.099 C 
ENDBRANCH  27  33
ENDBRANCH  16  19
BRANCH   2  13
ATOM     13  C   UNL     1      -6.229  -7.214  40.863  0.00  0.00    +0.121 C 
BRANCH  13  18
ATOM      4  N   UNL     1      -9.552  -6.249  39.332  0.00  0.00    -0.255 NA
ATOM     18  C   UNL     1      -7.440  -6.399  40.492  0.00  0.00    -0.015 A 
ATOM     20  C   UNL     1      -7.588  -5.092  40.931  0.00  0.00    +0.016 A 
ATOM     21  C   UNL     1      -8.441  -6.927  39.702  0.00  0.00    +0.116 A 
ATOM     22  C   UNL     1      -8.725  -4.354  40.571  0.00  0.00    +0.001 A 
ATOM     25  C   UNL     1      -9.694  -4.979  39.760  0.00  0.00    +0.071 A 
ATOM     26  C   UNL     1      -8.906  -3.027  40.999  0.00  0.00    +0.010 A 
ATOM     29  C   UNL     1     -10.822  -4.245  39.403  0.00  0.00    +0.028 A 
ATOM     31  C   UNL     1     -10.043  -2.317  40.627  0.00  0.00    +0.001 A 
ATOM     32  C   UNL     1     -11.003  -2.927  39.828  0.00  0.00    +0.002 A 
ENDBRANCH  13  18
ENDBRANCH   2  13
TORSDOF 4
ENDMDL
