MODEL 1
REMARK VINA RESULT:      -6.4      0.000      0.000
REMARK  Name = 45784308
REMARK  5 active torsions:
REMARK  status: ('A' for Active; 'I' for Inactive)
REMARK    1  A    between atoms: O_1  and  C_18
REMARK    2  A    between atoms: O_1  and  C_20
REMARK    3  A    between atoms: N_2  and  C_8
REMARK    4  A    between atoms: C_5  and  C_8
REMARK    5  A    between atoms: C_9  and  C_13
REMARK                            x       y       z     vdW  Elec       q    Type
REMARK                         _______ _______ _______ _____ _____    ______ ____
ROOT
ATOM      3  N   UNL     1      11.861   9.333  22.707  0.00  0.00    -0.341 N 
ATOM      4  N   UNL     1      11.797  10.628  20.901  0.00  0.00    -0.232 NA
ATOM     13  C   UNL     1      12.059   9.424  21.356  0.00  0.00    +0.113 A 
ATOM     14  C   UNL     1      11.443  10.560  23.151  0.00  0.00    +0.070 A 
ATOM     15  C   UNL     1      11.411  11.351  22.007  0.00  0.00    +0.089 A 
ATOM     16  C   UNL     1      11.100  11.032  24.419  0.00  0.00    +0.073 A 
ATOM     17  C   UNL     1      11.016  12.696  22.113  0.00  0.00    +0.033 A 
ATOM     18  C   UNL     1      10.710  12.372  24.507  0.00  0.00    +0.122 A 
ATOM     19  C   UNL     1      10.668  13.190  23.377  0.00  0.00    +0.048 A 
ATOM     21  H   UNL     1      11.996   8.508  23.278  0.00  0.00    +0.167 HD
ENDROOT
BRANCH  13   9
ATOM      2  N   UNL     1      14.381   6.854  20.160  0.00  0.00    -0.301 NA
ATOM      9  C   UNL     1      12.526   8.234  20.549  0.00  0.00    +0.070 C 
ATOM     10  C   UNL     1      13.601   7.408  21.268  0.00  0.00    +0.095 C 
ATOM     11  C   UNL     1      14.540   7.963  19.218  0.00  0.00    +0.085 C 
ATOM     12  C   UNL     1      13.147   8.581  19.186  0.00  0.00    +0.028 C 
BRANCH   2   8
ATOM      8  C   UNL     1      15.660   6.312  20.596  0.00  0.00    +0.088 C 
BRANCH   8   5
ATOM      5  C   UNL     1      16.755   6.670  19.646  0.00  0.00    +0.003 C 
ATOM      6  C   UNL     1      18.159   6.233  19.947  0.00  0.00    +0.005 C 
ATOM      7  C   UNL     1      17.397   5.590  18.825  0.00  0.00    +0.005 C 
ENDBRANCH   8   5
ENDBRANCH   2   8
ENDBRANCH  13   9
BRANCH  18   1
ATOM      1  O   UNL     1      10.364  12.888  25.721  0.00  0.00    -0.495 OA
ATOM     20  C   UNL     1      10.564  14.287  25.910  0.00  0.00    +0.277 C 
ENDBRANCH  18   1
TORSDOF 4
ENDMDL
MODEL 2
REMARK VINA RESULT:      -6.1      3.031      7.790
REMARK  Name = 45784308
REMARK  5 active torsions:
REMARK  status: ('A' for Active; 'I' for Inactive)
REMARK    1  A    between atoms: O_1  and  C_18
REMARK    2  A    between atoms: O_1  and  C_20
REMARK    3  A    between atoms: N_2  and  C_8
REMARK    4  A    between atoms: C_5  and  C_8
REMARK    5  A    between atoms: C_9  and  C_13
REMARK                            x       y       z     vdW  Elec       q    Type
REMARK                         _______ _______ _______ _____ _____    ______ ____
ROOT
ATOM      3  N   UNL     1      14.861   7.547  21.131  0.00  0.00    -0.341 N 
ATOM      4  N   UNL     1      14.568   6.539  19.171  0.00  0.00    -0.232 NA
ATOM     13  C   UNL     1      13.983   7.212  20.137  0.00  0.00    +0.113 A 
ATOM     14  C   UNL     1      16.093   7.058  20.783  0.00  0.00    +0.070 A 
ATOM     15  C   UNL     1      15.885   6.434  19.557  0.00  0.00    +0.089 A 
ATOM     16  C   UNL     1      17.336   7.107  21.417  0.00  0.00    +0.073 A 
ATOM     17  C   UNL     1      16.969   5.816  18.910  0.00  0.00    +0.033 A 
ATOM     18  C   UNL     1      18.402   6.487  20.760  0.00  0.00    +0.122 A 
ATOM     19  C   UNL     1      18.225   5.853  19.528  0.00  0.00    +0.048 A 
ATOM     21  H   UNL     1      14.642   8.063  21.973  0.00  0.00    +0.167 HD
ENDROOT
BRANCH  13   9
ATOM      2  N   UNL     1      10.982   8.819  21.491  0.00  0.00    -0.301 NA
ATOM      9  C   UNL     1      12.526   7.605  20.210  0.00  0.00    +0.070 C 
ATOM     10  C   UNL     1      12.307   8.965  20.886  0.00  0.00    +0.095 C 
ATOM     11  C   UNL     1      10.983   7.480  22.082  0.00  0.00    +0.085 C 
ATOM     12  C   UNL     1      11.631   6.631  20.995  0.00  0.00    +0.028 C 
BRANCH   2   8
ATOM      8  C   UNL     1      10.702   9.857  22.473  0.00  0.00    +0.088 C 
BRANCH   8   5
ATOM      5  C   UNL     1      11.622  11.022  22.309  0.00  0.00    +0.003 C 
ATOM      6  C   UNL     1      11.041  12.393  22.120  0.00  0.00    +0.005 C 
ATOM      7  C   UNL     1      11.722  12.037  23.410  0.00  0.00    +0.005 C 
ENDBRANCH   8   5
ENDBRANCH   2   8
ENDBRANCH  13   9
BRANCH  18   1
ATOM      1  O   UNL     1      19.640   6.503  21.333  0.00  0.00    -0.495 OA
ATOM     20  C   UNL     1      20.649   5.708  20.714  0.00  0.00    +0.277 C 
ENDBRANCH  18   1
TORSDOF 4
ENDMDL
MODEL 3
REMARK VINA RESULT:      -6.1      4.752      7.537
REMARK  Name = 45784308
REMARK  5 active torsions:
REMARK  status: ('A' for Active; 'I' for Inactive)
REMARK    1  A    between atoms: O_1  and  C_18
REMARK    2  A    between atoms: O_1  and  C_20
REMARK    3  A    between atoms: N_2  and  C_8
REMARK    4  A    between atoms: C_5  and  C_8
REMARK    5  A    between atoms: C_9  and  C_13
REMARK                            x       y       z     vdW  Elec       q    Type
REMARK                         _______ _______ _______ _____ _____    ______ ____
ROOT
ATOM      3  N   UNL     1      17.847   6.782  21.624  0.00  0.00    -0.341 N 
ATOM      4  N   UNL     1      17.883   6.304  19.454  0.00  0.00    -0.232 NA
ATOM     13  C   UNL     1      18.606   6.424  20.544  0.00  0.00    +0.113 A 
ATOM     14  C   UNL     1      16.548   6.902  21.202  0.00  0.00    +0.070 A 
ATOM     15  C   UNL     1      16.596   6.598  19.845  0.00  0.00    +0.089 A 
ATOM     16  C   UNL     1      15.371   7.239  21.871  0.00  0.00    +0.073 A 
ATOM     17  C   UNL     1      15.409   6.629  19.093  0.00  0.00    +0.033 A 
ATOM     18  C   UNL     1      14.199   7.264  21.109  0.00  0.00    +0.122 A 
ATOM     19  C   UNL     1      14.215   6.965  19.745  0.00  0.00    +0.048 A 
ATOM     21  H   UNL     1      18.181   6.932  22.568  0.00  0.00    +0.167 HD
ENDROOT
BRANCH  13   9
ATOM      2  N   UNL     1      21.706   4.617  21.286  0.00  0.00    -0.301 NA
ATOM      9  C   UNL     1      20.096   6.207  20.669  0.00  0.00    +0.070 C 
ATOM     10  C   UNL     1      20.507   4.744  20.455  0.00  0.00    +0.095 C 
ATOM     11  C   UNL     1      21.378   5.315  22.530  0.00  0.00    +0.085 C 
ATOM     12  C   UNL     1      20.693   6.583  22.035  0.00  0.00    +0.028 C 
BRANCH   2   8
ATOM      8  C   UNL     1      22.081   3.229  21.513  0.00  0.00    +0.088 C 
BRANCH   8   5
ATOM      5  C   UNL     1      23.566   3.065  21.541  0.00  0.00    +0.003 C 
ATOM      6  C   UNL     1      24.193   1.932  20.783  0.00  0.00    +0.005 C 
ATOM      7  C   UNL     1      24.358   3.343  20.297  0.00  0.00    +0.005 C 
ENDBRANCH   8   5
ENDBRANCH   2   8
ENDBRANCH  13   9
BRANCH  18   1
ATOM      1  O   UNL     1      13.018   7.587  21.710  0.00  0.00    -0.495 OA
ATOM     20  C   UNL     1      11.890   6.774  21.396  0.00  0.00    +0.277 C 
ENDBRANCH  18   1
TORSDOF 4
ENDMDL
MODEL 4
REMARK VINA RESULT:      -6.0     16.107     18.243
REMARK  Name = 45784308
REMARK  5 active torsions:
REMARK  status: ('A' for Active; 'I' for Inactive)
REMARK    1  A    between atoms: O_1  and  C_18
REMARK    2  A    between atoms: O_1  and  C_20
REMARK    3  A    between atoms: N_2  and  C_8
REMARK    4  A    between atoms: C_5  and  C_8
REMARK    5  A    between atoms: C_9  and  C_13
REMARK                            x       y       z     vdW  Elec       q    Type
REMARK                         _______ _______ _______ _____ _____    ______ ____
ROOT
ATOM      3  N   UNL     1      10.164   4.196   5.016  0.00  0.00    -0.341 N 
ATOM      4  N   UNL     1      10.249   6.344   4.450  0.00  0.00    -0.232 NA
ATOM     13  C   UNL     1      10.221   5.110   4.000  0.00  0.00    +0.113 A 
ATOM     14  C   UNL     1      10.154   4.887   6.200  0.00  0.00    +0.070 A 
ATOM     15  C   UNL     1      10.208   6.225   5.821  0.00  0.00    +0.089 A 
ATOM     16  C   UNL     1      10.104   4.468   7.531  0.00  0.00    +0.073 A 
ATOM     17  C   UNL     1      10.213   7.219   6.814  0.00  0.00    +0.033 A 
ATOM     18  C   UNL     1      10.111   5.470   8.506  0.00  0.00    +0.122 A 
ATOM     19  C   UNL     1      10.164   6.821   8.156  0.00  0.00    +0.048 A 
ATOM     21  H   UNL     1      10.133   3.189   4.915  0.00  0.00    +0.167 HD
ENDROOT
BRANCH  13   9
ATOM      2  N   UNL     1      11.688   4.017   0.825  0.00  0.00    -0.301 NA
ATOM      9  C   UNL     1      10.245   4.675   2.553  0.00  0.00    +0.070 C 
ATOM     10  C   UNL     1      11.408   3.726   2.233  0.00  0.00    +0.095 C 
ATOM     11  C   UNL     1      11.626   5.475   0.722  0.00  0.00    +0.085 C 
ATOM     12  C   UNL     1      10.385   5.820   1.536  0.00  0.00    +0.028 C 
BRANCH   2   8
ATOM      8  C   UNL     1      12.972   3.484   0.392  0.00  0.00    +0.088 C 
BRANCH   8   5
ATOM      5  C   UNL     1      14.106   4.219   1.027  0.00  0.00    +0.003 C 
ATOM      6  C   UNL     1      15.110   3.455   1.841  0.00  0.00    +0.005 C 
ATOM      7  C   UNL     1      15.498   4.014   0.502  0.00  0.00    +0.005 C 
ENDBRANCH   8   5
ENDBRANCH   2   8
ENDBRANCH  13   9
BRANCH  18   1
ATOM      1  O   UNL     1      10.064   5.120   9.823  0.00  0.00    -0.495 OA
ATOM     20  C   UNL     1       8.822   4.621  10.315  0.00  0.00    +0.277 C 
ENDBRANCH  18   1
TORSDOF 4
ENDMDL
MODEL 5
REMARK VINA RESULT:      -6.0     26.919     27.799
REMARK  Name = 45784308
REMARK  5 active torsions:
REMARK  status: ('A' for Active; 'I' for Inactive)
REMARK    1  A    between atoms: O_1  and  C_18
REMARK    2  A    between atoms: O_1  and  C_20
REMARK    3  A    between atoms: N_2  and  C_8
REMARK    4  A    between atoms: C_5  and  C_8
REMARK    5  A    between atoms: C_9  and  C_13
REMARK                            x       y       z     vdW  Elec       q    Type
REMARK                         _______ _______ _______ _____ _____    ______ ____
ROOT
ATOM      3  N   UNL     1      -4.537 -10.280  15.831  0.00  0.00    -0.341 N 
ATOM      4  N   UNL     1      -2.949 -11.485  16.814  0.00  0.00    -0.232 NA
ATOM     13  C   UNL     1      -3.293 -10.836  15.725  0.00  0.00    +0.113 A 
ATOM     14  C   UNL     1      -5.030 -10.592  17.072  0.00  0.00    +0.070 A 
ATOM     15  C   UNL     1      -4.021 -11.343  17.666  0.00  0.00    +0.089 A 
ATOM     16  C   UNL     1      -6.235 -10.289  17.707  0.00  0.00    +0.073 A 
ATOM     17  C   UNL     1      -4.207 -11.832  18.971  0.00  0.00    +0.033 A 
ATOM     18  C   UNL     1      -6.405 -10.782  19.004  0.00  0.00    +0.122 A 
ATOM     19  C   UNL     1      -5.410 -11.540  19.627  0.00  0.00    +0.048 A 
ATOM     21  H   UNL     1      -5.013  -9.735  15.123  0.00  0.00    +0.167 HD
ENDROOT
BRANCH  13   9
ATOM      2  N   UNL     1      -2.579 -10.818  12.131  0.00  0.00    -0.301 NA
ATOM      9  C   UNL     1      -2.467 -10.678  14.469  0.00  0.00    +0.070 C 
ATOM     10  C   UNL     1      -3.297 -10.224  13.261  0.00  0.00    +0.095 C 
ATOM     11  C   UNL     1      -2.244 -12.173  12.567  0.00  0.00    +0.085 C 
ATOM     12  C   UNL     1      -1.758 -11.958  13.995  0.00  0.00    +0.028 C 
BRANCH   2   8
ATOM      8  C   UNL     1      -3.367 -10.809  10.906  0.00  0.00    +0.088 C 
BRANCH   8   5
ATOM      5  C   UNL     1      -3.390  -9.451  10.284  0.00  0.00    +0.003 C 
ATOM      6  C   UNL     1      -4.206  -9.227   9.045  0.00  0.00    +0.005 C 
ATOM      7  C   UNL     1      -4.647  -8.635  10.352  0.00  0.00    +0.005 C 
ENDBRANCH   8   5
ENDBRANCH   2   8
ENDBRANCH  13   9
BRANCH  18   1
ATOM      1  O   UNL     1      -7.563 -10.518  19.673  0.00  0.00    -0.495 OA
ATOM     20  C   UNL     1      -8.742 -11.172  19.208  0.00  0.00    +0.277 C 
ENDBRANCH  18   1
TORSDOF 4
ENDMDL
MODEL 6
REMARK VINA RESULT:      -5.9      4.753      8.923
REMARK  Name = 45784308
REMARK  5 active torsions:
REMARK  status: ('A' for Active; 'I' for Inactive)
REMARK    1  A    between atoms: O_1  and  C_18
REMARK    2  A    between atoms: O_1  and  C_20
REMARK    3  A    between atoms: N_2  and  C_8
REMARK    4  A    between atoms: C_5  and  C_8
REMARK    5  A    between atoms: C_9  and  C_13
REMARK                            x       y       z     vdW  Elec       q    Type
REMARK                         _______ _______ _______ _____ _____    ______ ____
ROOT
ATOM      3  N   UNL     1      18.357   7.364  21.840  0.00  0.00    -0.341 N 
ATOM      4  N   UNL     1      18.405   6.199  19.947  0.00  0.00    -0.232 NA
ATOM     13  C   UNL     1      17.741   7.089  20.650  0.00  0.00    +0.113 A 
ATOM     14  C   UNL     1      19.494   6.601  21.909  0.00  0.00    +0.070 A 
ATOM     15  C   UNL     1      19.502   5.883  20.716  0.00  0.00    +0.089 A 
ATOM     16  C   UNL     1      20.486   6.481  22.882  0.00  0.00    +0.073 A 
ATOM     17  C   UNL     1      20.554   4.987  20.463  0.00  0.00    +0.033 A 
ATOM     18  C   UNL     1      21.525   5.585  22.615  0.00  0.00    +0.122 A 
ATOM     19  C   UNL     1      21.561   4.851  21.427  0.00  0.00    +0.048 A 
ATOM     21  H   UNL     1      18.034   8.014  22.545  0.00  0.00    +0.167 HD
ENDROOT
BRANCH  13   9
ATOM      2  N   UNL     1      14.175   7.914  20.807  0.00  0.00    -0.301 NA
ATOM      9  C   UNL     1      16.450   7.769  20.258  0.00  0.00    +0.070 C 
ATOM     10  C   UNL     1      15.493   7.964  21.442  0.00  0.00    +0.095 C 
ATOM     11  C   UNL     1      14.256   6.807  19.854  0.00  0.00    +0.085 C 
ATOM     12  C   UNL     1      15.618   7.020  19.203  0.00  0.00    +0.028 C 
BRANCH   2   8
ATOM      8  C   UNL     1      13.099   7.736  21.772  0.00  0.00    +0.088 C 
BRANCH   8   5
ATOM      5  C   UNL     1      11.853   7.245  21.111  0.00  0.00    +0.003 C 
ATOM      6  C   UNL     1      10.543   7.368  21.834  0.00  0.00    +0.005 C 
ATOM      7  C   UNL     1      10.829   8.239  20.646  0.00  0.00    +0.005 C 
ENDBRANCH   8   5
ENDBRANCH   2   8
ENDBRANCH  13   9
BRANCH  18   1
ATOM      1  O   UNL     1      22.523   5.427  23.531  0.00  0.00    -0.495 OA
ATOM     20  C   UNL     1      23.761   6.081  23.258  0.00  0.00    +0.277 C 
ENDBRANCH  18   1
TORSDOF 4
ENDMDL
MODEL 7
REMARK VINA RESULT:      -5.8     27.315     29.032
REMARK  Name = 45784308
REMARK  5 active torsions:
REMARK  status: ('A' for Active; 'I' for Inactive)
REMARK    1  A    between atoms: O_1  and  C_18
REMARK    2  A    between atoms: O_1  and  C_20
REMARK    3  A    between atoms: N_2  and  C_8
REMARK    4  A    between atoms: C_5  and  C_8
REMARK    5  A    between atoms: C_9  and  C_13
REMARK                            x       y       z     vdW  Elec       q    Type
REMARK                         _______ _______ _______ _____ _____    ______ ____
ROOT
ATOM      3  N   UNL     1     -15.750   4.393  25.177  0.00  0.00    -0.341 N 
ATOM      4  N   UNL     1     -16.298   2.693  23.854  0.00  0.00    -0.232 NA
ATOM     13  C   UNL     1     -15.915   3.949  23.894  0.00  0.00    +0.113 A 
ATOM     14  C   UNL     1     -16.047   3.355  26.021  0.00  0.00    +0.070 A 
ATOM     15  C   UNL     1     -16.385   2.305  25.172  0.00  0.00    +0.089 A 
ATOM     16  C   UNL     1     -16.048   3.246  27.412  0.00  0.00    +0.073 A 
ATOM     17  C   UNL     1     -16.750   1.066  25.726  0.00  0.00    +0.033 A 
ATOM     18  C   UNL     1     -16.413   2.007  27.947  0.00  0.00    +0.122 A 
ATOM     19  C   UNL     1     -16.758   0.935  27.121  0.00  0.00    +0.048 A 
ATOM     21  H   UNL     1     -15.460   5.322  25.457  0.00  0.00    +0.167 HD
ENDROOT
BRANCH  13   9
ATOM      2  N   UNL     1     -13.994   6.095  21.630  0.00  0.00    -0.301 NA
ATOM      9  C   UNL     1     -15.665   4.855  22.711  0.00  0.00    +0.070 C 
ATOM     10  C   UNL     1     -14.230   4.757  22.175  0.00  0.00    +0.095 C 
ATOM     11  C   UNL     1     -14.551   7.013  22.624  0.00  0.00    +0.085 C 
ATOM     12  C   UNL     1     -15.876   6.354  22.987  0.00  0.00    +0.028 C 
BRANCH   2   8
ATOM      8  C   UNL     1     -12.583   6.349  21.370  0.00  0.00    +0.088 C 
BRANCH   8   5
ATOM      5  C   UNL     1     -12.404   7.384  20.309  0.00  0.00    +0.003 C 
ATOM      6  C   UNL     1     -11.082   8.084  20.183  0.00  0.00    +0.005 C 
ATOM      7  C   UNL     1     -11.508   7.090  19.142  0.00  0.00    +0.005 C 
ENDBRANCH   8   5
ENDBRANCH   2   8
ENDBRANCH  13   9
BRANCH  18   1
ATOM      1  O   UNL     1     -16.432   1.843  29.300  0.00  0.00    -0.495 OA
ATOM     20  C   UNL     1     -15.672   0.760  29.831  0.00  0.00    +0.277 C 
ENDBRANCH  18   1
TORSDOF 4
ENDMDL
MODEL 8
REMARK VINA RESULT:      -5.8     29.753     32.009
REMARK  Name = 45784308
REMARK  5 active torsions:
REMARK  status: ('A' for Active; 'I' for Inactive)
REMARK    1  A    between atoms: O_1  and  C_18
REMARK    2  A    between atoms: O_1  and  C_20
REMARK    3  A    between atoms: N_2  and  C_8
REMARK    4  A    between atoms: C_5  and  C_8
REMARK    5  A    between atoms: C_9  and  C_13
REMARK                            x       y       z     vdW  Elec       q    Type
REMARK                         _______ _______ _______ _____ _____    ______ ____
ROOT
ATOM      3  N   UNL     1       0.627   0.497  -5.893  0.00  0.00    -0.341 N 
ATOM      4  N   UNL     1       0.106   2.166  -7.264  0.00  0.00    -0.232 NA
ATOM     13  C   UNL     1       0.982   1.719  -6.393  0.00  0.00    +0.113 A 
ATOM     14  C   UNL     1      -0.557   0.132  -6.479  0.00  0.00    +0.070 A 
ATOM     15  C   UNL     1      -0.861   1.189  -7.331  0.00  0.00    +0.089 A 
ATOM     16  C   UNL     1      -1.363  -0.999  -6.342  0.00  0.00    +0.073 A 
ATOM     17  C   UNL     1      -2.037   1.134  -8.100  0.00  0.00    +0.033 A 
ATOM     18  C   UNL     1      -2.528  -1.038  -7.114  0.00  0.00    +0.122 A 
ATOM     19  C   UNL     1      -2.861   0.008  -7.978  0.00  0.00    +0.048 A 
ATOM     21  H   UNL     1       1.144  -0.044  -5.211  0.00  0.00    +0.167 HD
ENDROOT
BRANCH  13   9
ATOM      2  N   UNL     1       3.084   4.460  -5.172  0.00  0.00    -0.301 NA
ATOM      9  C   UNL     1       2.250   2.411  -5.950  0.00  0.00    +0.070 C 
ATOM     10  C   UNL     1       1.998   3.513  -4.912  0.00  0.00    +0.095 C 
ATOM     11  C   UNL     1       3.156   4.561  -6.630  0.00  0.00    +0.085 C 
ATOM     12  C   UNL     1       3.034   3.109  -7.075  0.00  0.00    +0.028 C 
BRANCH   2   8
ATOM      8  C   UNL     1       2.858   5.752  -4.538  0.00  0.00    +0.088 C 
BRANCH   8   5
ATOM      5  C   UNL     1       4.108   6.569  -4.511  0.00  0.00    +0.003 C 
ATOM      6  C   UNL     1       4.834   6.755  -3.211  0.00  0.00    +0.005 C 
ATOM      7  C   UNL     1       5.425   5.887  -4.282  0.00  0.00    +0.005 C 
ENDBRANCH   8   5
ENDBRANCH   2   8
ENDBRANCH  13   9
BRANCH  18   1
ATOM      1  O   UNL     1      -3.355  -2.119  -7.021  0.00  0.00    -0.495 OA
ATOM     20  C   UNL     1      -2.880  -3.345  -7.575  0.00  0.00    +0.277 C 
ENDBRANCH  18   1
TORSDOF 4
ENDMDL
MODEL 9
REMARK VINA RESULT:      -5.7     27.908     30.625
REMARK  Name = 45784308
REMARK  5 active torsions:
REMARK  status: ('A' for Active; 'I' for Inactive)
REMARK    1  A    between atoms: O_1  and  C_18
REMARK    2  A    between atoms: O_1  and  C_20
REMARK    3  A    between atoms: N_2  and  C_8
REMARK    4  A    between atoms: C_5  and  C_8
REMARK    5  A    between atoms: C_9  and  C_13
REMARK                            x       y       z     vdW  Elec       q    Type
REMARK                         _______ _______ _______ _____ _____    ______ ____
ROOT
ATOM      3  N   UNL     1     -14.869   2.984  32.640  0.00  0.00    -0.341 N 
ATOM      4  N   UNL     1     -16.227   4.033  31.228  0.00  0.00    -0.232 NA
ATOM     13  C   UNL     1     -15.583   4.118  32.370  0.00  0.00    +0.113 A 
ATOM     14  C   UNL     1     -15.065   2.109  31.603  0.00  0.00    +0.070 A 
ATOM     15  C   UNL     1     -15.915   2.786  30.735  0.00  0.00    +0.089 A 
ATOM     16  C   UNL     1     -14.585   0.821  31.358  0.00  0.00    +0.073 A 
ATOM     17  C   UNL     1     -16.323   2.158  29.546  0.00  0.00    +0.033 A 
ATOM     18  C   UNL     1     -15.001   0.211  30.171  0.00  0.00    +0.122 A 
ATOM     19  C   UNL     1     -15.854   0.865  29.279  0.00  0.00    +0.048 A 
ATOM     21  H   UNL     1     -14.296   2.817  33.458  0.00  0.00    +0.167 HD
ENDROOT
BRANCH  13   9
ATOM      2  N   UNL     1     -14.251   7.053  34.112  0.00  0.00    -0.301 NA
ATOM      9  C   UNL     1     -15.582   5.292  33.321  0.00  0.00    +0.070 C 
ATOM     10  C   UNL     1     -14.679   6.441  32.853  0.00  0.00    +0.095 C 
ATOM     11  C   UNL     1     -13.936   5.927  34.992  0.00  0.00    +0.085 C 
ATOM     12  C   UNL     1     -15.097   4.971  34.745  0.00  0.00    +0.028 C 
BRANCH   2   8
ATOM      8  C   UNL     1     -13.119   7.952  33.936  0.00  0.00    +0.088 C 
BRANCH   8   5
ATOM      5  C   UNL     1     -12.891   8.262  32.493  0.00  0.00    +0.003 C 
ATOM      6  C   UNL     1     -12.563   9.670  32.089  0.00  0.00    +0.005 C 
ATOM      7  C   UNL     1     -11.506   8.606  32.027  0.00  0.00    +0.005 C 
ENDBRANCH   8   5
ENDBRANCH   2   8
ENDBRANCH  13   9
BRANCH  18   1
ATOM      1  O   UNL     1     -14.564  -1.048  29.879  0.00  0.00    -0.495 OA
ATOM     20  C   UNL     1     -13.289  -1.159  29.250  0.00  0.00    +0.277 C 
ENDBRANCH  18   1
TORSDOF 4
ENDMDL
MODEL 10
REMARK VINA RESULT:      -5.7     16.768     19.924
REMARK  Name = 45784308
REMARK  5 active torsions:
REMARK  status: ('A' for Active; 'I' for Inactive)
REMARK    1  A    between atoms: O_1  and  C_18
REMARK    2  A    between atoms: O_1  and  C_20
REMARK    3  A    between atoms: N_2  and  C_8
REMARK    4  A    between atoms: C_5  and  C_8
REMARK    5  A    between atoms: C_9  and  C_13
REMARK                            x       y       z     vdW  Elec       q    Type
REMARK                         _______ _______ _______ _____ _____    ______ ____
ROOT
ATOM      3  N   UNL     1      12.931   6.071   3.189  0.00  0.00    -0.341 N 
ATOM      4  N   UNL     1      11.084   5.073   2.458  0.00  0.00    -0.232 NA
ATOM     13  C   UNL     1      11.577   5.933   3.321  0.00  0.00    +0.113 A 
ATOM     14  C   UNL     1      13.339   5.245   2.174  0.00  0.00    +0.070 A 
ATOM     15  C   UNL     1      12.169   4.634   1.734  0.00  0.00    +0.089 A 
ATOM     16  C   UNL     1      14.593   4.989   1.618  0.00  0.00    +0.073 A 
ATOM     17  C   UNL     1      12.234   3.708   0.678  0.00  0.00    +0.033 A 
ATOM     18  C   UNL     1      14.640   4.066   0.570  0.00  0.00    +0.122 A 
ATOM     19  C   UNL     1      13.483   3.436   0.106  0.00  0.00    +0.048 A 
ATOM     21  H   UNL     1      13.528   6.674   3.741  0.00  0.00    +0.167 HD
ENDROOT
BRANCH  13   9
ATOM      2  N   UNL     1      10.183   6.700   6.622  0.00  0.00    -0.301 NA
ATOM      9  C   UNL     1      10.806   6.712   4.361  0.00  0.00    +0.070 C 
ATOM     10  C   UNL     1      11.369   6.539   5.778  0.00  0.00    +0.095 C 
ATOM     11  C   UNL     1       9.131   5.941   5.944  0.00  0.00    +0.085 C 
ATOM     12  C   UNL     1       9.320   6.333   4.484  0.00  0.00    +0.028 C 
BRANCH   2   8
ATOM      8  C   UNL     1      10.405   6.241   7.986  0.00  0.00    +0.088 C 
BRANCH   8   5
ATOM      5  C   UNL     1       9.292   5.360   8.451  0.00  0.00    +0.003 C 
ATOM      6  C   UNL     1       9.589   3.935   8.817  0.00  0.00    +0.005 C 
ATOM      7  C   UNL     1       9.248   4.930   9.888  0.00  0.00    +0.005 C 
ENDBRANCH   8   5
ENDBRANCH   2   8
ENDBRANCH  13   9
BRANCH  18   1
ATOM      1  O   UNL     1      15.840   3.776  -0.011  0.00  0.00    -0.495 OA
ATOM     20  C   UNL     1      16.380   4.752  -0.901  0.00  0.00    +0.277 C 
ENDBRANCH  18   1
TORSDOF 4
ENDMDL
