MODEL 1
REMARK VINA RESULT:      -6.8      0.000      0.000
REMARK  Name = 51137884
REMARK  3 active torsions:
REMARK  status: ('A' for Active; 'I' for Inactive)
REMARK    1  A    between atoms: N_1  and  C_4
REMARK    2  A    between atoms: N_2  and  C_17
REMARK    3  A    between atoms: C_5  and  C_14
REMARK                            x       y       z     vdW  Elec       q    Type
REMARK                         _______ _______ _______ _____ _____    ______ ____
ROOT
ATOM      1  N   UNL     1      11.491  10.492  22.003  0.00  0.00    -0.299 NA
ATOM      5  C   UNL     1      12.569   8.888  20.674  0.00  0.00    +0.070 C 
ATOM      6  C   UNL     1      12.733  10.302  21.249  0.00  0.00    +0.096 C 
ATOM      7  C   UNL     1      11.277   9.226  22.702  0.00  0.00    +0.085 C 
ATOM      8  C   UNL     1      11.589   8.188  21.632  0.00  0.00    +0.028 C 
ENDROOT
BRANCH   5  14
ATOM      2  N   UNL     1      14.188   7.502  19.329  0.00  0.00    -0.330 N 
ATOM      3  N   UNL     1      14.865   8.112  21.356  0.00  0.00    -0.232 NA
ATOM     14  C   UNL     1      13.887   8.174  20.481  0.00  0.00    +0.115 A 
ATOM     15  C   UNL     1      15.445   6.972  19.471  0.00  0.00    +0.069 A 
ATOM     16  C   UNL     1      15.846   7.366  20.745  0.00  0.00    +0.089 A 
ATOM     17  C   UNL     1      13.339   7.372  18.167  0.00  0.00    +0.150 C 
ATOM     18  C   UNL     1      16.241   6.203  18.621  0.00  0.00    +0.028 A 
ATOM     19  C   UNL     1      17.112   6.980  21.215  0.00  0.00    +0.030 A 
ATOM     20  C   UNL     1      17.499   5.828  19.104  0.00  0.00    +0.002 A 
ATOM     21  C   UNL     1      17.929   6.208  20.378  0.00  0.00    +0.002 A 
ENDBRANCH   5  14
BRANCH   1   4
ATOM      4  C   UNL     1      11.563  11.629  22.918  0.00  0.00    +0.057 C 
ATOM      9  C   UNL     1      10.878  12.847  22.290  0.00  0.00    +0.019 C 
ATOM     10  C   UNL     1      10.918  11.261  24.258  0.00  0.00    +0.019 C 
ATOM     11  C   UNL     1      10.867  14.036  23.250  0.00  0.00    +0.002 C 
ATOM     12  C   UNL     1      10.907  12.451  25.216  0.00  0.00    +0.002 C 
ATOM     13  C   UNL     1      10.235  13.670  24.591  0.00  0.00    +0.000 C 
ENDBRANCH   1   4
TORSDOF 2
ENDMDL
MODEL 2
REMARK VINA RESULT:      -6.4     26.823     28.216
REMARK  Name = 51137884
REMARK  3 active torsions:
REMARK  status: ('A' for Active; 'I' for Inactive)
REMARK    1  A    between atoms: N_1  and  C_4
REMARK    2  A    between atoms: N_2  and  C_17
REMARK    3  A    between atoms: C_5  and  C_14
REMARK                            x       y       z     vdW  Elec       q    Type
REMARK                         _______ _______ _______ _____ _____    ______ ____
ROOT
ATOM      1  N   UNL     1      -4.327 -12.021  16.788  0.00  0.00    -0.299 NA
ATOM      5  C   UNL     1      -3.641 -11.579  14.589  0.00  0.00    +0.070 C 
ATOM      6  C   UNL     1      -4.860 -11.997  15.424  0.00  0.00    +0.096 C 
ATOM      7  C   UNL     1      -3.501 -10.819  16.892  0.00  0.00    +0.085 C 
ATOM      8  C   UNL     1      -2.738 -10.816  15.574  0.00  0.00    +0.028 C 
ENDROOT
BRANCH   5  14
ATOM      2  N   UNL     1      -3.159 -10.677  12.286  0.00  0.00    -0.330 N 
ATOM      3  N   UNL     1      -5.159 -10.198  13.130  0.00  0.00    -0.232 NA
ATOM     14  C   UNL     1      -4.015 -10.809  13.344  0.00  0.00    +0.115 A 
ATOM     15  C   UNL     1      -3.794  -9.931  11.326  0.00  0.00    +0.069 A 
ATOM     16  C   UNL     1      -5.040  -9.644  11.877  0.00  0.00    +0.089 A 
ATOM     17  C   UNL     1      -1.825 -11.225  12.191  0.00  0.00    +0.150 C 
ATOM     18  C   UNL     1      -3.396  -9.494  10.061  0.00  0.00    +0.028 A 
ATOM     19  C   UNL     1      -5.956  -8.877  11.137  0.00  0.00    +0.030 A 
ATOM     20  C   UNL     1      -4.320  -8.733   9.338  0.00  0.00    +0.002 A 
ATOM     21  C   UNL     1      -5.579  -8.429   9.865  0.00  0.00    +0.002 A 
ENDBRANCH   5  14
BRANCH   1   4
ATOM      4  C   UNL     1      -5.383 -12.061  17.798  0.00  0.00    +0.057 C 
ATOM      9  C   UNL     1      -5.283 -10.830  18.705  0.00  0.00    +0.019 C 
ATOM     10  C   UNL     1      -6.752 -12.137  17.117  0.00  0.00    +0.019 C 
ATOM     11  C   UNL     1      -6.419 -10.797  19.727  0.00  0.00    +0.002 C 
ATOM     12  C   UNL     1      -7.886 -12.104  18.141  0.00  0.00    +0.002 C 
ATOM     13  C   UNL     1      -7.785 -10.885  19.052  0.00  0.00    +0.000 C 
ENDBRANCH   1   4
TORSDOF 2
ENDMDL
MODEL 3
REMARK VINA RESULT:      -6.1     27.791     30.199
REMARK  Name = 51137884
REMARK  3 active torsions:
REMARK  status: ('A' for Active; 'I' for Inactive)
REMARK    1  A    between atoms: N_1  and  C_4
REMARK    2  A    between atoms: N_2  and  C_17
REMARK    3  A    between atoms: C_5  and  C_14
REMARK                            x       y       z     vdW  Elec       q    Type
REMARK                         _______ _______ _______ _____ _____    ______ ____
ROOT
ATOM      1  N   UNL     1     -16.923   2.507  27.716  0.00  0.00    -0.299 NA
ATOM      5  C   UNL     1     -16.988   3.615  25.648  0.00  0.00    +0.070 C 
ATOM      6  C   UNL     1     -16.491   3.762  27.094  0.00  0.00    +0.096 C 
ATOM      7  C   UNL     1     -16.614   1.472  26.730  0.00  0.00    +0.085 C 
ATOM      8  C   UNL     1     -17.085   2.096  25.423  0.00  0.00    +0.028 C 
ENDROOT
BRANCH   5  14
ATOM      2  N   UNL     1     -16.452   5.594  24.184  0.00  0.00    -0.330 N 
ATOM      3  N   UNL     1     -15.003   3.910  24.129  0.00  0.00    -0.232 NA
ATOM     14  C   UNL     1     -16.126   4.351  24.650  0.00  0.00    +0.115 A 
ATOM     15  C   UNL     1     -15.474   5.980  23.303  0.00  0.00    +0.069 A 
ATOM     16  C   UNL     1     -14.582   4.912  23.286  0.00  0.00    +0.089 A 
ATOM     17  C   UNL     1     -17.617   6.367  24.551  0.00  0.00    +0.150 C 
ATOM     18  C   UNL     1     -15.300   7.137  22.542  0.00  0.00    +0.028 A 
ATOM     19  C   UNL     1     -13.443   4.985  22.467  0.00  0.00    +0.030 A 
ATOM     20  C   UNL     1     -14.161   7.192  21.733  0.00  0.00    +0.002 A 
ATOM     21  C   UNL     1     -13.246   6.136  21.694  0.00  0.00    +0.002 A 
ENDBRANCH   5  14
BRANCH   1   4
ATOM      4  C   UNL     1     -16.268   2.268  29.000  0.00  0.00    +0.057 C 
ATOM      9  C   UNL     1     -15.874   0.792  29.116  0.00  0.00    +0.019 C 
ATOM     10  C   UNL     1     -15.046   3.180  29.139  0.00  0.00    +0.019 C 
ATOM     11  C   UNL     1     -15.117   0.518  30.415  0.00  0.00    +0.002 C 
ATOM     12  C   UNL     1     -14.291   2.904  30.438  0.00  0.00    +0.002 C 
ATOM     13  C   UNL     1     -13.905   1.433  30.563  0.00  0.00    +0.000 C 
ENDBRANCH   1   4
TORSDOF 2
ENDMDL
MODEL 4
REMARK VINA RESULT:      -6.1     26.749     28.401
REMARK  Name = 51137884
REMARK  3 active torsions:
REMARK  status: ('A' for Active; 'I' for Inactive)
REMARK    1  A    between atoms: N_1  and  C_4
REMARK    2  A    between atoms: N_2  and  C_17
REMARK    3  A    between atoms: C_5  and  C_14
REMARK                            x       y       z     vdW  Elec       q    Type
REMARK                         _______ _______ _______ _____ _____    ______ ____
ROOT
ATOM      1  N   UNL     1      -5.979 -11.894  17.682  0.00  0.00    -0.299 NA
ATOM      5  C   UNL     1      -4.332 -11.651  16.029  0.00  0.00    +0.070 C 
ATOM      6  C   UNL     1      -5.782 -12.107  16.246  0.00  0.00    +0.096 C 
ATOM      7  C   UNL     1      -5.365 -10.596  17.958  0.00  0.00    +0.085 C 
ATOM      8  C   UNL     1      -4.058 -10.665  17.179  0.00  0.00    +0.028 C 
ENDROOT
BRANCH   5  14
ATOM      2  N   UNL     1      -2.839 -11.038  14.094  0.00  0.00    -0.330 N 
ATOM      3  N   UNL     1      -5.007 -10.622  13.833  0.00  0.00    -0.232 NA
ATOM     14  C   UNL     1      -4.089 -11.096  14.645  0.00  0.00    +0.115 A 
ATOM     15  C   UNL     1      -2.960 -10.489  12.843  0.00  0.00    +0.069 A 
ATOM     16  C   UNL     1      -4.322 -10.238  12.704  0.00  0.00    +0.089 A 
ATOM     17  C   UNL     1      -1.609 -11.475  14.715  0.00  0.00    +0.150 C 
ATOM     18  C   UNL     1      -2.022 -10.198  11.852  0.00  0.00    +0.028 A 
ATOM     19  C   UNL     1      -4.794  -9.664  11.512  0.00  0.00    +0.030 A 
ATOM     20  C   UNL     1      -2.509  -9.627  10.672  0.00  0.00    +0.002 A 
ATOM     21  C   UNL     1      -3.871  -9.364  10.502  0.00  0.00    +0.002 A 
ENDBRANCH   5  14
BRANCH   1   4
ATOM      4  C   UNL     1      -7.390 -11.935  18.063  0.00  0.00    +0.057 C 
ATOM      9  C   UNL     1      -7.530 -12.502  19.480  0.00  0.00    +0.019 C 
ATOM     10  C   UNL     1      -7.997 -10.533  17.966  0.00  0.00    +0.019 C 
ATOM     11  C   UNL     1      -8.986 -12.490  19.942  0.00  0.00    +0.002 C 
ATOM     12  C   UNL     1      -9.453 -10.523  18.430  0.00  0.00    +0.002 C 
ATOM     13  C   UNL     1      -9.598 -11.096  19.836  0.00  0.00    +0.000 C 
ENDBRANCH   1   4
TORSDOF 2
ENDMDL
MODEL 5
REMARK VINA RESULT:      -6.0     13.023     15.505
REMARK  Name = 51137884
REMARK  3 active torsions:
REMARK  status: ('A' for Active; 'I' for Inactive)
REMARK    1  A    between atoms: N_1  and  C_4
REMARK    2  A    between atoms: N_2  and  C_17
REMARK    3  A    between atoms: C_5  and  C_14
REMARK                            x       y       z     vdW  Elec       q    Type
REMARK                         _______ _______ _______ _____ _____    ______ ____
ROOT
ATOM      1  N   UNL     1      17.052  -4.429  30.079  0.00  0.00    -0.299 NA
ATOM      5  C   UNL     1      18.175  -3.457  28.263  0.00  0.00    +0.070 C 
ATOM      6  C   UNL     1      17.320  -4.669  28.658  0.00  0.00    +0.096 C 
ATOM      7  C   UNL     1      16.737  -3.004  30.167  0.00  0.00    +0.085 C 
ATOM      8  C   UNL     1      17.797  -2.365  29.278  0.00  0.00    +0.028 C 
ENDROOT
BRANCH   5  14
ATOM      2  N   UNL     1      18.587  -3.765  25.796  0.00  0.00    -0.330 N 
ATOM      3  N   UNL     1      17.305  -2.043  26.370  0.00  0.00    -0.232 NA
ATOM     14  C   UNL     1      18.005  -3.063  26.814  0.00  0.00    +0.115 A 
ATOM     15  C   UNL     1      18.241  -3.156  24.616  0.00  0.00    +0.069 A 
ATOM     16  C   UNL     1      17.441  -2.084  25.002  0.00  0.00    +0.089 A 
ATOM     17  C   UNL     1      19.420  -4.939  25.933  0.00  0.00    +0.150 C 
ATOM     18  C   UNL     1      18.550  -3.442  23.286  0.00  0.00    +0.028 A 
ATOM     19  C   UNL     1      16.909  -1.237  24.015  0.00  0.00    +0.030 A 
ATOM     20  C   UNL     1      18.012  -2.589  22.317  0.00  0.00    +0.002 A 
ATOM     21  C   UNL     1      17.206  -1.505  22.673  0.00  0.00    +0.002 A 
ENDBRANCH   5  14
BRANCH   1   4
ATOM      4  C   UNL     1      15.974  -5.271  30.593  0.00  0.00    +0.057 C 
ATOM      9  C   UNL     1      14.917  -4.402  31.282  0.00  0.00    +0.019 C 
ATOM     10  C   UNL     1      15.360  -6.086  29.451  0.00  0.00    +0.019 C 
ATOM     11  C   UNL     1      13.736  -5.241  31.766  0.00  0.00    +0.002 C 
ATOM     12  C   UNL     1      14.179  -6.924  29.937  0.00  0.00    +0.002 C 
ATOM     13  C   UNL     1      13.129  -6.064  30.633  0.00  0.00    +0.000 C 
ENDBRANCH   1   4
TORSDOF 2
ENDMDL
MODEL 6
REMARK VINA RESULT:      -6.0      2.144      3.374
REMARK  Name = 51137884
REMARK  3 active torsions:
REMARK  status: ('A' for Active; 'I' for Inactive)
REMARK    1  A    between atoms: N_1  and  C_4
REMARK    2  A    between atoms: N_2  and  C_17
REMARK    3  A    between atoms: C_5  and  C_14
REMARK                            x       y       z     vdW  Elec       q    Type
REMARK                         _______ _______ _______ _____ _____    ______ ____
ROOT
ATOM      1  N   UNL     1      11.960  10.891  23.549  0.00  0.00    -0.299 NA
ATOM      5  C   UNL     1      12.961   9.617  21.852  0.00  0.00    +0.070 C 
ATOM      6  C   UNL     1      11.662  10.347  22.221  0.00  0.00    +0.096 C 
ATOM      7  C   UNL     1      13.320  11.416  23.444  0.00  0.00    +0.085 C 
ATOM      8  C   UNL     1      14.051  10.319  22.681  0.00  0.00    +0.028 C 
ENDROOT
BRANCH   5  14
ATOM      2  N   UNL     1      13.473   8.421  19.694  0.00  0.00    -0.330 N 
ATOM      3  N   UNL     1      13.223  10.626  19.560  0.00  0.00    -0.232 NA
ATOM     14  C   UNL     1      13.217   9.586  20.363  0.00  0.00    +0.115 A 
ATOM     15  C   UNL     1      13.658   8.733  18.370  0.00  0.00    +0.069 A 
ATOM     16  C   UNL     1      13.497  10.114  18.313  0.00  0.00    +0.089 A 
ATOM     17  C   UNL     1      13.539   7.098  20.272  0.00  0.00    +0.150 C 
ATOM     18  C   UNL     1      13.945   7.947  17.253  0.00  0.00    +0.028 A 
ATOM     19  C   UNL     1      13.627  10.768  17.077  0.00  0.00    +0.030 A 
ATOM     20  C   UNL     1      14.069   8.614  16.030  0.00  0.00    +0.002 A 
ATOM     21  C   UNL     1      13.913  10.000  15.941  0.00  0.00    +0.002 A 
ENDBRANCH   5  14
BRANCH   1   4
ATOM      4  C   UNL     1      10.998  11.911  23.962  0.00  0.00    +0.057 C 
ATOM      9  C   UNL     1      11.434  12.527  25.296  0.00  0.00    +0.019 C 
ATOM     10  C   UNL     1      10.874  12.981  22.873  0.00  0.00    +0.019 C 
ATOM     11  C   UNL     1      10.493  13.652  25.722  0.00  0.00    +0.002 C 
ATOM     12  C   UNL     1       9.933  14.105  23.302  0.00  0.00    +0.002 C 
ATOM     13  C   UNL     1      10.357  14.715  24.635  0.00  0.00    +0.000 C 
ENDBRANCH   1   4
TORSDOF 2
ENDMDL
MODEL 7
REMARK VINA RESULT:      -6.0     16.766     19.965
REMARK  Name = 51137884
REMARK  3 active torsions:
REMARK  status: ('A' for Active; 'I' for Inactive)
REMARK    1  A    between atoms: N_1  and  C_4
REMARK    2  A    between atoms: N_2  and  C_17
REMARK    3  A    between atoms: C_5  and  C_14
REMARK                            x       y       z     vdW  Elec       q    Type
REMARK                         _______ _______ _______ _____ _____    ______ ____
ROOT
ATOM      1  N   UNL     1      11.206   5.717   4.767  0.00  0.00    -0.299 NA
ATOM      5  C   UNL     1      11.851   5.136   2.588  0.00  0.00    +0.070 C 
ATOM      6  C   UNL     1      10.802   4.836   3.668  0.00  0.00    +0.096 C 
ATOM      7  C   UNL     1      11.539   6.989   4.127  0.00  0.00    +0.085 C 
ATOM      8  C   UNL     1      12.348   6.556   2.911  0.00  0.00    +0.028 C 
ENDROOT
BRANCH   5  14
ATOM      2  N   UNL     1      11.882   4.067   0.306  0.00  0.00    -0.330 N 
ATOM      3  N   UNL     1      10.301   5.589   0.657  0.00  0.00    -0.232 NA
ATOM     14  C   UNL     1      11.321   4.952   1.185  0.00  0.00    +0.115 A 
ATOM     15  C   UNL     1      11.175   4.140  -0.868  0.00  0.00    +0.069 A 
ATOM     16  C   UNL     1      10.194   5.096  -0.623  0.00  0.00    +0.089 A 
ATOM     17  C   UNL     1      13.015   3.208   0.563  0.00  0.00    +0.150 C 
ATOM     18  C   UNL     1      11.307   3.471  -2.085  0.00  0.00    +0.028 A 
ATOM     19  C   UNL     1       9.282   5.418  -1.642  0.00  0.00    +0.030 A 
ATOM     20  C   UNL     1      10.391   3.803  -3.088  0.00  0.00    +0.002 A 
ATOM     21  C   UNL     1       9.395   4.759  -2.873  0.00  0.00    +0.002 A 
ENDBRANCH   5  14
BRANCH   1   4
ATOM      4  C   UNL     1      10.161   5.860   5.779  0.00  0.00    +0.057 C 
ATOM      9  C   UNL     1      10.796   6.001   7.167  0.00  0.00    +0.019 C 
ATOM     10  C   UNL     1       9.278   7.067   5.450  0.00  0.00    +0.019 C 
ATOM     11  C   UNL     1       9.736   6.229   8.243  0.00  0.00    +0.002 C 
ATOM     12  C   UNL     1       8.220   7.294   6.528  0.00  0.00    +0.002 C 
ATOM     13  C   UNL     1       8.847   7.424   7.913  0.00  0.00    +0.000 C 
ENDBRANCH   1   4
TORSDOF 2
ENDMDL
MODEL 8
REMARK VINA RESULT:      -6.0     26.331     28.609
REMARK  Name = 51137884
REMARK  3 active torsions:
REMARK  status: ('A' for Active; 'I' for Inactive)
REMARK    1  A    between atoms: N_1  and  C_4
REMARK    2  A    between atoms: N_2  and  C_17
REMARK    3  A    between atoms: C_5  and  C_14
REMARK                            x       y       z     vdW  Elec       q    Type
REMARK                         _______ _______ _______ _____ _____    ______ ____
ROOT
ATOM      1  N   UNL     1      -3.247 -10.380  10.450  0.00  0.00    -0.299 NA
ATOM      5  C   UNL     1      -2.868 -10.773  12.731  0.00  0.00    +0.070 C 
ATOM      6  C   UNL     1      -3.540  -9.792  11.760  0.00  0.00    +0.096 C 
ATOM      7  C   UNL     1      -3.471 -11.814  10.622  0.00  0.00    +0.085 C 
ATOM      8  C   UNL     1      -2.809 -12.105  11.962  0.00  0.00    +0.028 C 
ENDROOT
BRANCH   5  14
ATOM      2  N   UNL     1      -2.872 -11.015  15.240  0.00  0.00    -0.330 N 
ATOM      3  N   UNL     1      -4.857 -10.754  14.274  0.00  0.00    -0.232 NA
ATOM     14  C   UNL     1      -3.562 -10.844  14.071  0.00  0.00    +0.115 A 
ATOM     15  C   UNL     1      -3.784 -11.036  16.264  0.00  0.00    +0.069 A 
ATOM     16  C   UNL     1      -5.015 -10.872  15.636  0.00  0.00    +0.089 A 
ATOM     17  C   UNL     1      -1.439 -11.148  15.375  0.00  0.00    +0.150 C 
ATOM     18  C   UNL     1      -3.641 -11.182  17.644  0.00  0.00    +0.028 A 
ATOM     19  C   UNL     1      -6.184 -10.850  16.415  0.00  0.00    +0.030 A 
ATOM     20  C   UNL     1      -4.814 -11.157  18.405  0.00  0.00    +0.002 A 
ATOM     21  C   UNL     1      -6.065 -10.993  17.803  0.00  0.00    +0.002 A 
ENDBRANCH   5  14
BRANCH   1   4
ATOM      4  C   UNL     1      -4.072  -9.810   9.387  0.00  0.00    +0.057 C 
ATOM      9  C   UNL     1      -4.594 -10.926   8.477  0.00  0.00    +0.019 C 
ATOM     10  C   UNL     1      -5.226  -9.008   9.996  0.00  0.00    +0.019 C 
ATOM     11  C   UNL     1      -5.523 -10.376   7.396  0.00  0.00    +0.002 C 
ATOM     12  C   UNL     1      -6.155  -8.459   8.914  0.00  0.00    +0.002 C 
ATOM     13  C   UNL     1      -6.668  -9.567   7.999  0.00  0.00    +0.000 C 
ENDBRANCH   1   4
TORSDOF 2
ENDMDL
MODEL 9
REMARK VINA RESULT:      -5.9     26.676     29.146
REMARK  Name = 51137884
REMARK  3 active torsions:
REMARK  status: ('A' for Active; 'I' for Inactive)
REMARK    1  A    between atoms: N_1  and  C_4
REMARK    2  A    between atoms: N_2  and  C_17
REMARK    3  A    between atoms: C_5  and  C_14
REMARK                            x       y       z     vdW  Elec       q    Type
REMARK                         _______ _______ _______ _____ _____    ______ ____
ROOT
ATOM      1  N   UNL     1      -4.273 -11.637  17.079  0.00  0.00    -0.299 NA
ATOM      5  C   UNL     1      -6.276 -10.877  18.036  0.00  0.00    +0.070 C 
ATOM      6  C   UNL     1      -5.094 -10.426  17.166  0.00  0.00    +0.096 C 
ATOM      7  C   UNL     1      -5.227 -12.723  16.855  0.00  0.00    +0.085 C 
ATOM      8  C   UNL     1      -6.345 -12.402  17.839  0.00  0.00    +0.028 C 
ENDROOT
BRANCH   5  14
ATOM      2  N   UNL     1      -8.719 -10.376  18.398  0.00  0.00    -0.330 N 
ATOM      3  N   UNL     1      -7.704  -9.214  16.798  0.00  0.00    -0.232 NA
ATOM     14  C   UNL     1      -7.555 -10.138  17.720  0.00  0.00    +0.115 A 
ATOM     15  C   UNL     1      -9.682  -9.551  17.877  0.00  0.00    +0.069 A 
ATOM     16  C   UNL     1      -9.024  -8.836  16.880  0.00  0.00    +0.089 A 
ATOM     17  C   UNL     1      -8.904 -11.326  19.472  0.00  0.00    +0.150 C 
ATOM     18  C   UNL     1     -11.032  -9.374  18.183  0.00  0.00    +0.028 A 
ATOM     19  C   UNL     1      -9.740  -7.885  16.133  0.00  0.00    +0.030 A 
ATOM     20  C   UNL     1     -11.729  -8.423  17.430  0.00  0.00    +0.002 A 
ATOM     21  C   UNL     1     -11.097  -7.690  16.423  0.00  0.00    +0.002 A 
ENDBRANCH   5  14
BRANCH   1   4
ATOM      4  C   UNL     1      -3.267 -11.553  16.023  0.00  0.00    +0.057 C 
ATOM      9  C   UNL     1      -3.857 -10.854  14.794  0.00  0.00    +0.019 C 
ATOM     10  C   UNL     1      -2.030 -10.812  16.540  0.00  0.00    +0.019 C 
ATOM     11  C   UNL     1      -2.810 -10.679  13.695  0.00  0.00    +0.002 C 
ATOM     12  C   UNL     1      -0.984 -10.638  15.439  0.00  0.00    +0.002 C 
ATOM     13  C   UNL     1      -1.571  -9.951  14.210  0.00  0.00    +0.000 C 
ENDBRANCH   1   4
TORSDOF 2
ENDMDL
MODEL 10
REMARK VINA RESULT:      -5.8     16.777     20.889
REMARK  Name = 51137884
REMARK  3 active torsions:
REMARK  status: ('A' for Active; 'I' for Inactive)
REMARK    1  A    between atoms: N_1  and  C_4
REMARK    2  A    between atoms: N_2  and  C_17
REMARK    3  A    between atoms: C_5  and  C_14
REMARK                            x       y       z     vdW  Elec       q    Type
REMARK                         _______ _______ _______ _____ _____    ______ ____
ROOT
ATOM      1  N   UNL     1      11.952   4.945   0.053  0.00  0.00    -0.299 NA
ATOM      5  C   UNL     1      11.965   6.009   2.144  0.00  0.00    +0.070 C 
ATOM      6  C   UNL     1      11.032   5.346   1.120  0.00  0.00    +0.096 C 
ATOM      7  C   UNL     1      13.112   4.387   0.746  0.00  0.00    +0.085 C 
ATOM      8  C   UNL     1      13.344   5.381   1.876  0.00  0.00    +0.028 C 
ENDROOT
BRANCH   5  14
ATOM      2  N   UNL     1      11.867   6.728   4.557  0.00  0.00    -0.330 N 
ATOM      3  N   UNL     1      10.636   4.960   4.008  0.00  0.00    -0.232 NA
ATOM     14  C   UNL     1      11.471   5.874   3.566  0.00  0.00    +0.115 A 
ATOM     15  C   UNL     1      11.246   6.339   5.717  0.00  0.00    +0.069 A 
ATOM     16  C   UNL     1      10.484   5.234   5.348  0.00  0.00    +0.089 A 
ATOM     17  C   UNL     1      12.776   7.843   4.414  0.00  0.00    +0.150 C 
ATOM     18  C   UNL     1      11.285   6.843   7.017  0.00  0.00    +0.028 A 
ATOM     19  C   UNL     1       9.709   4.581   6.320  0.00  0.00    +0.030 A 
ATOM     20  C   UNL     1      10.507   6.182   7.973  0.00  0.00    +0.002 A 
ATOM     21  C   UNL     1       9.732   5.070   7.633  0.00  0.00    +0.002 A 
ENDBRANCH   5  14
BRANCH   1   4
ATOM      4  C   UNL     1      11.346   3.993  -0.876  0.00  0.00    +0.057 C 
ATOM      9  C   UNL     1      10.691   4.745  -2.039  0.00  0.00    +0.019 C 
ATOM     10  C   UNL     1      12.407   3.010  -1.380  0.00  0.00    +0.019 C 
ATOM     11  C   UNL     1      10.112   3.779  -3.071  0.00  0.00    +0.002 C 
ATOM     12  C   UNL     1      11.826   2.045  -2.412  0.00  0.00    +0.002 C 
ATOM     13  C   UNL     1      11.164   2.790  -3.568  0.00  0.00    +0.000 C 
ENDBRANCH   1   4
TORSDOF 2
ENDMDL
