MODEL 1
REMARK VINA RESULT:      -7.6      0.000      0.000
REMARK  Name = 11886013
REMARK  7 active torsions:
REMARK  status: ('A' for Active; 'I' for Inactive)
REMARK    1  A    between atoms: S_1  and  C_18
REMARK    2  A    between atoms: S_1  and  C_20
REMARK    3  A    between atoms: O_4  and  C_15
REMARK    4  A    between atoms: O_4  and  C_19
REMARK    5  A    between atoms: N_7  and  C_14
REMARK    6  A    between atoms: N_11  and  C_21
REMARK    7  A    between atoms: C_20  and  C_23
REMARK                            x       y       z     vdW  Elec       q    Type
REMARK                         _______ _______ _______ _____ _____    ______ ____
ROOT
ATOM      2  O   UNL     1      15.108   6.350  20.600  0.00  0.00    -0.368 OA
ATOM      3  O   UNL     1      16.009   9.307  20.652  0.00  0.00    -0.368 OA
ATOM     12  C   UNL     1      15.377   8.504  19.631  0.00  0.00    +0.177 C 
ATOM     13  C   UNL     1      15.969   7.112  19.739  0.00  0.00    +0.192 C 
ATOM     14  C   UNL     1      13.910   8.319  19.969  0.00  0.00    +0.168 C 
ATOM     15  C   UNL     1      17.312   7.372  20.380  0.00  0.00    +0.235 C 
ATOM     16  C   UNL     1      13.928   7.109  20.897  0.00  0.00    +0.190 C 
ATOM     17  C   UNL     1      17.000   8.513  21.320  0.00  0.00    +0.207 C 
ENDROOT
BRANCH  14   7
ATOM      7  N   UNL     1      13.074   8.181  18.774  0.00  0.00    -0.212 N 
ATOM      8  N   UNL     1      12.417   7.039  18.541  0.00  0.00    -0.043 NA
ATOM      9  N   UNL     1      12.015   8.510  16.916  0.00  0.00    -0.101 NA
ATOM     10  N   UNL     1      11.770   7.246  17.402  0.00  0.00    -0.022 NA
ATOM     18  C   UNL     1      12.826   9.072  17.784  0.00  0.00    +0.210 A 
BRANCH  18   1
ATOM      1  S   UNL     1      13.487  10.657  17.726  0.00  0.00    -0.077 S 
BRANCH   1  20
ATOM     20  C   UNL     1      14.600  10.536  16.294  0.00  0.00    +0.151 C 
BRANCH  20  23
ATOM      6  O   UNL     1      13.235  11.169  14.420  0.00  0.00    -0.467 OA
ATOM     23  C   UNL     1      14.237  11.540  15.237  0.00  0.00    +0.115 A 
ATOM     29  C   UNL     1      14.729  12.766  14.941  0.00  0.00    +0.045 A 
ATOM     33  C   UNL     1      13.969  13.212  13.834  0.00  0.00    +0.041 A 
ATOM     34  C   UNL     1      13.073  12.206  13.555  0.00  0.00    +0.195 A 
ENDBRANCH  20  23
ENDBRANCH   1  20
ENDBRANCH  18   1
ENDBRANCH  14   7
BRANCH  15   4
ATOM      4  O   UNL     1      17.838   6.254  21.058  0.00  0.00    -0.442 OA
BRANCH   4  19
ATOM      5  O   UNL     1      19.404   6.433  22.715  0.00  0.00    -0.226 OA
ATOM     11  N   UNL     1      20.009   6.358  20.455  0.00  0.00    -0.251 N 
ATOM     19  C   UNL     1      19.133   6.358  21.523  0.00  0.00    +0.405 C 
ATOM     35  H   UNL     1      19.561   6.284  19.549  0.00  0.00    +0.158 HD
BRANCH  11  21
ATOM     21  C   UNL     1      21.419   6.446  20.486  0.00  0.00    +0.044 A 
ATOM     22  C   UNL     1      22.212   5.320  20.724  0.00  0.00    +0.003 A 
ATOM     24  C   UNL     1      21.979   7.698  20.268  0.00  0.00    +0.024 A 
ATOM     25  C   UNL     1      23.620   5.469  20.743  0.00  0.00    -0.016 A 
ATOM     26  C   UNL     1      21.653   4.051  20.945  0.00  0.00    +0.010 A 
ATOM     27  C   UNL     1      23.363   7.845  20.286  0.00  0.00    +0.002 A 
ATOM     28  C   UNL     1      24.179   6.739  20.523  0.00  0.00    +0.008 A 
ATOM     30  C   UNL     1      24.427   4.345  20.983  0.00  0.00    +0.008 A 
ATOM     31  C   UNL     1      22.470   2.945  21.181  0.00  0.00    +0.001 A 
ATOM     32  C   UNL     1      23.854   3.091  21.200  0.00  0.00    +0.001 A 
ENDBRANCH  11  21
ENDBRANCH   4  19
ENDBRANCH  15   4
TORSDOF 7
ENDMDL
MODEL 2
REMARK VINA RESULT:      -7.5     29.802     31.745
REMARK  Name = 11886013
REMARK  7 active torsions:
REMARK  status: ('A' for Active; 'I' for Inactive)
REMARK    1  A    between atoms: S_1  and  C_18
REMARK    2  A    between atoms: S_1  and  C_20
REMARK    3  A    between atoms: O_4  and  C_15
REMARK    4  A    between atoms: O_4  and  C_19
REMARK    5  A    between atoms: N_7  and  C_14
REMARK    6  A    between atoms: N_11  and  C_21
REMARK    7  A    between atoms: C_20  and  C_23
REMARK                            x       y       z     vdW  Elec       q    Type
REMARK                         _______ _______ _______ _____ _____    ______ ____
ROOT
ATOM      2  O   UNL     1     -11.284  -6.859  16.605  0.00  0.00    -0.368 OA
ATOM      3  O   UNL     1     -10.747  -8.663  14.153  0.00  0.00    -0.368 OA
ATOM     12  C   UNL     1     -11.956  -8.064  14.670  0.00  0.00    +0.177 C 
ATOM     13  C   UNL     1     -11.854  -8.108  16.182  0.00  0.00    +0.192 C 
ATOM     14  C   UNL     1     -11.974  -6.586  14.334  0.00  0.00    +0.168 C 
ATOM     15  C   UNL     1     -10.907  -9.262  16.417  0.00  0.00    +0.235 C 
ATOM     16  C   UNL     1     -11.185  -5.969  15.484  0.00  0.00    +0.190 C 
ATOM     17  C   UNL     1      -9.956  -9.135  15.252  0.00  0.00    +0.207 C 
ENDROOT
BRANCH  14   7
ATOM      7  N   UNL     1     -13.332  -6.068  14.155  0.00  0.00    -0.212 N 
ATOM      8  N   UNL     1     -14.346  -6.586  14.856  0.00  0.00    -0.043 NA
ATOM      9  N   UNL     1     -15.079  -4.960  13.518  0.00  0.00    -0.101 NA
ATOM     10  N   UNL     1     -15.414  -5.904  14.462  0.00  0.00    -0.022 NA
ATOM     18  C   UNL     1     -13.782  -5.080  13.344  0.00  0.00    +0.210 A 
BRANCH  18   1
ATOM      1  S   UNL     1     -12.778  -4.170  12.286  0.00  0.00    -0.077 S 
BRANCH   1  20
ATOM     20  C   UNL     1     -12.860  -5.160  10.764  0.00  0.00    +0.151 C 
BRANCH  20  23
ATOM      6  O   UNL     1     -11.040  -6.101   9.509  0.00  0.00    -0.467 OA
ATOM     23  C   UNL     1     -11.631  -4.966   9.922  0.00  0.00    +0.115 A 
ATOM     29  C   UNL     1     -10.992  -3.854   9.491  0.00  0.00    +0.045 A 
ATOM     33  C   UNL     1      -9.893  -4.329   8.735  0.00  0.00    +0.041 A 
ATOM     34  C   UNL     1      -9.967  -5.701   8.776  0.00  0.00    +0.195 A 
ENDBRANCH  20  23
ENDBRANCH   1  20
ENDBRANCH  18   1
ENDBRANCH  14   7
BRANCH  15   4
ATOM      4  O   UNL     1     -10.241  -9.199  17.657  0.00  0.00    -0.442 OA
BRANCH   4  19
ATOM      5  O   UNL     1      -9.618 -11.376  17.976  0.00  0.00    -0.226 OA
ATOM     11  N   UNL     1      -8.069  -9.625  18.097  0.00  0.00    -0.251 N 
ATOM     19  C   UNL     1      -9.318 -10.189  17.921  0.00  0.00    +0.405 C 
ATOM     35  H   UNL     1      -8.053  -8.616  18.004  0.00  0.00    +0.158 HD
BRANCH  11  21
ATOM     21  C   UNL     1      -6.850 -10.279  18.383  0.00  0.00    +0.044 A 
ATOM     22  C   UNL     1      -5.868 -10.445  17.403  0.00  0.00    +0.003 A 
ATOM     24  C   UNL     1      -6.673 -10.746  19.679  0.00  0.00    +0.024 A 
ATOM     25  C   UNL     1      -4.665 -11.108  17.747  0.00  0.00    -0.016 A 
ATOM     26  C   UNL     1      -6.041  -9.975  16.091  0.00  0.00    +0.010 A 
ATOM     27  C   UNL     1      -5.490 -11.398  20.018  0.00  0.00    +0.002 A 
ATOM     28  C   UNL     1      -4.493 -11.579  19.060  0.00  0.00    +0.008 A 
ATOM     30  C   UNL     1      -3.672 -11.282  16.770  0.00  0.00    +0.008 A 
ATOM     31  C   UNL     1      -5.043 -10.156  15.133  0.00  0.00    +0.001 A 
ATOM     32  C   UNL     1      -3.860 -10.808  15.472  0.00  0.00    +0.001 A 
ENDBRANCH  11  21
ENDBRANCH   4  19
ENDBRANCH  15   4
TORSDOF 7
ENDMDL
MODEL 3
REMARK VINA RESULT:      -7.2     28.086     30.228
REMARK  Name = 11886013
REMARK  7 active torsions:
REMARK  status: ('A' for Active; 'I' for Inactive)
REMARK    1  A    between atoms: S_1  and  C_18
REMARK    2  A    between atoms: S_1  and  C_20
REMARK    3  A    between atoms: O_4  and  C_15
REMARK    4  A    between atoms: O_4  and  C_19
REMARK    5  A    between atoms: N_7  and  C_14
REMARK    6  A    between atoms: N_11  and  C_21
REMARK    7  A    between atoms: C_20  and  C_23
REMARK                            x       y       z     vdW  Elec       q    Type
REMARK                         _______ _______ _______ _____ _____    ______ ____
ROOT
ATOM      2  O   UNL     1      -2.319 -10.145  12.512  0.00  0.00    -0.368 OA
ATOM      3  O   UNL     1      -3.112 -12.929  11.428  0.00  0.00    -0.368 OA
ATOM     12  C   UNL     1      -3.843 -11.688  11.539  0.00  0.00    +0.177 C 
ATOM     13  C   UNL     1      -3.400 -11.034  12.833  0.00  0.00    +0.192 C 
ATOM     14  C   UNL     1      -3.385 -10.731  10.455  0.00  0.00    +0.168 C 
ATOM     15  C   UNL     1      -2.929 -12.211  13.656  0.00  0.00    +0.235 C 
ATOM     16  C   UNL     1      -2.169 -10.063  11.088  0.00  0.00    +0.190 C 
ATOM     17  C   UNL     1      -2.313 -13.106  12.606  0.00  0.00    +0.207 C 
ENDROOT
BRANCH  14   7
ATOM      7  N   UNL     1      -4.449  -9.821  10.026  0.00  0.00    -0.212 N 
ATOM      8  N   UNL     1      -4.471  -8.558  10.466  0.00  0.00    -0.043 NA
ATOM      9  N   UNL     1      -6.195  -8.936   9.103  0.00  0.00    -0.101 NA
ATOM     10  N   UNL     1      -5.543  -8.020   9.897  0.00  0.00    -0.022 NA
ATOM     18  C   UNL     1      -5.498 -10.045   9.198  0.00  0.00    +0.210 A 
BRANCH  18   1
ATOM      1  S   UNL     1      -5.813 -11.550   8.428  0.00  0.00    -0.077 S 
BRANCH   1  20
ATOM     20  C   UNL     1      -5.443 -11.155   6.693  0.00  0.00    +0.151 C 
BRANCH  20  23
ATOM      6  O   UNL     1      -3.980 -11.777   4.891  0.00  0.00    -0.467 OA
ATOM     23  C   UNL     1      -4.373 -12.057   6.146  0.00  0.00    +0.115 A 
ATOM     29  C   UNL     1      -3.715 -13.112   6.679  0.00  0.00    +0.045 A 
ATOM     33  C   UNL     1      -2.824 -13.542   5.667  0.00  0.00    +0.041 A 
ATOM     34  C   UNL     1      -3.022 -12.698   4.600  0.00  0.00    +0.195 A 
ENDBRANCH  20  23
ENDBRANCH   1  20
ENDBRANCH  18   1
ENDBRANCH  14   7
BRANCH  15   4
ATOM      4  O   UNL     1      -2.008 -11.862  14.663  0.00  0.00    -0.442 OA
BRANCH   4  19
ATOM      5  O   UNL     1      -1.973 -10.210  16.243  0.00  0.00    -0.226 OA
ATOM     11  N   UNL     1      -3.658 -11.834  16.201  0.00  0.00    -0.251 N 
ATOM     19  C   UNL     1      -2.509 -11.202  15.766  0.00  0.00    +0.405 C 
ATOM     35  H   UNL     1      -3.921 -12.643  15.650  0.00  0.00    +0.158 HD
BRANCH  11  21
ATOM     21  C   UNL     1      -4.483 -11.485  17.295  0.00  0.00    +0.044 A 
ATOM     22  C   UNL     1      -5.678 -10.785  17.109  0.00  0.00    +0.003 A 
ATOM     24  C   UNL     1      -4.052 -11.871  18.557  0.00  0.00    +0.024 A 
ATOM     25  C   UNL     1      -6.463 -10.464  18.243  0.00  0.00    -0.016 A 
ATOM     26  C   UNL     1      -6.118 -10.392  15.836  0.00  0.00    +0.010 A 
ATOM     27  C   UNL     1      -4.825 -11.556  19.672  0.00  0.00    +0.002 A 
ATOM     28  C   UNL     1      -6.021 -10.857  19.517  0.00  0.00    +0.008 A 
ATOM     30  C   UNL     1      -7.665  -9.759  18.069  0.00  0.00    +0.008 A 
ATOM     31  C   UNL     1      -7.315  -9.692  15.681  0.00  0.00    +0.001 A 
ATOM     32  C   UNL     1      -8.088  -9.376  16.795  0.00  0.00    +0.001 A 
ENDBRANCH  11  21
ENDBRANCH   4  19
ENDBRANCH  15   4
TORSDOF 7
ENDMDL
MODEL 4
REMARK VINA RESULT:      -7.1     28.300     30.686
REMARK  Name = 11886013
REMARK  7 active torsions:
REMARK  status: ('A' for Active; 'I' for Inactive)
REMARK    1  A    between atoms: S_1  and  C_18
REMARK    2  A    between atoms: S_1  and  C_20
REMARK    3  A    between atoms: O_4  and  C_15
REMARK    4  A    between atoms: O_4  and  C_19
REMARK    5  A    between atoms: N_7  and  C_14
REMARK    6  A    between atoms: N_11  and  C_21
REMARK    7  A    between atoms: C_20  and  C_23
REMARK                            x       y       z     vdW  Elec       q    Type
REMARK                         _______ _______ _______ _____ _____    ______ ____
ROOT
ATOM      2  O   UNL     1      -5.089  -9.275  12.184  0.00  0.00    -0.368 OA
ATOM      3  O   UNL     1      -2.995 -10.076  10.055  0.00  0.00    -0.368 OA
ATOM     12  C   UNL     1      -4.354 -10.508  10.289  0.00  0.00    +0.177 C 
ATOM     13  C   UNL     1      -4.548 -10.547  11.792  0.00  0.00    +0.192 C 
ATOM     14  C   UNL     1      -5.316  -9.437   9.810  0.00  0.00    +0.168 C 
ATOM     15  C   UNL     1      -3.139 -10.736  12.304  0.00  0.00    +0.235 C 
ATOM     16  C   UNL     1      -5.412  -8.508  11.016  0.00  0.00    +0.190 C 
ATOM     17  C   UNL     1      -2.332  -9.925  11.318  0.00  0.00    +0.207 C 
ENDROOT
BRANCH  14   7
ATOM      7  N   UNL     1      -6.587  -9.995   9.345  0.00  0.00    -0.212 N 
ATOM      8  N   UNL     1      -7.540 -10.322  10.224  0.00  0.00    -0.043 NA
ATOM      9  N   UNL     1      -8.221 -10.755   8.146  0.00  0.00    -0.101 NA
ATOM     10  N   UNL     1      -8.539 -10.787   9.485  0.00  0.00    -0.022 NA
ATOM     18  C   UNL     1      -7.006 -10.259   8.083  0.00  0.00    +0.210 A 
BRANCH  18   1
ATOM      1  S   UNL     1      -6.063  -9.972   6.675  0.00  0.00    -0.077 S 
BRANCH   1  20
ATOM     20  C   UNL     1      -4.958 -11.416   6.675  0.00  0.00    +0.151 C 
BRANCH  20  23
ATOM      6  O   UNL     1      -3.331 -12.090   5.041  0.00  0.00    -0.467 OA
ATOM     23  C   UNL     1      -4.634 -11.852   5.275  0.00  0.00    +0.115 A 
ATOM     29  C   UNL     1      -5.409 -12.058   4.185  0.00  0.00    +0.045 A 
ATOM     33  C   UNL     1      -4.514 -12.461   3.166  0.00  0.00    +0.041 A 
ATOM     34  C   UNL     1      -3.263 -12.467   3.736  0.00  0.00    +0.195 A 
ENDBRANCH  20  23
ENDBRANCH   1  20
ENDBRANCH  18   1
ENDBRANCH  14   7
BRANCH  15   4
ATOM      4  O   UNL     1      -2.958 -10.294  13.630  0.00  0.00    -0.442 OA
BRANCH   4  19
ATOM      5  O   UNL     1      -3.597 -12.299  14.524  0.00  0.00    -0.226 OA
ATOM     11  N   UNL     1      -3.845 -10.293  15.704  0.00  0.00    -0.251 N 
ATOM     19  C   UNL     1      -3.487 -11.083  14.629  0.00  0.00    +0.405 C 
ATOM     35  H   UNL     1      -3.661  -9.305  15.572  0.00  0.00    +0.158 HD
BRANCH  11  21
ATOM     21  C   UNL     1      -4.420 -10.697  16.930  0.00  0.00    +0.044 A 
ATOM     22  C   UNL     1      -5.746 -10.390  17.246  0.00  0.00    +0.003 A 
ATOM     24  C   UNL     1      -3.609 -11.412  17.801  0.00  0.00    +0.024 A 
ATOM     25  C   UNL     1      -6.268 -10.823  18.489  0.00  0.00    -0.016 A 
ATOM     26  C   UNL     1      -6.571  -9.668  16.369  0.00  0.00    +0.010 A 
ATOM     27  C   UNL     1      -4.123 -11.838  19.024  0.00  0.00    +0.002 A 
ATOM     28  C   UNL     1      -5.442 -11.545  19.366  0.00  0.00    +0.008 A 
ATOM     30  C   UNL     1      -7.599 -10.519  18.818  0.00  0.00    +0.008 A 
ATOM     31  C   UNL     1      -7.891  -9.376  16.713  0.00  0.00    +0.001 A 
ATOM     32  C   UNL     1      -8.405  -9.801  17.934  0.00  0.00    +0.001 A 
ENDBRANCH  11  21
ENDBRANCH   4  19
ENDBRANCH  15   4
TORSDOF 7
ENDMDL
MODEL 5
REMARK VINA RESULT:      -7.1     28.604     31.628
REMARK  Name = 11886013
REMARK  7 active torsions:
REMARK  status: ('A' for Active; 'I' for Inactive)
REMARK    1  A    between atoms: S_1  and  C_18
REMARK    2  A    between atoms: S_1  and  C_20
REMARK    3  A    between atoms: O_4  and  C_15
REMARK    4  A    between atoms: O_4  and  C_19
REMARK    5  A    between atoms: N_7  and  C_14
REMARK    6  A    between atoms: N_11  and  C_21
REMARK    7  A    between atoms: C_20  and  C_23
REMARK                            x       y       z     vdW  Elec       q    Type
REMARK                         _______ _______ _______ _____ _____    ______ ____
ROOT
ATOM      2  O   UNL     1      -7.049 -11.530  16.770  0.00  0.00    -0.368 OA
ATOM      3  O   UNL     1      -6.748 -11.068  19.812  0.00  0.00    -0.368 OA
ATOM     12  C   UNL     1      -7.236 -10.223  18.746  0.00  0.00    +0.177 C 
ATOM     13  C   UNL     1      -6.378 -10.513  17.530  0.00  0.00    +0.192 C 
ATOM     14  C   UNL     1      -8.628 -10.668  18.343  0.00  0.00    +0.168 C 
ATOM     15  C   UNL     1      -5.097 -11.029  18.143  0.00  0.00    +0.235 C 
ATOM     16  C   UNL     1      -8.348 -11.772  17.329  0.00  0.00    +0.190 C 
ATOM     17  C   UNL     1      -5.604 -11.794  19.342  0.00  0.00    +0.207 C 
ENDROOT
BRANCH  14   7
ATOM      7  N   UNL     1      -9.451  -9.559  17.853  0.00  0.00    -0.212 N 
ATOM      8  N   UNL     1      -8.874  -8.494  17.288  0.00  0.00    -0.043 NA
ATOM      9  N   UNL     1     -11.089  -8.250  17.321  0.00  0.00    -0.101 NA
ATOM     10  N   UNL     1      -9.882  -7.694  16.963  0.00  0.00    -0.022 NA
ATOM     18  C   UNL     1     -10.797  -9.407  17.871  0.00  0.00    +0.210 A 
BRANCH  18   1
ATOM      1  S   UNL     1     -11.889 -10.567  18.517  0.00  0.00    -0.077 S 
BRANCH   1  20
ATOM     20  C   UNL     1     -12.029 -10.014  20.243  0.00  0.00    +0.151 C 
BRANCH  20  23
ATOM      6  O   UNL     1     -13.441 -11.447  21.557  0.00  0.00    -0.467 OA
ATOM     23  C   UNL     1     -13.384 -10.331  20.808  0.00  0.00    +0.115 A 
ATOM     29  C   UNL     1     -14.580  -9.704  20.709  0.00  0.00    +0.045 A 
ATOM     33  C   UNL     1     -15.477 -10.496  21.464  0.00  0.00    +0.041 A 
ATOM     34  C   UNL     1     -14.736 -11.543  21.961  0.00  0.00    +0.195 A 
ENDBRANCH  20  23
ENDBRANCH   1  20
ENDBRANCH  18   1
ENDBRANCH  14   7
BRANCH  15   4
ATOM      4  O   UNL     1      -4.344 -11.842  17.273  0.00  0.00    -0.442 OA
BRANCH   4  19
ATOM      5  O   UNL     1      -2.699 -10.441  16.527  0.00  0.00    -0.226 OA
ATOM     11  N   UNL     1      -4.123 -11.561  15.046  0.00  0.00    -0.251 N 
ATOM     19  C   UNL     1      -3.627 -11.201  16.284  0.00  0.00    +0.405 C 
ATOM     35  H   UNL     1      -4.900 -12.210  15.082  0.00  0.00    +0.158 HD
BRANCH  11  21
ATOM     21  C   UNL     1      -3.679 -11.137  13.773  0.00  0.00    +0.044 A 
ATOM     22  C   UNL     1      -4.500 -10.380  12.932  0.00  0.00    +0.003 A 
ATOM     24  C   UNL     1      -2.394 -11.505  13.398  0.00  0.00    +0.024 A 
ATOM     25  C   UNL     1      -4.000  -9.984  11.668  0.00  0.00    -0.016 A 
ATOM     26  C   UNL     1      -5.800 -10.005  13.305  0.00  0.00    +0.010 A 
ATOM     27  C   UNL     1      -1.902 -11.114  12.155  0.00  0.00    +0.002 A 
ATOM     28  C   UNL     1      -2.699 -10.360  11.295  0.00  0.00    +0.008 A 
ATOM     30  C   UNL     1      -4.817  -9.224  10.814  0.00  0.00    +0.008 A 
ATOM     31  C   UNL     1      -6.597  -9.250  12.444  0.00  0.00    +0.001 A 
ATOM     32  C   UNL     1      -6.107  -8.860  11.201  0.00  0.00    +0.001 A 
ENDBRANCH  11  21
ENDBRANCH   4  19
ENDBRANCH  15   4
TORSDOF 7
ENDMDL
MODEL 6
REMARK VINA RESULT:      -7.1      4.216     10.646
REMARK  Name = 11886013
REMARK  7 active torsions:
REMARK  status: ('A' for Active; 'I' for Inactive)
REMARK    1  A    between atoms: S_1  and  C_18
REMARK    2  A    between atoms: S_1  and  C_20
REMARK    3  A    between atoms: O_4  and  C_15
REMARK    4  A    between atoms: O_4  and  C_19
REMARK    5  A    between atoms: N_7  and  C_14
REMARK    6  A    between atoms: N_11  and  C_21
REMARK    7  A    between atoms: C_20  and  C_23
REMARK                            x       y       z     vdW  Elec       q    Type
REMARK                         _______ _______ _______ _____ _____    ______ ____
ROOT
ATOM      2  O   UNL     1      19.171   6.252  20.435  0.00  0.00    -0.368 OA
ATOM      3  O   UNL     1      18.727   8.962  21.852  0.00  0.00    -0.368 OA
ATOM     12  C   UNL     1      19.210   7.687  22.329  0.00  0.00    +0.177 C 
ATOM     13  C   UNL     1      18.418   6.619  21.601  0.00  0.00    +0.192 C 
ATOM     14  C   UNL     1      20.639   7.481  21.864  0.00  0.00    +0.168 C 
ATOM     15  C   UNL     1      17.143   7.343  21.237  0.00  0.00    +0.235 C 
ATOM     16  C   UNL     1      20.458   6.884  20.473  0.00  0.00    +0.190 C 
ATOM     17  C   UNL     1      17.642   8.737  20.942  0.00  0.00    +0.207 C 
ENDROOT
BRANCH  14   7
ATOM      7  N   UNL     1      21.420   6.668  22.800  0.00  0.00    -0.212 N 
ATOM      8  N   UNL     1      20.843   6.164  23.896  0.00  0.00    -0.043 NA
ATOM      9  N   UNL     1      22.991   5.572  23.807  0.00  0.00    -0.101 NA
ATOM     10  N   UNL     1      21.810   5.493  24.510  0.00  0.00    -0.022 NA
ATOM     18  C   UNL     1      22.725   6.305  22.750  0.00  0.00    +0.210 A 
BRANCH  18   1
ATOM      1  S   UNL     1      23.803   6.757  21.490  0.00  0.00    -0.077 S 
BRANCH   1  20
ATOM     20  C   UNL     1      25.211   5.650  21.801  0.00  0.00    +0.151 C 
BRANCH  20  23
ATOM      6  O   UNL     1      25.249   4.324  19.798  0.00  0.00    -0.467 OA
ATOM     23  C   UNL     1      25.020   4.323  21.123  0.00  0.00    +0.115 A 
ATOM     29  C   UNL     1      24.658   3.107  21.593  0.00  0.00    +0.045 A 
ATOM     33  C   UNL     1      24.655   2.259  20.460  0.00  0.00    +0.041 A 
ATOM     34  C   UNL     1      25.022   3.045  19.393  0.00  0.00    +0.195 A 
ENDBRANCH  20  23
ENDBRANCH   1  20
ENDBRANCH  18   1
ENDBRANCH  14   7
BRANCH  15   4
ATOM      4  O   UNL     1      16.468   6.776  20.137  0.00  0.00    -0.442 OA
BRANCH   4  19
ATOM      5  O   UNL     1      14.640   7.351  18.889  0.00  0.00    -0.226 OA
ATOM     11  N   UNL     1      14.515   7.111  21.214  0.00  0.00    -0.251 N 
ATOM     19  C   UNL     1      15.138   7.108  19.981  0.00  0.00    +0.405 C 
ATOM     35  H   UNL     1      15.124   6.876  21.988  0.00  0.00    +0.158 HD
BRANCH  11  21
ATOM     21  C   UNL     1      13.161   7.395  21.504  0.00  0.00    +0.044 A 
ATOM     22  C   UNL     1      12.760   8.663  21.935  0.00  0.00    +0.003 A 
ATOM     24  C   UNL     1      12.250   6.359  21.342  0.00  0.00    +0.024 A 
ATOM     25  C   UNL     1      11.390   8.888  22.210  0.00  0.00    -0.016 A 
ATOM     26  C   UNL     1      13.676   9.714  22.101  0.00  0.00    +0.010 A 
ATOM     27  C   UNL     1      10.902   6.581  21.612  0.00  0.00    +0.002 A 
ATOM     28  C   UNL     1      10.475   7.836  22.044  0.00  0.00    +0.008 A 
ATOM     30  C   UNL     1      10.976  10.158  22.644  0.00  0.00    +0.008 A 
ATOM     31  C   UNL     1      13.247  10.969  22.533  0.00  0.00    +0.001 A 
ATOM     32  C   UNL     1      11.900  11.191  22.804  0.00  0.00    +0.001 A 
ENDBRANCH  11  21
ENDBRANCH   4  19
ENDBRANCH  15   4
TORSDOF 7
ENDMDL
MODEL 7
REMARK VINA RESULT:      -7.1     28.733     30.609
REMARK  Name = 11886013
REMARK  7 active torsions:
REMARK  status: ('A' for Active; 'I' for Inactive)
REMARK    1  A    between atoms: S_1  and  C_18
REMARK    2  A    between atoms: S_1  and  C_20
REMARK    3  A    between atoms: O_4  and  C_15
REMARK    4  A    between atoms: O_4  and  C_19
REMARK    5  A    between atoms: N_7  and  C_14
REMARK    6  A    between atoms: N_11  and  C_21
REMARK    7  A    between atoms: C_20  and  C_23
REMARK                            x       y       z     vdW  Elec       q    Type
REMARK                         _______ _______ _______ _____ _____    ______ ____
ROOT
ATOM      2  O   UNL     1      -5.424  -8.990  11.818  0.00  0.00    -0.368 OA
ATOM      3  O   UNL     1      -3.671 -10.232   9.595  0.00  0.00    -0.368 OA
ATOM     12  C   UNL     1      -5.069 -10.385   9.927  0.00  0.00    +0.177 C 
ATOM     13  C   UNL     1      -5.166 -10.351  11.440  0.00  0.00    +0.192 C 
ATOM     14  C   UNL     1      -5.836  -9.159   9.470  0.00  0.00    +0.168 C 
ATOM     15  C   UNL     1      -3.789 -10.799  11.871  0.00  0.00    +0.235 C 
ATOM     16  C   UNL     1      -5.670  -8.201  10.645  0.00  0.00    +0.190 C 
ATOM     17  C   UNL     1      -2.908 -10.184  10.809  0.00  0.00    +0.207 C 
ENDROOT
BRANCH  14   7
ATOM      7  N   UNL     1      -7.220  -9.469   9.104  0.00  0.00    -0.212 N 
ATOM      8  N   UNL     1      -7.709 -10.697   9.304  0.00  0.00    -0.043 NA
ATOM      9  N   UNL     1      -9.264  -9.379   8.401  0.00  0.00    -0.101 NA
ATOM     10  N   UNL     1      -8.963 -10.637   8.872  0.00  0.00    -0.022 NA
ATOM     18  C   UNL     1      -8.168  -8.672   8.555  0.00  0.00    +0.210 A 
BRANCH  18   1
ATOM      1  S   UNL     1      -7.922  -7.019   8.151  0.00  0.00    -0.077 S 
BRANCH   1  20
ATOM     20  C   UNL     1      -9.506  -6.597   7.364  0.00  0.00    +0.151 C 
BRANCH  20  23
ATOM      6  O   UNL     1     -11.563  -5.794   8.311  0.00  0.00    -0.467 OA
ATOM     23  C   UNL     1     -10.248  -5.559   8.157  0.00  0.00    +0.115 A 
ATOM     29  C   UNL     1      -9.845  -4.415   8.757  0.00  0.00    +0.045 A 
ATOM     33  C   UNL     1     -11.014  -3.875   9.345  0.00  0.00    +0.041 A 
ATOM     34  C   UNL     1     -12.031  -4.751   9.046  0.00  0.00    +0.195 A 
ENDBRANCH  20  23
ENDBRANCH   1  20
ENDBRANCH  18   1
ENDBRANCH  14   7
BRANCH  15   4
ATOM      4  O   UNL     1      -3.437 -10.370  13.166  0.00  0.00    -0.442 OA
BRANCH   4  19
ATOM      5  O   UNL     1      -4.155 -12.317  14.127  0.00  0.00    -0.226 OA
ATOM     11  N   UNL     1      -4.048 -10.316  15.337  0.00  0.00    -0.251 N 
ATOM     19  C   UNL     1      -3.911 -11.120  14.222  0.00  0.00    +0.405 C 
ATOM     35  H   UNL     1      -3.784  -9.349  15.186  0.00  0.00    +0.158 HD
BRANCH  11  21
ATOM     21  C   UNL     1      -4.501 -10.682  16.625  0.00  0.00    +0.044 A 
ATOM     22  C   UNL     1      -5.798 -10.384  17.051  0.00  0.00    +0.003 A 
ATOM     24  C   UNL     1      -3.599 -11.350  17.444  0.00  0.00    +0.024 A 
ATOM     25  C   UNL     1      -6.195 -10.777  18.352  0.00  0.00    -0.016 A 
ATOM     26  C   UNL     1      -6.713  -9.710  16.228  0.00  0.00    +0.010 A 
ATOM     27  C   UNL     1      -3.990 -11.736  18.723  0.00  0.00    +0.002 A 
ATOM     28  C   UNL     1      -5.278 -11.451  19.176  0.00  0.00    +0.008 A 
ATOM     30  C   UNL     1      -7.495 -10.482  18.792  0.00  0.00    +0.008 A 
ATOM     31  C   UNL     1      -8.002  -9.426  16.682  0.00  0.00    +0.001 A 
ATOM     32  C   UNL     1      -8.393  -9.811  17.961  0.00  0.00    +0.001 A 
ENDBRANCH  11  21
ENDBRANCH   4  19
ENDBRANCH  15   4
TORSDOF 7
ENDMDL
MODEL 8
REMARK VINA RESULT:      -7.1      0.657      2.212
REMARK  Name = 11886013
REMARK  7 active torsions:
REMARK  status: ('A' for Active; 'I' for Inactive)
REMARK    1  A    between atoms: S_1  and  C_18
REMARK    2  A    between atoms: S_1  and  C_20
REMARK    3  A    between atoms: O_4  and  C_15
REMARK    4  A    between atoms: O_4  and  C_19
REMARK    5  A    between atoms: N_7  and  C_14
REMARK    6  A    between atoms: N_11  and  C_21
REMARK    7  A    between atoms: C_20  and  C_23
REMARK                            x       y       z     vdW  Elec       q    Type
REMARK                         _______ _______ _______ _____ _____    ______ ____
ROOT
ATOM      2  O   UNL     1      15.156   6.330  20.633  0.00  0.00    -0.368 OA
ATOM      3  O   UNL     1      16.076   9.281  20.689  0.00  0.00    -0.368 OA
ATOM     12  C   UNL     1      15.440   8.483  19.666  0.00  0.00    +0.177 C 
ATOM     13  C   UNL     1      16.022   7.088  19.774  0.00  0.00    +0.192 C 
ATOM     14  C   UNL     1      13.971   8.307  20.002  0.00  0.00    +0.168 C 
ATOM     15  C   UNL     1      17.366   7.338  20.416  0.00  0.00    +0.235 C 
ATOM     16  C   UNL     1      13.981   7.097  20.930  0.00  0.00    +0.190 C 
ATOM     17  C   UNL     1      17.061   8.480  21.357  0.00  0.00    +0.207 C 
ENDROOT
BRANCH  14   7
ATOM      7  N   UNL     1      13.135   8.175  18.806  0.00  0.00    -0.212 N 
ATOM      8  N   UNL     1      12.487   7.031  18.562  0.00  0.00    -0.043 NA
ATOM      9  N   UNL     1      12.073   8.517  16.953  0.00  0.00    -0.101 NA
ATOM     10  N   UNL     1      11.837   7.246  17.425  0.00  0.00    -0.022 NA
ATOM     18  C   UNL     1      12.880   9.075  17.826  0.00  0.00    +0.210 A 
BRANCH  18   1
ATOM      1  S   UNL     1      13.531  10.666  17.785  0.00  0.00    -0.077 S 
BRANCH   1  20
ATOM     20  C   UNL     1      14.689  10.550  16.389  0.00  0.00    +0.151 C 
BRANCH  20  23
ATOM      6  O   UNL     1      13.209  11.067  14.568  0.00  0.00    -0.467 OA
ATOM     23  C   UNL     1      14.285  11.466  15.269  0.00  0.00    +0.115 A 
ATOM     29  C   UNL     1      14.801  12.634  14.820  0.00  0.00    +0.045 A 
ATOM     33  C   UNL     1      13.975  13.009  13.733  0.00  0.00    +0.041 A 
ATOM     34  C   UNL     1      13.022  12.024  13.621  0.00  0.00    +0.195 A 
ENDBRANCH  20  23
ENDBRANCH   1  20
ENDBRANCH  18   1
ENDBRANCH  14   7
BRANCH  15   4
ATOM      4  O   UNL     1      17.885   6.216  21.094  0.00  0.00    -0.442 OA
BRANCH   4  19
ATOM      5  O   UNL     1      19.480   6.373  22.724  0.00  0.00    -0.226 OA
ATOM     11  N   UNL     1      20.047   6.288  20.455  0.00  0.00    -0.251 N 
ATOM     19  C   UNL     1      19.188   6.301  21.537  0.00  0.00    +0.405 C 
ATOM     35  H   UNL     1      19.583   6.219  19.557  0.00  0.00    +0.158 HD
BRANCH  11  21
ATOM     21  C   UNL     1      21.459   6.355  20.463  0.00  0.00    +0.044 A 
ATOM     22  C   UNL     1      22.128   7.581  20.471  0.00  0.00    +0.003 A 
ATOM     24  C   UNL     1      22.148   5.149  20.462  0.00  0.00    +0.024 A 
ATOM     25  C   UNL     1      23.544   7.586  20.479  0.00  0.00    -0.016 A 
ATOM     26  C   UNL     1      21.437   8.804  20.471  0.00  0.00    +0.010 A 
ATOM     27  C   UNL     1      23.540   5.153  20.471  0.00  0.00    +0.002 A 
ATOM     28  C   UNL     1      24.234   6.363  20.478  0.00  0.00    +0.008 A 
ATOM     30  C   UNL     1      24.227   8.813  20.486  0.00  0.00    +0.008 A 
ATOM     31  C   UNL     1      22.132  10.013  20.478  0.00  0.00    +0.001 A 
ATOM     32  C   UNL     1      23.524  10.018  20.486  0.00  0.00    +0.001 A 
ENDBRANCH  11  21
ENDBRANCH   4  19
ENDBRANCH  15   4
TORSDOF 7
ENDMDL
MODEL 9
REMARK VINA RESULT:      -7.0      4.339     10.935
REMARK  Name = 11886013
REMARK  7 active torsions:
REMARK  status: ('A' for Active; 'I' for Inactive)
REMARK    1  A    between atoms: S_1  and  C_18
REMARK    2  A    between atoms: S_1  and  C_20
REMARK    3  A    between atoms: O_4  and  C_15
REMARK    4  A    between atoms: O_4  and  C_19
REMARK    5  A    between atoms: N_7  and  C_14
REMARK    6  A    between atoms: N_11  and  C_21
REMARK    7  A    between atoms: C_20  and  C_23
REMARK                            x       y       z     vdW  Elec       q    Type
REMARK                         _______ _______ _______ _____ _____    ______ ____
ROOT
ATOM      2  O   UNL     1      19.167   6.273  20.263  0.00  0.00    -0.368 OA
ATOM      3  O   UNL     1      18.840   8.732  22.107  0.00  0.00    -0.368 OA
ATOM     12  C   UNL     1      19.175   7.353  22.380  0.00  0.00    +0.177 C 
ATOM     13  C   UNL     1      18.357   6.507  21.425  0.00  0.00    +0.192 C 
ATOM     14  C   UNL     1      20.614   7.092  21.979  0.00  0.00    +0.168 C 
ATOM     15  C   UNL     1      17.180   7.403  21.113  0.00  0.00    +0.235 C 
ATOM     16  C   UNL     1      20.496   6.762  20.495  0.00  0.00    +0.190 C 
ATOM     17  C   UNL     1      17.817   8.772  21.103  0.00  0.00    +0.207 C 
ENDROOT
BRANCH  14   7
ATOM      7  N   UNL     1      21.247   6.060  22.803  0.00  0.00    -0.212 N 
ATOM      8  N   UNL     1      21.387   4.817  22.332  0.00  0.00    -0.043 NA
ATOM      9  N   UNL     1      22.222   4.964  24.394  0.00  0.00    -0.101 NA
ATOM     10  N   UNL     1      21.985   4.149  23.311  0.00  0.00    -0.022 NA
ATOM     18  C   UNL     1      21.755   6.145  24.057  0.00  0.00    +0.210 A 
BRANCH  18   1
ATOM      1  S   UNL     1      21.763   7.583  24.998  0.00  0.00    -0.077 S 
BRANCH   1  20
ATOM     20  C   UNL     1      20.417   7.256  26.175  0.00  0.00    +0.151 C 
BRANCH  20  23
ATOM      6  O   UNL     1      22.162   7.039  27.813  0.00  0.00    -0.467 OA
ATOM     23  C   UNL     1      20.939   6.628  27.436  0.00  0.00    +0.115 A 
ATOM     29  C   UNL     1      20.409   5.714  28.282  0.00  0.00    +0.045 A 
ATOM     33  C   UNL     1      21.388   5.528  29.287  0.00  0.00    +0.041 A 
ATOM     34  C   UNL     1      22.435   6.357  28.957  0.00  0.00    +0.195 A 
ENDBRANCH  20  23
ENDBRANCH   1  20
ENDBRANCH  18   1
ENDBRANCH  14   7
BRANCH  15   4
ATOM      4  O   UNL     1      16.551   7.100  19.889  0.00  0.00    -0.442 OA
BRANCH   4  19
ATOM      5  O   UNL     1      14.653   7.628  18.728  0.00  0.00    -0.226 OA
ATOM     11  N   UNL     1      14.629   7.329  21.049  0.00  0.00    -0.251 N 
ATOM     19  C   UNL     1      15.204   7.380  19.794  0.00  0.00    +0.405 C 
ATOM     35  H   UNL     1      15.278   7.101  21.794  0.00  0.00    +0.158 HD
BRANCH  11  21
ATOM     21  C   UNL     1      13.278   7.550  21.399  0.00  0.00    +0.044 A 
ATOM     22  C   UNL     1      12.859   8.764  21.950  0.00  0.00    +0.003 A 
ATOM     24  C   UNL     1      12.388   6.508  21.169  0.00  0.00    +0.024 A 
ATOM     25  C   UNL     1      11.492   8.928  22.279  0.00  0.00    -0.016 A 
ATOM     26  C   UNL     1      13.754   9.820  22.184  0.00  0.00    +0.010 A 
ATOM     27  C   UNL     1      11.044   6.669  21.493  0.00  0.00    +0.002 A 
ATOM     28  C   UNL     1      10.598   7.870  22.045  0.00  0.00    +0.008 A 
ATOM     30  C   UNL     1      11.060  10.143  22.835  0.00  0.00    +0.008 A 
ATOM     31  C   UNL     1      13.307  11.021  22.736  0.00  0.00    +0.001 A 
ATOM     32  C   UNL     1      11.963  11.183  23.061  0.00  0.00    +0.001 A 
ENDBRANCH  11  21
ENDBRANCH   4  19
ENDBRANCH  15   4
TORSDOF 7
ENDMDL
MODEL 10
REMARK VINA RESULT:      -6.9      2.843      4.531
REMARK  Name = 11886013
REMARK  7 active torsions:
REMARK  status: ('A' for Active; 'I' for Inactive)
REMARK    1  A    between atoms: S_1  and  C_18
REMARK    2  A    between atoms: S_1  and  C_20
REMARK    3  A    between atoms: O_4  and  C_15
REMARK    4  A    between atoms: O_4  and  C_19
REMARK    5  A    between atoms: N_7  and  C_14
REMARK    6  A    between atoms: N_11  and  C_21
REMARK    7  A    between atoms: C_20  and  C_23
REMARK                            x       y       z     vdW  Elec       q    Type
REMARK                         _______ _______ _______ _____ _____    ______ ____
ROOT
ATOM      2  O   UNL     1      19.252   8.463  22.231  0.00  0.00    -0.368 OA
ATOM      3  O   UNL     1      18.729   6.408  19.983  0.00  0.00    -0.368 OA
ATOM     12  C   UNL     1      17.897   6.907  21.053  0.00  0.00    +0.177 C 
ATOM     13  C   UNL     1      18.799   7.101  22.255  0.00  0.00    +0.192 C 
ATOM     14  C   UNL     1      17.415   8.304  20.712  0.00  0.00    +0.168 C 
ATOM     15  C   UNL     1      19.927   6.133  21.983  0.00  0.00    +0.235 C 
ATOM     16  C   UNL     1      18.560   9.184  21.202  0.00  0.00    +0.190 C 
ATOM     17  C   UNL     1      20.060   6.215  20.480  0.00  0.00    +0.207 C 
ENDROOT
BRANCH  14   7
ATOM      7  N   UNL     1      16.102   8.600  21.290  0.00  0.00    -0.212 N 
ATOM      8  N   UNL     1      15.973   9.573  22.198  0.00  0.00    -0.043 NA
ATOM      9  N   UNL     1      14.000   8.614  21.802  0.00  0.00    -0.101 NA
ATOM     10  N   UNL     1      14.682   9.578  22.508  0.00  0.00    -0.022 NA
ATOM     18  C   UNL     1      14.901   8.021  21.052  0.00  0.00    +0.210 A 
BRANCH  18   1
ATOM      1  S   UNL     1      14.657   6.730  19.944  0.00  0.00    -0.077 S 
BRANCH   1  20
ATOM     20  C   UNL     1      13.061   7.185  19.201  0.00  0.00    +0.151 C 
BRANCH  20  23
ATOM      6  O   UNL     1      13.626   7.698  16.922  0.00  0.00    -0.467 OA
ATOM     23  C   UNL     1      13.240   8.200  18.108  0.00  0.00    +0.115 A 
ATOM     29  C   UNL     1      13.085   9.544  18.083  0.00  0.00    +0.045 A 
ATOM     33  C   UNL     1      13.404   9.929  16.759  0.00  0.00    +0.041 A 
ATOM     34  C   UNL     1      13.725   8.770  16.092  0.00  0.00    +0.195 A 
ENDBRANCH  20  23
ENDBRANCH   1  20
ENDBRANCH  18   1
ENDBRANCH  14   7
BRANCH  15   4
ATOM      4  O   UNL     1      21.127   6.467  22.641  0.00  0.00    -0.442 OA
BRANCH   4  19
ATOM      5  O   UNL     1      23.311   6.165  22.034  0.00  0.00    -0.226 OA
ATOM     11  N   UNL     1      21.907   4.354  22.514  0.00  0.00    -0.251 N 
ATOM     19  C   UNL     1      22.231   5.688  22.362  0.00  0.00    +0.405 C 
ATOM     35  H   UNL     1      20.948   4.189  22.796  0.00  0.00    +0.158 HD
BRANCH  11  21
ATOM     21  C   UNL     1      22.742   3.229  22.328  0.00  0.00    +0.044 A 
ATOM     22  C   UNL     1      23.128   2.425  23.404  0.00  0.00    +0.003 A 
ATOM     24  C   UNL     1      23.157   2.959  21.030  0.00  0.00    +0.024 A 
ATOM     25  C   UNL     1      23.965   1.310  23.156  0.00  0.00    -0.016 A 
ATOM     26  C   UNL     1      22.711   2.692  24.717  0.00  0.00    +0.010 A 
ATOM     27  C   UNL     1      23.980   1.863  20.786  0.00  0.00    +0.002 A 
ATOM     28  C   UNL     1      24.382   1.044  21.841  0.00  0.00    +0.008 A 
ATOM     30  C   UNL     1      24.361   0.496  24.229  0.00  0.00    +0.008 A 
ATOM     31  C   UNL     1      23.114   1.872  25.772  0.00  0.00    +0.001 A 
ATOM     32  C   UNL     1      23.937   0.776  25.529  0.00  0.00    +0.001 A 
ENDBRANCH  11  21
ENDBRANCH   4  19
ENDBRANCH  15   4
TORSDOF 7
ENDMDL
