REMARK  Name = 75367690
REMARK  6 active torsions:
REMARK  status: ('A' for Active; 'I' for Inactive)
REMARK    1  A    between atoms: S_1  and  C_20
REMARK    2  A    between atoms: S_1  and  C_25
REMARK    3  A    between atoms: O_3  and  C_10
REMARK    4  A    between atoms: O_3  and  C_16
REMARK    5  A    between atoms: C_15  and  C_17
REMARK    6  A    between atoms: C_24  and  C_26
REMARK                            x       y       z     vdW  Elec       q    Type
REMARK                         _______ _______ _______ _____ _____    ______ ____
ROOT
ATOM      2  O   UNL     1       0.904  -3.516  -0.602  0.00  0.00    -0.375 OA
ATOM      4  O   UNL     1       4.749  -1.334   1.337  0.00  0.00    -0.268 OA
ATOM      8  N   UNL     1       2.496  -1.160   0.716  0.00  0.00    -0.290 N 
ATOM     10  C   UNL     1       0.240  -1.172  -0.478  0.00  0.00    +0.216 C 
ATOM     11  C   UNL     1       1.430  -0.382   0.074  0.00  0.00    +0.155 C 
ATOM     12  C   UNL     1       2.173  -2.494   1.226  0.00  0.00    +0.136 C 
ATOM     13  C   UNL     1       0.655  -2.342  -1.368  0.00  0.00    +0.206 C 
ATOM     14  C   UNL     1       2.144  -3.518   0.098  0.00  0.00    +0.179 C 
ATOM     15  C   UNL     1       3.819  -0.704   0.835  0.00  0.00    +0.268 C 
ENDROOT
BRANCH  15  17
ATOM      5  O   UNL     1       5.115   2.149  -0.879  0.00  0.00    -0.359 OA
ATOM      9  N   UNL     1       5.057   0.781  -0.640  0.00  0.00    -0.073 NA
ATOM     17  C   UNL     1       4.143   0.638   0.324  0.00  0.00    +0.168 A 
ATOM     23  C   UNL     1       3.596   1.868   0.729  0.00  0.00    +0.080 A 
ATOM     24  C   UNL     1       4.241   2.785  -0.058  0.00  0.00    +0.135 A 
ATOM     26  C   UNL     1       4.173   4.247  -0.178  0.00  0.00    +0.089 C 
ENDBRANCH  15  17
BRANCH  10   3
ATOM      3  O   UNL     1      -0.541  -0.256  -1.247  0.00  0.00    -0.485 OA
BRANCH   3  16
ATOM     16  C   UNL     1      -1.819  -0.030  -0.816  0.00  0.00    +0.121 A 
ATOM     18  C   UNL     1      -2.724  -1.087  -0.731  0.00  0.00    +0.047 A 
ATOM     19  C   UNL     1      -2.216   1.259  -0.459  0.00  0.00    +0.047 A 
ATOM     20  C   UNL     1      -4.425   0.432   0.065  0.00  0.00    +0.088 A 
ATOM     21  C   UNL     1      -4.027  -0.857  -0.291  0.00  0.00    +0.030 A 
ATOM     22  C   UNL     1      -3.520   1.490  -0.019  0.00  0.00    +0.030 A 
BRANCH  20   1
ATOM      1  S   UNL     1      -6.056   0.720   0.620  0.00  0.00    -0.006 S 
ATOM      6  O   UNL     1      -6.598  -0.522   1.156  0.00  0.00    -0.170 OA
ATOM      7  O   UNL     1      -6.043   1.919   1.446  0.00  0.00    -0.170 OA
ATOM     25  C   UNL     1      -6.969   1.086  -0.862  0.00  0.00    +0.200 C 
ENDBRANCH  20   1
ENDBRANCH   3  16
ENDBRANCH  10   3
TORSDOF 4
