REMARK  Name = 25338306
REMARK  7 active torsions:
REMARK  status: ('A' for Active; 'I' for Inactive)
REMARK    1  A    between atoms: S_1  and  N_6
REMARK    2  A    between atoms: S_1  and  C_17
REMARK    3  A    between atoms: N_5  and  C_16
REMARK    4  A    between atoms: N_6  and  C_11
REMARK    5  A    between atoms: C_12  and  C_15
REMARK    6  A    between atoms: C_18  and  C_23
REMARK    7  A    between atoms: C_24  and  C_25
REMARK                            x       y       z     vdW  Elec       q    Type
REMARK                         _______ _______ _______ _____ _____    ______ ____
ROOT
ATOM      5  N   UNL     1      -0.118  -1.776   0.776  0.00  0.00    -0.293 NA
ATOM     11  C   UNL     1      -1.475  -0.698  -0.785  0.00  0.00    +0.092 C 
ATOM     12  C   UNL     1       0.618  -1.920  -0.495  0.00  0.00    +0.147 C 
ATOM     13  C   UNL     1      -0.170  -1.051  -1.494  0.00  0.00    +0.050 C 
ATOM     14  C   UNL     1      -1.530  -1.639   0.407  0.00  0.00    +0.105 C 
ATOM     16  C   UNL     1       0.098  -2.888   1.694  0.00  0.00    +0.105 C 
ENDROOT
BRANCH  12  15
ATOM      2  O   UNL     1       2.986  -2.469  -0.745  0.00  0.00    -0.336 OA
ATOM      7  N   UNL     1       2.601  -0.382  -0.027  0.00  0.00    -0.189 NA
ATOM      8  N   UNL     1       4.244  -1.876  -0.578  0.00  0.00    -0.054 NA
ATOM     15  C   UNL     1       2.075  -1.521  -0.400  0.00  0.00    +0.245 A 
ATOM     18  C   UNL     1       3.934  -0.648  -0.153  0.00  0.00    +0.222 A 
BRANCH  18  23
ATOM      9  N   UNL     1       6.216  -0.033  -0.006  0.00  0.00    -0.249 NA
ATOM     10  N   UNL     1       5.509   2.533   0.879  0.00  0.00    -0.260 NA
ATOM     23  C   UNL     1       4.930   0.338   0.153  0.00  0.00    +0.129 A 
ATOM     26  C   UNL     1       4.583   1.598   0.588  0.00  0.00    +0.142 A 
ATOM     27  C   UNL     1       7.143   0.902   0.285  0.00  0.00    +0.131 A 
ATOM     28  C   UNL     1       6.795   2.162   0.720  0.00  0.00    +0.130 A 
ENDBRANCH  18  23
ENDBRANCH  12  15
BRANCH  11   6
ATOM      6  N   UNL     1      -1.430   0.712  -0.319  0.00  0.00    -0.186 NA
ATOM     29  H   UNL     1      -0.836   0.922   0.492  0.00  0.00    +0.148 HD
BRANCH   6   1
ATOM      1  S   UNL     1      -2.617   1.808  -0.835  0.00  0.00    +0.059 S 
ATOM      3  O   UNL     1      -2.677   1.811  -2.284  0.00  0.00    -0.153 OA
ATOM      4  O   UNL     1      -2.448   3.053  -0.110  0.00  0.00    -0.153 OA
BRANCH   1  17
ATOM     17  C   UNL     1      -4.098   1.055  -0.230  0.00  0.00    +0.105 A 
ATOM     19  C   UNL     1      -4.569   1.369   1.045  0.00  0.00    +0.029 A 
ATOM     20  C   UNL     1      -4.794   0.146  -1.026  0.00  0.00    +0.029 A 
ATOM     21  C   UNL     1      -5.735   0.773   1.524  0.00  0.00    +0.005 A 
ATOM     22  C   UNL     1      -5.961  -0.450  -0.548  0.00  0.00    +0.005 A 
ATOM     24  C   UNL     1      -6.431  -0.136   0.727  0.00  0.00    -0.050 A 
ATOM     25  C   UNL     1      -7.679  -0.773   1.239  0.00  0.00    +0.044 C 
ENDBRANCH   1  17
ENDBRANCH   6   1
ENDBRANCH  11   6
TORSDOF 5
