REMARK  Name = 56775723
REMARK  9 active torsions:
REMARK  status: ('A' for Active; 'I' for Inactive)
REMARK    1  A    between atoms: O_3  and  C_20
REMARK    2  A    between atoms: N_4  and  C_6
REMARK    3  A    between atoms: N_4  and  C_10
REMARK    4  A    between atoms: N_4  and  C_11
REMARK    5  A    between atoms: C_6  and  C_9
REMARK    6  A    between atoms: C_9  and  C_12
REMARK    7  A    between atoms: C_10  and  C_13
REMARK    8  A    between atoms: C_11  and  C_14
REMARK    9  A    between atoms: C_16  and  C_17
REMARK                            x       y       z     vdW  Elec       q    Type
REMARK                         _______ _______ _______ _____ _____    ______ ____
ROOT
ATOM      2  O   UNL     1      -1.180  -1.773   0.327  0.00  0.00    -0.354 OA
ATOM      5  N   UNL     1       0.193  -1.781   0.545  0.00  0.00    -0.083 NA
ATOM     12  C   UNL     1       0.523  -0.497   0.712  0.00  0.00    +0.086 A 
ATOM     15  C   UNL     1      -0.588   0.358   0.611  0.00  0.00    +0.076 A 
ATOM     16  C   UNL     1      -1.633  -0.494   0.369  0.00  0.00    +0.168 A 
ENDROOT
BRANCH  16  17
ATOM     17  C   UNL     1      -3.042  -0.326   0.162  0.00  0.00    +0.023 A 
ATOM     18  C   UNL     1      -3.604   0.950   0.191  0.00  0.00    +0.057 A 
ATOM     19  C   UNL     1      -3.851  -1.440  -0.067  0.00  0.00    +0.012 A 
ATOM     20  C   UNL     1      -4.975   1.113  -0.009  0.00  0.00    +0.118 A 
ATOM     21  C   UNL     1      -5.221  -1.277  -0.266  0.00  0.00    +0.004 A 
ATOM     22  C   UNL     1      -5.784  -0.001  -0.237  0.00  0.00    +0.045 A 
BRANCH  20   3
ATOM      3  O   UNL     1      -5.524   2.358   0.021  0.00  0.00    -0.507 OA
ATOM     23  H   UNL     1      -6.481   2.284  -0.135  0.00  0.00    +0.292 HD
ENDBRANCH  20   3
ENDBRANCH  16  17
BRANCH  12   9
ATOM      9  C   UNL     1       1.965  -0.116   0.975  0.00  0.00    +0.085 C 
BRANCH   9   6
ATOM      1  O   UNL     1       2.062   0.357  -2.338  0.00  0.00    -0.376 OA
ATOM      6  C   UNL     1       2.691   0.141  -0.310  0.00  0.00    +0.074 C 
ATOM      7  C   UNL     1       2.208   1.263  -1.221  0.00  0.00    +0.184 C 
ATOM      8  C   UNL     1       2.422  -0.768  -1.504  0.00  0.00    +0.184 C 
BRANCH   6   4
ATOM      4  N   UNL     1       4.148   0.268  -0.131  0.00  0.00    -0.293 NA
BRANCH   4  10
ATOM     10  C   UNL     1       4.416   1.158   0.999  0.00  0.00    +0.082 C 
ATOM     13  C   UNL     1       3.829   2.539   0.761  0.00  0.00    +0.020 C 
ENDBRANCH   4  10
BRANCH   4  11
ATOM     11  C   UNL     1       4.720  -1.056   0.110  0.00  0.00    +0.082 C 
ATOM     14  C   UNL     1       6.225  -0.978   0.302  0.00  0.00    +0.020 C 
ENDBRANCH   4  11
ENDBRANCH   6   4
ENDBRANCH   9   6
ENDBRANCH  12   9
TORSDOF 7
