REMARK  Name = 51137521
REMARK  9 active torsions:
REMARK  status: ('A' for Active; 'I' for Inactive)
REMARK    1  A    between atoms: O_2  and  C_27
REMARK    2  A    between atoms: N_4  and  C_12
REMARK    3  A    between atoms: N_7  and  C_24
REMARK    4  A    between atoms: N_7  and  C_28
REMARK    5  A    between atoms: N_7  and  C_29
REMARK    6  A    between atoms: C_8  and  C_13
REMARK    7  A    between atoms: C_12  and  C_14
REMARK    8  A    between atoms: C_15  and  C_18
REMARK    9  A    between atoms: C_21  and  C_27
REMARK                            x       y       z     vdW  Elec       q    Type
REMARK                         _______ _______ _______ _____ _____    ______ ____
ROOT
ATOM      4  N   UNL     1      -2.058  -0.952  -0.287  0.00  0.00    -0.297 NA
ATOM      8  C   UNL     1      -0.215  -2.284   0.286  0.00  0.00    +0.092 C 
ATOM      9  C   UNL     1      -0.748  -1.575   1.543  0.00  0.00    +0.029 C 
ATOM     10  C   UNL     1      -0.852  -1.526  -0.887  0.00  0.00    +0.097 C 
ATOM     11  C   UNL     1      -1.627  -0.448   1.017  0.00  0.00    +0.085 C 
ENDROOT
BRANCH   8  13
ATOM      1  O   UNL     1       1.967  -1.177   0.172  0.00  0.00    -0.420 OA
ATOM      5  N   UNL     1       2.074  -3.411   0.119  0.00  0.00    -0.112 NA
ATOM      6  N   UNL     1       3.364  -2.920   0.049  0.00  0.00    -0.107 NA
ATOM     13  C   UNL     1       1.292  -2.359   0.190  0.00  0.00    +0.222 A 
ATOM     15  C   UNL     1       3.253  -1.612   0.082  0.00  0.00    +0.248 A 
BRANCH  15  18
ATOM     18  C   UNL     1       4.259  -0.591   0.041  0.00  0.00    +0.039 A 
ATOM     22  C   UNL     1       5.606  -0.943  -0.051  0.00  0.00    +0.015 A 
ATOM     23  C   UNL     1       3.891   0.753   0.091  0.00  0.00    +0.015 A 
ATOM     24  C   UNL     1       6.217   1.395  -0.041  0.00  0.00    +0.029 A 
ATOM     25  C   UNL     1       6.585   0.050  -0.091  0.00  0.00    +0.024 A 
ATOM     26  C   UNL     1       4.870   1.746   0.050  0.00  0.00    +0.024 A 
BRANCH  24   7
ATOM      7  N   UNL     1       7.207   2.399  -0.081  0.00  0.00    -0.336 N 
ATOM     28  C   UNL     1       6.834   3.799  -0.037  0.00  0.00    +0.129 C 
ATOM     29  C   UNL     1       8.609   2.043  -0.175  0.00  0.00    +0.129 C 
ENDBRANCH  24   7
ENDBRANCH  15  18
ENDBRANCH   8  13
BRANCH   4  12
ATOM     12  C   UNL     1      -2.649   0.089  -1.115  0.00  0.00    +0.119 C 
BRANCH  12  14
ATOM     14  C   UNL     1      -4.080   0.362  -0.736  0.00  0.00    -0.033 A 
ATOM     16  C   UNL     1      -5.085  -0.524  -1.122  0.00  0.00    +0.006 A 
ATOM     17  C   UNL     1      -4.400   1.502   0.002  0.00  0.00    +0.006 A 
ATOM     19  C   UNL     1      -6.411  -0.271  -0.771  0.00  0.00    +0.015 A 
ATOM     20  C   UNL     1      -5.726   1.755   0.353  0.00  0.00    +0.015 A 
ATOM     21  C   UNL     1      -6.732   0.868  -0.033  0.00  0.00    +0.059 A 
BRANCH  21  27
ATOM      3  O   UNL     1      -9.080   0.418   0.047  0.00  0.00    -0.245 OA
ATOM     27  C   UNL     1      -8.114   1.132   0.334  0.00  0.00    +0.337 C 
BRANCH  27   2
ATOM      2  O   UNL     1      -8.252   2.281   1.051  0.00  0.00    -0.477 OA
ATOM     30  H   UNL     1      -9.187   2.450   1.294  0.00  0.00    +0.295 HD
ENDBRANCH  27   2
ENDBRANCH  21  27
ENDBRANCH  12  14
ENDBRANCH   4  12
TORSDOF 7
