MODEL 1
REMARK VINA RESULT:      -7.2      0.000      0.000
REMARK  Name = 7165018
REMARK  7 active torsions:
REMARK  status: ('A' for Active; 'I' for Inactive)
REMARK    1  A    between atoms: N_9  and  C_17
REMARK    2  A    between atoms: C_12  and  C_16
REMARK    3  A    between atoms: C_17  and  C_20
REMARK    4  A    between atoms: C_17  and  C_25
REMARK    5  A    between atoms: C_18  and  C_22
REMARK    6  A    between atoms: C_19  and  C_23
REMARK    7  A    between atoms: C_20  and  C_21
REMARK                            x       y       z     vdW  Elec       q    Type
REMARK                         _______ _______ _______ _____ _____    ______ ____
ROOT
ATOM      4  O   UNL     1      11.957   6.230   4.902  0.00  0.00    -0.269 OA
ATOM      5  O   UNL     1      17.386  11.032   5.913  0.00  0.00    -0.270 OA
ATOM      7  N   UNL     1      13.379   7.896   5.660  0.00  0.00    -0.283 N 
ATOM      8  N   UNL     1      16.019   9.140   5.809  0.00  0.00    -0.294 N 
ATOM     12  C   UNL     1      14.539   7.284   5.007  0.00  0.00    +0.179 C 
ATOM     13  C   UNL     1      15.869   7.686   5.642  0.00  0.00    +0.140 C 
ATOM     14  C   UNL     1      13.623   9.116   6.445  0.00  0.00    +0.128 C 
ATOM     15  C   UNL     1      14.793   9.929   5.910  0.00  0.00    +0.127 C 
ATOM     18  C   UNL     1      12.125   7.252   5.570  0.00  0.00    +0.254 C 
ATOM     19  C   UNL     1      17.247   9.812   5.822  0.00  0.00    +0.247 C 
ENDROOT
BRANCH  19  23
ATOM      2  F   UNL     1      20.337   7.088   3.260  0.00  0.00    -0.205 F 
ATOM     23  C   UNL     1      18.479   9.013   5.726  0.00  0.00    +0.040 A 
ATOM     29  C   UNL     1      18.831   8.417   4.515  0.00  0.00    +0.051 A 
ATOM     30  C   UNL     1      19.296   8.852   6.846  0.00  0.00    +0.013 A 
ATOM     37  C   UNL     1      19.999   7.660   4.423  0.00  0.00    +0.124 A 
ATOM     38  C   UNL     1      20.463   8.095   6.754  0.00  0.00    +0.004 A 
ATOM     39  C   UNL     1      20.815   7.499   5.542  0.00  0.00    +0.038 A 
ENDBRANCH  19  23
BRANCH  18  22
ATOM      1  S   UNL     1      10.126   9.121   5.565  0.00  0.00    -0.092 S 
ATOM     22  C   UNL     1      11.008   7.850   6.295  0.00  0.00    +0.074 A 
ATOM     28  C   UNL     1      10.523   7.536   7.546  0.00  0.00    +0.021 A 
ATOM     33  C   UNL     1       9.412   8.350   7.909  0.00  0.00    +0.008 A 
ATOM     36  C   UNL     1       9.090   9.256   6.922  0.00  0.00    +0.046 A 
ENDBRANCH  18  22
BRANCH  12  16
ATOM      3  O   UNL     1      13.662   8.473   3.128  0.00  0.00    -0.274 OA
ATOM      9  N   UNL     1      15.439   7.004   2.802  0.00  0.00    -0.302 N 
ATOM     16  C   UNL     1      14.487   7.669   3.555  0.00  0.00    +0.236 C 
ATOM     40  H   UNL     1      16.065   6.343   3.251  0.00  0.00    +0.150 HD
BRANCH   9  17
ATOM     17  C   UNL     1      15.582   7.181   1.375  0.00  0.00    +0.163 C 
BRANCH  17  25
ATOM      6  O   UNL     1      17.114   9.066   1.452  0.00  0.00    -0.274 OA
ATOM     11  N   UNL     1      17.867   7.072   0.595  0.00  0.00    -0.328 N 
ATOM     25  C   UNL     1      16.905   7.895   1.143  0.00  0.00    +0.231 C 
ATOM     42  H   UNL     1      18.800   7.419   0.402  0.00  0.00    +0.145 HD
ATOM     43  H   UNL     1      17.688   6.100   0.367  0.00  0.00    +0.145 HD
ENDBRANCH  17  25
BRANCH  17  20
ATOM     20  C   UNL     1      15.552   5.846   0.618  0.00  0.00    +0.069 C 
BRANCH  20  21
ATOM     10  N   UNL     1      13.449   3.137   1.940  0.00  0.00    -0.360 N 
ATOM     21  C   UNL     1      14.475   4.918   1.103  0.00  0.00    -0.020 A 
ATOM     24  C   UNL     1      13.076   5.176   1.116  0.00  0.00    +0.003 A 
ATOM     26  C   UNL     1      14.673   3.657   1.615  0.00  0.00    +0.087 A 
ATOM     27  C   UNL     1      12.456   4.043   1.647  0.00  0.00    +0.047 A 
ATOM     31  C   UNL     1      12.276   6.268   0.726  0.00  0.00    +0.010 A 
ATOM     32  C   UNL     1      11.069   3.948   1.807  0.00  0.00    +0.026 A 
ATOM     34  C   UNL     1      10.887   6.188   0.882  0.00  0.00    +0.001 A 
ATOM     35  C   UNL     1      10.295   5.044   1.414  0.00  0.00    +0.002 A 
ATOM     41  H   UNL     1      13.296   2.220   2.338  0.00  0.00    +0.165 HD
ENDBRANCH  20  21
ENDBRANCH  17  20
ENDBRANCH   9  17
ENDBRANCH  12  16
TORSDOF 7
ENDMDL
MODEL 2
REMARK VINA RESULT:      -7.1     27.842     31.692
REMARK  Name = 7165018
REMARK  7 active torsions:
REMARK  status: ('A' for Active; 'I' for Inactive)
REMARK    1  A    between atoms: N_9  and  C_17
REMARK    2  A    between atoms: C_12  and  C_16
REMARK    3  A    between atoms: C_17  and  C_20
REMARK    4  A    between atoms: C_17  and  C_25
REMARK    5  A    between atoms: C_18  and  C_22
REMARK    6  A    between atoms: C_19  and  C_23
REMARK    7  A    between atoms: C_20  and  C_21
REMARK                            x       y       z     vdW  Elec       q    Type
REMARK                         _______ _______ _______ _____ _____    ______ ____
ROOT
ATOM      4  O   UNL     1      -8.335  -8.928  17.669  0.00  0.00    -0.269 OA
ATOM      5  O   UNL     1      -6.584 -11.903  11.216  0.00  0.00    -0.270 OA
ATOM      7  N   UNL     1      -8.190  -9.554  15.442  0.00  0.00    -0.283 N 
ATOM      8  N   UNL     1      -6.695 -10.637  13.176  0.00  0.00    -0.294 N 
ATOM     12  C   UNL     1      -6.779  -9.924  15.577  0.00  0.00    +0.179 C 
ATOM     13  C   UNL     1      -6.020  -9.895  14.252  0.00  0.00    +0.140 C 
ATOM     14  C   UNL     1      -8.789  -9.687  14.104  0.00  0.00    +0.128 C 
ATOM     15  C   UNL     1      -8.144 -10.795  13.285  0.00  0.00    +0.127 C 
ATOM     18  C   UNL     1      -8.868  -9.024  16.562  0.00  0.00    +0.254 C 
ATOM     19  C   UNL     1      -6.038 -11.239  12.097  0.00  0.00    +0.247 C 
ENDROOT
BRANCH  19  23
ATOM      2  F   UNL     1      -2.162  -8.928  10.317  0.00  0.00    -0.205 F 
ATOM     23  C   UNL     1      -4.580 -11.072  11.989  0.00  0.00    +0.040 A 
ATOM     29  C   UNL     1      -4.051 -10.060  11.188  0.00  0.00    +0.051 A 
ATOM     30  C   UNL     1      -3.726 -11.928  12.686  0.00  0.00    +0.013 A 
ATOM     37  C   UNL     1      -2.669  -9.901  11.086  0.00  0.00    +0.124 A 
ATOM     38  C   UNL     1      -2.344 -11.769  12.582  0.00  0.00    +0.004 A 
ATOM     39  C   UNL     1      -1.816 -10.756  11.783  0.00  0.00    +0.038 A 
ENDBRANCH  19  23
BRANCH  18  22
ATOM      1  S   UNL     1     -10.564  -6.982  15.895  0.00  0.00    -0.092 S 
ATOM     22  C   UNL     1     -10.251  -8.596  16.371  0.00  0.00    +0.074 A 
ATOM     28  C   UNL     1     -11.411  -9.325  16.521  0.00  0.00    +0.021 A 
ATOM     33  C   UNL     1     -12.571  -8.548  16.242  0.00  0.00    +0.008 A 
ATOM     36  C   UNL     1     -12.255  -7.254  15.889  0.00  0.00    +0.046 A 
ENDBRANCH  18  22
BRANCH  12  16
ATOM      3  O   UNL     1      -6.948 -12.309  15.551  0.00  0.00    -0.274 OA
ATOM      9  N   UNL     1      -6.458 -11.236  17.559  0.00  0.00    -0.302 N 
ATOM     16  C   UNL     1      -6.735 -11.290  16.204  0.00  0.00    +0.236 C 
ATOM     40  H   UNL     1      -6.315 -10.337  18.008  0.00  0.00    +0.150 HD
BRANCH   9  17
ATOM     17  C   UNL     1      -6.383 -12.410  18.397  0.00  0.00    +0.163 C 
BRANCH  17  25
ATOM      6  O   UNL     1      -4.245 -11.912  19.441  0.00  0.00    -0.274 OA
ATOM     11  N   UNL     1      -4.417 -13.791  18.129  0.00  0.00    -0.328 N 
ATOM     25  C   UNL     1      -4.912 -12.642  18.711  0.00  0.00    +0.231 C 
ATOM     42  H   UNL     1      -3.452 -14.070  18.270  0.00  0.00    +0.145 HD
ATOM     43  H   UNL     1      -4.986 -14.397  17.548  0.00  0.00    +0.145 HD
ENDBRANCH  17  25
BRANCH  17  20
ATOM     20  C   UNL     1      -7.189 -12.251  19.693  0.00  0.00    +0.069 C 
BRANCH  20  21
ATOM     10  N   UNL     1     -10.365 -14.046  19.246  0.00  0.00    -0.360 N 
ATOM     21  C   UNL     1      -8.607 -12.731  19.568  0.00  0.00    -0.020 A 
ATOM     24  C   UNL     1      -9.784 -11.948  19.731  0.00  0.00    +0.003 A 
ATOM     26  C   UNL     1      -8.997 -14.016  19.269  0.00  0.00    +0.087 A 
ATOM     27  C   UNL     1     -10.873 -12.798  19.525  0.00  0.00    +0.047 A 
ATOM     31  C   UNL     1     -10.028 -10.594  20.036  0.00  0.00    +0.010 A 
ATOM     32  C   UNL     1     -12.199 -12.359  19.608  0.00  0.00    +0.026 A 
ATOM     34  C   UNL     1     -11.349 -10.141  20.124  0.00  0.00    +0.001 A 
ATOM     35  C   UNL     1     -12.416 -11.012  19.912  0.00  0.00    +0.002 A 
ATOM     41  H   UNL     1     -10.924 -14.867  19.052  0.00  0.00    +0.165 HD
ENDBRANCH  20  21
ENDBRANCH  17  20
ENDBRANCH   9  17
ENDBRANCH  12  16
TORSDOF 7
ENDMDL
MODEL 3
REMARK VINA RESULT:      -7.1     26.753     29.932
REMARK  Name = 7165018
REMARK  7 active torsions:
REMARK  status: ('A' for Active; 'I' for Inactive)
REMARK    1  A    between atoms: N_9  and  C_17
REMARK    2  A    between atoms: C_12  and  C_16
REMARK    3  A    between atoms: C_17  and  C_20
REMARK    4  A    between atoms: C_17  and  C_25
REMARK    5  A    between atoms: C_18  and  C_22
REMARK    6  A    between atoms: C_19  and  C_23
REMARK    7  A    between atoms: C_20  and  C_21
REMARK                            x       y       z     vdW  Elec       q    Type
REMARK                         _______ _______ _______ _____ _____    ______ ____
ROOT
ATOM      4  O   UNL     1      -6.739 -12.500  11.101  0.00  0.00    -0.269 OA
ATOM      5  O   UNL     1      -8.526  -8.719  17.107  0.00  0.00    -0.270 OA
ATOM      7  N   UNL     1      -7.809 -11.323  12.787  0.00  0.00    -0.283 N 
ATOM      8  N   UNL     1      -7.960 -10.358  15.541  0.00  0.00    -0.294 N 
ATOM     12  C   UNL     1      -6.789 -11.691  13.772  0.00  0.00    +0.179 C 
ATOM     13  C   UNL     1      -7.293 -11.628  15.213  0.00  0.00    +0.140 C 
ATOM     14  C   UNL     1      -8.937 -10.511  13.268  0.00  0.00    +0.128 C 
ATOM     15  C   UNL     1      -8.553  -9.612  14.434  0.00  0.00    +0.127 C 
ATOM     18  C   UNL     1      -7.699 -11.822  11.470  0.00  0.00    +0.254 C 
ATOM     19  C   UNL     1      -8.013  -9.802  16.825  0.00  0.00    +0.247 C 
ENDROOT
BRANCH  19  23
ATOM      2  F   UNL     1      -8.357 -13.123  20.345  0.00  0.00    -0.205 F 
ATOM     23  C   UNL     1      -7.420 -10.560  17.938  0.00  0.00    +0.040 A 
ATOM     29  C   UNL     1      -8.185 -11.500  18.628  0.00  0.00    +0.051 A 
ATOM     30  C   UNL     1      -6.092 -10.338  18.304  0.00  0.00    +0.013 A 
ATOM     37  C   UNL     1      -7.622 -12.220  19.683  0.00  0.00    +0.124 A 
ATOM     38  C   UNL     1      -5.530 -11.057  19.358  0.00  0.00    +0.004 A 
ATOM     39  C   UNL     1      -6.295 -11.997  20.048  0.00  0.00    +0.038 A 
ENDBRANCH  19  23
BRANCH  18  22
ATOM      1  S   UNL     1     -10.130 -12.536  10.433  0.00  0.00    -0.092 S 
ATOM     22  C   UNL     1      -8.773 -11.497  10.536  0.00  0.00    +0.074 A 
ATOM     28  C   UNL     1      -8.875 -10.426   9.675  0.00  0.00    +0.021 A 
ATOM     33  C   UNL     1     -10.083 -10.459   8.920  0.00  0.00    +0.008 A 
ATOM     36  C   UNL     1     -10.858 -11.554   9.233  0.00  0.00    +0.046 A 
ENDBRANCH  18  22
BRANCH  12  16
ATOM      3  O   UNL     1      -5.749  -9.650  13.088  0.00  0.00    -0.274 OA
ATOM      9  N   UNL     1      -4.419 -11.363  13.936  0.00  0.00    -0.302 N 
ATOM     16  C   UNL     1      -5.615 -10.776  13.561  0.00  0.00    +0.236 C 
ATOM     40  H   UNL     1      -4.415 -12.310  14.302  0.00  0.00    +0.150 HD
BRANCH   9  17
ATOM     17  C   UNL     1      -3.141 -10.700  13.812  0.00  0.00    +0.163 C 
BRANCH  17  25
ATOM      6  O   UNL     1      -1.355 -11.132  15.402  0.00  0.00    -0.274 OA
ATOM     11  N   UNL     1      -3.297 -10.171  16.166  0.00  0.00    -0.328 N 
ATOM     25  C   UNL     1      -2.492 -10.718  15.188  0.00  0.00    +0.231 C 
ATOM     42  H   UNL     1      -2.979 -10.108  17.127  0.00  0.00    +0.145 HD
ATOM     43  H   UNL     1      -4.225  -9.811  15.970  0.00  0.00    +0.145 HD
ENDBRANCH  17  25
BRANCH  17  20
ATOM     20  C   UNL     1      -2.231 -11.381  12.781  0.00  0.00    +0.069 C 
BRANCH  20  21
ATOM     10  N   UNL     1      -3.885 -12.932   9.889  0.00  0.00    -0.360 N 
ATOM     21  C   UNL     1      -2.947 -11.744  11.512  0.00  0.00    -0.020 A 
ATOM     24  C   UNL     1      -3.457 -10.842  10.538  0.00  0.00    +0.003 A 
ATOM     26  C   UNL     1      -3.225 -13.022  11.085  0.00  0.00    +0.087 A 
ATOM     27  C   UNL     1      -4.041 -11.613   9.530  0.00  0.00    +0.047 A 
ATOM     31  C   UNL     1      -3.478  -9.438  10.416  0.00  0.00    +0.010 A 
ATOM     32  C   UNL     1      -4.647 -11.047   8.403  0.00  0.00    +0.026 A 
ATOM     34  C   UNL     1      -4.081  -8.859   9.294  0.00  0.00    +0.001 A 
ATOM     35  C   UNL     1      -4.655  -9.653   8.304  0.00  0.00    +0.002 A 
ATOM     41  H   UNL     1      -4.212 -13.721   9.347  0.00  0.00    +0.165 HD
ENDBRANCH  20  21
ENDBRANCH  17  20
ENDBRANCH   9  17
ENDBRANCH  12  16
TORSDOF 7
ENDMDL
MODEL 4
REMARK VINA RESULT:      -6.9      2.200      2.745
REMARK  Name = 7165018
REMARK  7 active torsions:
REMARK  status: ('A' for Active; 'I' for Inactive)
REMARK    1  A    between atoms: N_9  and  C_17
REMARK    2  A    between atoms: C_12  and  C_16
REMARK    3  A    between atoms: C_17  and  C_20
REMARK    4  A    between atoms: C_17  and  C_25
REMARK    5  A    between atoms: C_18  and  C_22
REMARK    6  A    between atoms: C_19  and  C_23
REMARK    7  A    between atoms: C_20  and  C_21
REMARK                            x       y       z     vdW  Elec       q    Type
REMARK                         _______ _______ _______ _____ _____    ______ ____
ROOT
ATOM      4  O   UNL     1      11.631   6.248   4.943  0.00  0.00    -0.269 OA
ATOM      5  O   UNL     1      17.166  10.934   3.962  0.00  0.00    -0.270 OA
ATOM      7  N   UNL     1      13.073   8.064   4.939  0.00  0.00    -0.283 N 
ATOM      8  N   UNL     1      15.743   9.216   4.652  0.00  0.00    -0.294 N 
ATOM     12  C   UNL     1      14.240   7.211   4.700  0.00  0.00    +0.179 C 
ATOM     13  C   UNL     1      15.552   7.846   5.156  0.00  0.00    +0.140 C 
ATOM     14  C   UNL     1      13.321   9.505   5.097  0.00  0.00    +0.128 C 
ATOM     15  C   UNL     1      14.540   9.975   4.317  0.00  0.00    +0.127 C 
ATOM     18  C   UNL     1      11.803   7.461   5.082  0.00  0.00    +0.254 C 
ATOM     19  C   UNL     1      16.990   9.809   4.427  0.00  0.00    +0.247 C 
ENDROOT
BRANCH  19  23
ATOM      2  F   UNL     1      20.641   6.870   3.173  0.00  0.00    -0.205 F 
ATOM     23  C   UNL     1      18.198   9.042   4.771  0.00  0.00    +0.040 A 
ATOM     29  C   UNL     1      18.860   8.304   3.790  0.00  0.00    +0.051 A 
ATOM     30  C   UNL     1      18.682   9.053   6.081  0.00  0.00    +0.013 A 
ATOM     37  C   UNL     1      20.006   7.578   4.116  0.00  0.00    +0.124 A 
ATOM     38  C   UNL     1      19.827   8.327   6.406  0.00  0.00    +0.004 A 
ATOM     39  C   UNL     1      20.489   7.589   5.424  0.00  0.00    +0.038 A 
ENDBRANCH  19  23
BRANCH  18  22
ATOM      1  S   UNL     1       9.768   9.013   4.112  0.00  0.00    -0.092 S 
ATOM     22  C   UNL     1      10.675   8.333   5.395  0.00  0.00    +0.074 A 
ATOM     28  C   UNL     1      10.196   8.719   6.628  0.00  0.00    +0.021 A 
ATOM     33  C   UNL     1       9.070   9.584   6.518  0.00  0.00    +0.008 A 
ATOM     36  C   UNL     1       8.730   9.827   5.205  0.00  0.00    +0.046 A 
ENDBRANCH  18  22
BRANCH  12  16
ATOM      3  O   UNL     1      14.696   7.693   2.404  0.00  0.00    -0.274 OA
ATOM      9  N   UNL     1      13.737   5.644   2.956  0.00  0.00    -0.302 N 
ATOM     16  C   UNL     1      14.265   6.894   3.231  0.00  0.00    +0.236 C 
ATOM     40  H   UNL     1      13.390   5.066   3.714  0.00  0.00    +0.150 HD
BRANCH   9  17
ATOM     17  C   UNL     1      13.627   5.110   1.618  0.00  0.00    +0.163 C 
BRANCH  17  25
ATOM      6  O   UNL     1      15.674   4.930   0.321  0.00  0.00    -0.274 OA
ATOM     11  N   UNL     1      15.385   3.529   2.118  0.00  0.00    -0.328 N 
ATOM     25  C   UNL     1      14.984   4.527   1.255  0.00  0.00    +0.231 C 
ATOM     42  H   UNL     1      16.279   3.064   1.998  0.00  0.00    +0.145 HD
ATOM     43  H   UNL     1      14.816   3.222   2.900  0.00  0.00    +0.145 HD
ENDBRANCH  17  25
BRANCH  17  20
ATOM     20  C   UNL     1      12.535   4.037   1.509  0.00  0.00    +0.069 C 
BRANCH  20  21
ATOM     10  N   UNL     1       9.867   5.050  -0.808  0.00  0.00    -0.360 N 
ATOM     21  C   UNL     1      11.580   4.281   0.375  0.00  0.00    -0.020 A 
ATOM     24  C   UNL     1      11.652   3.718  -0.930  0.00  0.00    +0.003 A 
ATOM     26  C   UNL     1      10.472   5.095   0.419  0.00  0.00    +0.087 A 
ATOM     27  C   UNL     1      10.566   4.217  -1.652  0.00  0.00    +0.047 A 
ATOM     31  C   UNL     1      12.540   2.829  -1.568  0.00  0.00    +0.010 A 
ATOM     32  C   UNL     1      10.323   3.870  -2.985  0.00  0.00    +0.026 A 
ATOM     34  C   UNL     1      12.310   2.473  -2.901  0.00  0.00    +0.001 A 
ATOM     35  C   UNL     1      11.217   2.986  -3.597  0.00  0.00    +0.002 A 
ATOM     41  H   UNL     1       9.028   5.555  -1.059  0.00  0.00    +0.165 HD
ENDBRANCH  20  21
ENDBRANCH  17  20
ENDBRANCH   9  17
ENDBRANCH  12  16
TORSDOF 7
ENDMDL
MODEL 5
REMARK VINA RESULT:      -6.7      2.472      2.936
REMARK  Name = 7165018
REMARK  7 active torsions:
REMARK  status: ('A' for Active; 'I' for Inactive)
REMARK    1  A    between atoms: N_9  and  C_17
REMARK    2  A    between atoms: C_12  and  C_16
REMARK    3  A    between atoms: C_17  and  C_20
REMARK    4  A    between atoms: C_17  and  C_25
REMARK    5  A    between atoms: C_18  and  C_22
REMARK    6  A    between atoms: C_19  and  C_23
REMARK    7  A    between atoms: C_20  and  C_21
REMARK                            x       y       z     vdW  Elec       q    Type
REMARK                         _______ _______ _______ _____ _____    ______ ____
ROOT
ATOM      4  O   UNL     1      12.066   5.113   2.764  0.00  0.00    -0.269 OA
ATOM      5  O   UNL     1      16.350  10.705   4.746  0.00  0.00    -0.270 OA
ATOM      7  N   UNL     1      13.019   6.981   3.751  0.00  0.00    -0.283 N 
ATOM      8  N   UNL     1      15.342   8.623   4.418  0.00  0.00    -0.294 N 
ATOM     12  C   UNL     1      14.373   6.558   3.382  0.00  0.00    +0.179 C 
ATOM     13  C   UNL     1      15.456   7.164   4.273  0.00  0.00    +0.140 C 
ATOM     14  C   UNL     1      12.898   8.225   4.527  0.00  0.00    +0.128 C 
ATOM     15  C   UNL     1      14.018   9.210   4.227  0.00  0.00    +0.127 C 
ATOM     18  C   UNL     1      11.928   6.149   3.417  0.00  0.00    +0.254 C 
ATOM     19  C   UNL     1      16.421   9.479   4.670  0.00  0.00    +0.247 C 
ENDROOT
BRANCH  19  23
ATOM      2  F   UNL     1      20.176   8.355   7.529  0.00  0.00    -0.205 F 
ATOM     23  C   UNL     1      17.752   8.883   4.867  0.00  0.00    +0.040 A 
ATOM     29  C   UNL     1      18.345   8.902   6.129  0.00  0.00    +0.051 A 
ATOM     30  C   UNL     1      18.421   8.299   3.790  0.00  0.00    +0.013 A 
ATOM     37  C   UNL     1      19.607   8.336   6.316  0.00  0.00    +0.124 A 
ATOM     38  C   UNL     1      19.682   7.734   3.978  0.00  0.00    +0.004 A 
ATOM     39  C   UNL     1      20.275   7.753   5.241  0.00  0.00    +0.038 A 
ENDBRANCH  19  23
BRANCH  18  22
ATOM      1  S   UNL     1       9.999   5.962   5.350  0.00  0.00    -0.092 S 
ATOM     22  C   UNL     1      10.602   6.565   3.866  0.00  0.00    +0.074 A 
ATOM     28  C   UNL     1       9.707   7.413   3.250  0.00  0.00    +0.021 A 
ATOM     33  C   UNL     1       8.512   7.570   4.008  0.00  0.00    +0.008 A 
ATOM     36  C   UNL     1       8.537   6.836   5.173  0.00  0.00    +0.046 A 
ENDBRANCH  18  22
BRANCH  12  16
ATOM      3  O   UNL     1      13.746   7.583   1.316  0.00  0.00    -0.274 OA
ATOM      9  N   UNL     1      15.768   6.434   1.436  0.00  0.00    -0.302 N 
ATOM     16  C   UNL     1      14.577   6.929   1.940  0.00  0.00    +0.236 C 
ATOM     40  H   UNL     1      16.379   5.887   2.034  0.00  0.00    +0.150 HD
BRANCH   9  17
ATOM     17  C   UNL     1      16.189   6.633   0.068  0.00  0.00    +0.163 C 
BRANCH  17  25
ATOM      6  O   UNL     1      17.201   8.829   0.314  0.00  0.00    -0.274 OA
ATOM     11  N   UNL     1      18.568   7.029  -0.102  0.00  0.00    -0.328 N 
ATOM     25  C   UNL     1      17.340   7.627   0.095  0.00  0.00    +0.231 C 
ATOM     42  H   UNL     1      19.421   7.578  -0.094  0.00  0.00    +0.145 HD
ATOM     43  H   UNL     1      18.670   6.032  -0.258  0.00  0.00    +0.145 HD
ENDBRANCH  17  25
BRANCH  17  20
ATOM     20  C   UNL     1      16.627   5.323  -0.601  0.00  0.00    +0.069 C 
BRANCH  20  21
ATOM     10  N   UNL     1      14.846   4.504  -3.710  0.00  0.00    -0.360 N 
ATOM     21  C   UNL     1      15.699   4.882  -1.696  0.00  0.00    -0.020 A 
ATOM     24  C   UNL     1      14.439   4.241  -1.533  0.00  0.00    +0.003 A 
ATOM     26  C   UNL     1      15.921   5.030  -3.046  0.00  0.00    +0.087 A 
ATOM     27  C   UNL     1      13.926   4.015  -2.812  0.00  0.00    +0.047 A 
ATOM     31  C   UNL     1      13.684   3.830  -0.416  0.00  0.00    +0.010 A 
ATOM     32  C   UNL     1      12.689   3.396  -3.030  0.00  0.00    +0.026 A 
ATOM     34  C   UNL     1      12.446   3.210  -0.619  0.00  0.00    +0.001 A 
ATOM     35  C   UNL     1      11.959   2.997  -1.907  0.00  0.00    +0.002 A 
ATOM     41  H   UNL     1      14.742   4.478  -4.716  0.00  0.00    +0.165 HD
ENDBRANCH  20  21
ENDBRANCH  17  20
ENDBRANCH   9  17
ENDBRANCH  12  16
TORSDOF 7
ENDMDL
MODEL 6
REMARK VINA RESULT:      -6.6      1.641      1.861
REMARK  Name = 7165018
REMARK  7 active torsions:
REMARK  status: ('A' for Active; 'I' for Inactive)
REMARK    1  A    between atoms: N_9  and  C_17
REMARK    2  A    between atoms: C_12  and  C_16
REMARK    3  A    between atoms: C_17  and  C_20
REMARK    4  A    between atoms: C_17  and  C_25
REMARK    5  A    between atoms: C_18  and  C_22
REMARK    6  A    between atoms: C_19  and  C_23
REMARK    7  A    between atoms: C_20  and  C_21
REMARK                            x       y       z     vdW  Elec       q    Type
REMARK                         _______ _______ _______ _____ _____    ______ ____
ROOT
ATOM      4  O   UNL     1      11.819   6.188   4.695  0.00  0.00    -0.269 OA
ATOM      5  O   UNL     1      17.250  11.057   5.289  0.00  0.00    -0.270 OA
ATOM      7  N   UNL     1      13.233   7.924   5.295  0.00  0.00    -0.283 N 
ATOM      8  N   UNL     1      15.875   9.170   5.365  0.00  0.00    -0.294 N 
ATOM     12  C   UNL     1      14.404   7.240   4.740  0.00  0.00    +0.179 C 
ATOM     13  C   UNL     1      15.721   7.707   5.357  0.00  0.00    +0.140 C 
ATOM     14  C   UNL     1      13.465   9.223   5.945  0.00  0.00    +0.128 C 
ATOM     15  C   UNL     1      14.651   9.968   5.350  0.00  0.00    +0.127 C 
ATOM     18  C   UNL     1      11.977   7.277   5.249  0.00  0.00    +0.254 C 
ATOM     19  C   UNL     1      17.106   9.835   5.331  0.00  0.00    +0.247 C 
ENDROOT
BRANCH  19  23
ATOM      2  F   UNL     1      20.409   7.094   3.070  0.00  0.00    -0.205 F 
ATOM     23  C   UNL     1      18.336   9.027   5.351  0.00  0.00    +0.040 A 
ATOM     29  C   UNL     1      18.798   8.431   4.178  0.00  0.00    +0.051 A 
ATOM     30  C   UNL     1      19.039   8.857   6.545  0.00  0.00    +0.013 A 
ATOM     37  C   UNL     1      19.965   7.666   4.197  0.00  0.00    +0.124 A 
ATOM     38  C   UNL     1      20.204   8.091   6.563  0.00  0.00    +0.004 A 
ATOM     39  C   UNL     1      20.667   7.496   5.389  0.00  0.00    +0.038 A 
ENDBRANCH  19  23
BRANCH  18  22
ATOM      1  S   UNL     1      10.407   7.528   7.477  0.00  0.00    -0.092 S 
ATOM     22  C   UNL     1      10.848   7.955   5.878  0.00  0.00    +0.074 A 
ATOM     28  C   UNL     1      10.033   8.939   5.362  0.00  0.00    +0.021 A 
ATOM     33  C   UNL     1       9.034   9.348   6.291  0.00  0.00    +0.008 A 
ATOM     36  C   UNL     1       9.123   8.661   7.483  0.00  0.00    +0.046 A 
ENDBRANCH  18  22
BRANCH  12  16
ATOM      3  O   UNL     1      13.620   8.267   2.729  0.00  0.00    -0.274 OA
ATOM      9  N   UNL     1      15.292   6.652   2.592  0.00  0.00    -0.302 N 
ATOM     16  C   UNL     1      14.385   7.462   3.254  0.00  0.00    +0.236 C 
ATOM     40  H   UNL     1      15.868   6.005   3.120  0.00  0.00    +0.150 HD
BRANCH   9  17
ATOM     17  C   UNL     1      15.454   6.657   1.156  0.00  0.00    +0.163 C 
BRANCH  17  25
ATOM      6  O   UNL     1      17.721   7.383   0.668  0.00  0.00    -0.274 OA
ATOM     11  N   UNL     1      16.045   8.954   0.688  0.00  0.00    -0.328 N 
ATOM     25  C   UNL     1      16.538   7.674   0.831  0.00  0.00    +0.231 C 
ATOM     42  H   UNL     1      16.661   9.726   0.457  0.00  0.00    +0.145 HD
ATOM     43  H   UNL     1      15.062   9.176   0.803  0.00  0.00    +0.145 HD
ENDBRANCH  17  25
BRANCH  17  20
ATOM     20  C   UNL     1      15.834   5.274   0.610  0.00  0.00    +0.069 C 
BRANCH  20  21
ATOM     10  N   UNL     1      12.937   3.016   0.733  0.00  0.00    -0.360 N 
ATOM     21  C   UNL     1      14.646   4.386   0.375  0.00  0.00    -0.020 A 
ATOM     24  C   UNL     1      14.048   4.084  -0.880  0.00  0.00    +0.003 A 
ATOM     26  C   UNL     1      13.941   3.714   1.347  0.00  0.00    +0.087 A 
ATOM     27  C   UNL     1      12.978   3.224  -0.627  0.00  0.00    +0.047 A 
ATOM     31  C   UNL     1      14.316   4.462  -2.211  0.00  0.00    +0.010 A 
ATOM     32  C   UNL     1      12.158   2.720  -1.644  0.00  0.00    +0.026 A 
ATOM     34  C   UNL     1      13.504   3.967  -3.238  0.00  0.00    +0.001 A 
ATOM     35  C   UNL     1      12.443   3.109  -2.956  0.00  0.00    +0.002 A 
ATOM     41  H   UNL     1      12.261   2.433   1.208  0.00  0.00    +0.165 HD
ENDBRANCH  20  21
ENDBRANCH  17  20
ENDBRANCH   9  17
ENDBRANCH  12  16
TORSDOF 7
ENDMDL
MODEL 7
REMARK VINA RESULT:      -6.6     27.019     30.826
REMARK  Name = 7165018
REMARK  7 active torsions:
REMARK  status: ('A' for Active; 'I' for Inactive)
REMARK    1  A    between atoms: N_9  and  C_17
REMARK    2  A    between atoms: C_12  and  C_16
REMARK    3  A    between atoms: C_17  and  C_20
REMARK    4  A    between atoms: C_17  and  C_25
REMARK    5  A    between atoms: C_18  and  C_22
REMARK    6  A    between atoms: C_19  and  C_23
REMARK    7  A    between atoms: C_20  and  C_21
REMARK                            x       y       z     vdW  Elec       q    Type
REMARK                         _______ _______ _______ _____ _____    ______ ____
ROOT
ATOM      4  O   UNL     1      -8.847  -9.246  16.746  0.00  0.00    -0.269 OA
ATOM      5  O   UNL     1      -6.727 -11.450  10.098  0.00  0.00    -0.270 OA
ATOM      7  N   UNL     1      -8.636  -9.691  14.481  0.00  0.00    -0.283 N 
ATOM      8  N   UNL     1      -7.018 -10.352  12.139  0.00  0.00    -0.294 N 
ATOM     12  C   UNL     1      -7.180  -9.823  14.584  0.00  0.00    +0.179 C 
ATOM     13  C   UNL     1      -6.460  -9.578  13.259  0.00  0.00    +0.140 C 
ATOM     14  C   UNL     1      -9.226  -9.836  13.142  0.00  0.00    +0.128 C 
ATOM     15  C   UNL     1      -8.416 -10.762  12.246  0.00  0.00    +0.127 C 
ATOM     18  C   UNL     1      -9.375  -9.359  15.639  0.00  0.00    +0.254 C 
ATOM     19  C   UNL     1      -6.287 -10.761  11.019  0.00  0.00    +0.247 C 
ENDROOT
BRANCH  19  23
ATOM      2  F   UNL     1      -1.612 -11.282  12.208  0.00  0.00    -0.205 F 
ATOM     23  C   UNL     1      -4.880 -10.342  10.913  0.00  0.00    +0.040 A 
ATOM     29  C   UNL     1      -3.893 -11.024  11.625  0.00  0.00    +0.051 A 
ATOM     30  C   UNL     1      -4.533  -9.261  10.102  0.00  0.00    +0.013 A 
ATOM     37  C   UNL     1      -2.559 -10.627  11.525  0.00  0.00    +0.124 A 
ATOM     38  C   UNL     1      -3.200  -8.864  10.002  0.00  0.00    +0.004 A 
ATOM     39  C   UNL     1      -2.214  -9.546  10.714  0.00  0.00    +0.038 A 
ENDBRANCH  19  23
BRANCH  18  22
ATOM      1  S   UNL     1     -11.406  -7.591  15.148  0.00  0.00    -0.092 S 
ATOM     22  C   UNL     1     -10.813  -9.161  15.485  0.00  0.00    +0.074 A 
ATOM     28  C   UNL     1     -11.828 -10.089  15.572  0.00  0.00    +0.021 A 
ATOM     33  C   UNL     1     -13.109  -9.504  15.360  0.00  0.00    +0.008 A 
ATOM     36  C   UNL     1     -13.025  -8.149  15.119  0.00  0.00    +0.046 A 
ENDBRANCH  18  22
BRANCH  12  16
ATOM      3  O   UNL     1      -7.755 -12.075  15.140  0.00  0.00    -0.274 OA
ATOM      9  N   UNL     1      -5.595 -11.324  15.576  0.00  0.00    -0.302 N 
ATOM     16  C   UNL     1      -6.895 -11.199  15.116  0.00  0.00    +0.236 C 
ATOM     40  H   UNL     1      -4.965 -10.529  15.527  0.00  0.00    +0.150 HD
BRANCH   9  17
ATOM     17  C   UNL     1      -5.076 -12.540  16.156  0.00  0.00    +0.163 C 
BRANCH  17  25
ATOM      6  O   UNL     1      -2.968 -11.995  15.076  0.00  0.00    -0.274 OA
ATOM     11  N   UNL     1      -3.546 -14.207  15.305  0.00  0.00    -0.328 N 
ATOM     25  C   UNL     1      -3.767 -12.853  15.446  0.00  0.00    +0.231 C 
ATOM     42  H   UNL     1      -2.702 -14.553  14.861  0.00  0.00    +0.145 HD
ATOM     43  H   UNL     1      -4.204 -14.905  15.637  0.00  0.00    +0.145 HD
ENDBRANCH  17  25
BRANCH  17  20
ATOM     20  C   UNL     1      -4.848 -12.411  17.669  0.00  0.00    +0.069 C 
BRANCH  20  21
ATOM     10  N   UNL     1      -7.082 -10.078  19.423  0.00  0.00    -0.360 N 
ATOM     21  C   UNL     1      -5.951 -11.672  18.370  0.00  0.00    -0.020 A 
ATOM     24  C   UNL     1      -7.254 -12.166  18.656  0.00  0.00    +0.003 A 
ATOM     26  C   UNL     1      -5.876 -10.386  18.854  0.00  0.00    +0.087 A 
ATOM     27  C   UNL     1      -7.944 -11.146  19.316  0.00  0.00    +0.047 A 
ATOM     31  C   UNL     1      -7.916 -13.387  18.416  0.00  0.00    +0.010 A 
ATOM     32  C   UNL     1      -9.267 -11.288  19.749  0.00  0.00    +0.026 A 
ATOM     34  C   UNL     1      -9.239 -13.543  18.843  0.00  0.00    +0.001 A 
ATOM     35  C   UNL     1      -9.902 -12.508  19.500  0.00  0.00    +0.002 A 
ATOM     41  H   UNL     1      -7.309  -9.194  19.858  0.00  0.00    +0.165 HD
ENDBRANCH  20  21
ENDBRANCH  17  20
ENDBRANCH   9  17
ENDBRANCH  12  16
TORSDOF 7
ENDMDL
MODEL 8
REMARK VINA RESULT:      -6.5      3.896      6.882
REMARK  Name = 7165018
REMARK  7 active torsions:
REMARK  status: ('A' for Active; 'I' for Inactive)
REMARK    1  A    between atoms: N_9  and  C_17
REMARK    2  A    between atoms: C_12  and  C_16
REMARK    3  A    between atoms: C_17  and  C_20
REMARK    4  A    between atoms: C_17  and  C_25
REMARK    5  A    between atoms: C_18  and  C_22
REMARK    6  A    between atoms: C_19  and  C_23
REMARK    7  A    between atoms: C_20  and  C_21
REMARK                            x       y       z     vdW  Elec       q    Type
REMARK                         _______ _______ _______ _____ _____    ______ ____
ROOT
ATOM      4  O   UNL     1      11.276  11.495   2.778  0.00  0.00    -0.269 OA
ATOM      5  O   UNL     1      10.708   4.262   3.731  0.00  0.00    -0.270 OA
ATOM      7  N   UNL     1      10.571   9.325   3.183  0.00  0.00    -0.283 N 
ATOM      8  N   UNL     1      10.876   6.434   2.887  0.00  0.00    -0.294 N 
ATOM     12  C   UNL     1      11.652   8.760   2.371  0.00  0.00    +0.179 C 
ATOM     13  C   UNL     1      11.339   7.361   1.843  0.00  0.00    +0.140 C 
ATOM     14  C   UNL     1       9.616   8.375   3.776  0.00  0.00    +0.128 C 
ATOM     15  C   UNL     1      10.246   7.022   4.067  0.00  0.00    +0.127 C 
ATOM     18  C   UNL     1      10.456  10.729   3.288  0.00  0.00    +0.254 C 
ATOM     19  C   UNL     1      11.047   5.046   2.844  0.00  0.00    +0.247 C 
ENDROOT
BRANCH  19  23
ATOM      2  F   UNL     1      10.820   3.575  -1.773  0.00  0.00    -0.205 F 
ATOM     23  C   UNL     1      11.677   4.458   1.651  0.00  0.00    +0.040 A 
ATOM     29  C   UNL     1      10.936   4.291   0.481  0.00  0.00    +0.051 A 
ATOM     30  C   UNL     1      13.016   4.066   1.690  0.00  0.00    +0.013 A 
ATOM     37  C   UNL     1      11.532   3.735  -0.650  0.00  0.00    +0.124 A 
ATOM     38  C   UNL     1      13.611   3.509   0.559  0.00  0.00    +0.004 A 
ATOM     39  C   UNL     1      12.870   3.343  -0.611  0.00  0.00    +0.038 A 
ENDBRANCH  19  23
BRANCH  18  22
ATOM      1  S   UNL     1       7.853  11.573   3.224  0.00  0.00    -0.092 S 
ATOM     22  C   UNL     1       9.324  11.258   4.042  0.00  0.00    +0.074 A 
ATOM     28  C   UNL     1       9.244  11.561   5.384  0.00  0.00    +0.021 A 
ATOM     33  C   UNL     1       7.959  12.058   5.745  0.00  0.00    +0.008 A 
ATOM     36  C   UNL     1       7.105  12.117   4.665  0.00  0.00    +0.046 A 
ENDBRANCH  18  22
BRANCH  12  16
ATOM      3  O   UNL     1      13.834   8.006   2.992  0.00  0.00    -0.274 OA
ATOM      9  N   UNL     1      12.816   9.675   4.258  0.00  0.00    -0.302 N 
ATOM     16  C   UNL     1      12.892   8.761   3.220  0.00  0.00    +0.236 C 
ATOM     40  H   UNL     1      11.981  10.242   4.369  0.00  0.00    +0.150 HD
BRANCH   9  17
ATOM     17  C   UNL     1      13.869   9.855   5.230  0.00  0.00    +0.163 C 
BRANCH  17  25
ATOM      6  O   UNL     1      15.574  11.584   5.323  0.00  0.00    -0.274 OA
ATOM     11  N   UNL     1      13.518  12.114   4.444  0.00  0.00    -0.328 N 
ATOM     25  C   UNL     1      14.425  11.258   5.032  0.00  0.00    +0.231 C 
ATOM     42  H   UNL     1      13.767  13.077   4.243  0.00  0.00    +0.145 HD
ATOM     43  H   UNL     1      12.580  11.824   4.188  0.00  0.00    +0.145 HD
ENDBRANCH  17  25
BRANCH  17  20
ATOM     20  C   UNL     1      13.368   9.674   6.669  0.00  0.00    +0.069 C 
BRANCH  20  21
ATOM     10  N   UNL     1      12.637   6.106   7.165  0.00  0.00    -0.360 N 
ATOM     21  C   UNL     1      12.803   8.307   6.930  0.00  0.00    -0.020 A 
ATOM     24  C   UNL     1      11.461   7.998   7.285  0.00  0.00    +0.003 A 
ATOM     26  C   UNL     1      13.502   7.124   6.863  0.00  0.00    +0.087 A 
ATOM     27  C   UNL     1      11.384   6.611   7.427  0.00  0.00    +0.047 A 
ATOM     31  C   UNL     1      10.300   8.768   7.500  0.00  0.00    +0.010 A 
ATOM     32  C   UNL     1      10.199   5.953   7.775  0.00  0.00    +0.026 A 
ATOM     34  C   UNL     1       9.108   8.123   7.849  0.00  0.00    +0.001 A 
ATOM     35  C   UNL     1       9.061   6.737   7.984  0.00  0.00    +0.002 A 
ATOM     41  H   UNL     1      12.883   5.126   7.192  0.00  0.00    +0.165 HD
ENDBRANCH  20  21
ENDBRANCH  17  20
ENDBRANCH   9  17
ENDBRANCH  12  16
TORSDOF 7
ENDMDL
MODEL 9
REMARK VINA RESULT:      -6.5     27.017     30.473
REMARK  Name = 7165018
REMARK  7 active torsions:
REMARK  status: ('A' for Active; 'I' for Inactive)
REMARK    1  A    between atoms: N_9  and  C_17
REMARK    2  A    between atoms: C_12  and  C_16
REMARK    3  A    between atoms: C_17  and  C_20
REMARK    4  A    between atoms: C_17  and  C_25
REMARK    5  A    between atoms: C_18  and  C_22
REMARK    6  A    between atoms: C_19  and  C_23
REMARK    7  A    between atoms: C_20  and  C_21
REMARK                            x       y       z     vdW  Elec       q    Type
REMARK                         _______ _______ _______ _____ _____    ______ ____
ROOT
ATOM      4  O   UNL     1      -6.718  -9.137  16.204  0.00  0.00    -0.269 OA
ATOM      5  O   UNL     1      -8.949 -12.405  10.048  0.00  0.00    -0.270 OA
ATOM      7  N   UNL     1      -7.924 -10.057  14.451  0.00  0.00    -0.283 N 
ATOM      8  N   UNL     1      -8.142 -10.932  11.671  0.00  0.00    -0.294 N 
ATOM     12  C   UNL     1      -6.810  -9.880  13.515  0.00  0.00    +0.179 C 
ATOM     13  C   UNL     1      -7.255  -9.823  12.055  0.00  0.00    +0.140 C 
ATOM     14  C   UNL     1      -9.168 -10.625  13.908  0.00  0.00    +0.128 C 
ATOM     15  C   UNL     1      -8.916 -11.565  12.737  0.00  0.00    +0.127 C 
ATOM     18  C   UNL     1      -7.776  -9.609  15.782  0.00  0.00    +0.254 C 
ATOM     19  C   UNL     1      -8.248 -11.448  10.374  0.00  0.00    +0.247 C 
ENDROOT
BRANCH  19  23
ATOM      2  F   UNL     1      -4.278 -11.178   7.599  0.00  0.00    -0.205 F 
ATOM     23  C   UNL     1      -7.472 -10.804   9.303  0.00  0.00    +0.040 A 
ATOM     29  C   UNL     1      -6.218 -11.305   8.952  0.00  0.00    +0.051 A 
ATOM     30  C   UNL     1      -7.988  -9.691   8.639  0.00  0.00    +0.013 A 
ATOM     37  C   UNL     1      -5.482 -10.696   7.936  0.00  0.00    +0.124 A 
ATOM     38  C   UNL     1      -7.252  -9.081   7.623  0.00  0.00    +0.004 A 
ATOM     39  C   UNL     1      -5.999  -9.584   7.272  0.00  0.00    +0.038 A 
ENDBRANCH  19  23
BRANCH  18  22
ATOM      1  S   UNL     1      -9.826  -8.328  17.066  0.00  0.00    -0.092 S 
ATOM     22  C   UNL     1      -8.931  -9.731  16.666  0.00  0.00    +0.074 A 
ATOM     28  C   UNL     1      -9.446 -10.861  17.264  0.00  0.00    +0.021 A 
ATOM     33  C   UNL     1     -10.590 -10.571  18.062  0.00  0.00    +0.008 A 
ATOM     36  C   UNL     1     -10.907  -9.230  18.042  0.00  0.00    +0.046 A 
ENDBRANCH  18  22
BRANCH  12  16
ATOM      3  O   UNL     1      -6.152 -12.178  13.519  0.00  0.00    -0.274 OA
ATOM      9  N   UNL     1      -4.639 -10.571  14.262  0.00  0.00    -0.302 N 
ATOM     16  C   UNL     1      -5.848 -11.011  13.751  0.00  0.00    +0.236 C 
ATOM     40  H   UNL     1      -4.495  -9.581  14.434  0.00  0.00    +0.150 HD
BRANCH   9  17
ATOM     17  C   UNL     1      -3.552 -11.462  14.596  0.00  0.00    +0.163 C 
BRANCH  17  25
ATOM      6  O   UNL     1      -1.883 -11.282  12.839  0.00  0.00    -0.274 OA
ATOM     11  N   UNL     1      -1.705  -9.905  14.669  0.00  0.00    -0.328 N 
ATOM     25  C   UNL     1      -2.299 -10.909  13.934  0.00  0.00    +0.231 C 
ATOM     42  H   UNL     1      -0.868  -9.440  14.334  0.00  0.00    +0.145 HD
ATOM     43  H   UNL     1      -2.073  -9.590  15.561  0.00  0.00    +0.145 HD
ENDBRANCH  17  25
BRANCH  17  20
ATOM     20  C   UNL     1      -3.348 -11.586  16.112  0.00  0.00    +0.069 C 
BRANCH  20  21
ATOM     10  N   UNL     1      -5.931 -13.891  17.346  0.00  0.00    -0.360 N 
ATOM     21  C   UNL     1      -4.466 -12.317  16.800  0.00  0.00    -0.020 A 
ATOM     24  C   UNL     1      -5.266 -11.828  17.869  0.00  0.00    +0.003 A 
ATOM     26  C   UNL     1      -4.899 -13.587  16.500  0.00  0.00    +0.087 A 
ATOM     27  C   UNL     1      -6.177 -12.835  18.194  0.00  0.00    +0.047 A 
ATOM     31  C   UNL     1      -5.302 -10.620  18.595  0.00  0.00    +0.010 A 
ATOM     32  C   UNL     1      -7.126 -12.694  19.212  0.00  0.00    +0.026 A 
ATOM     34  C   UNL     1      -6.246 -10.466  19.617  0.00  0.00    +0.001 A 
ATOM     35  C   UNL     1      -7.144 -11.489  19.918  0.00  0.00    +0.002 A 
ATOM     41  H   UNL     1      -6.440 -14.765  17.349  0.00  0.00    +0.165 HD
ENDBRANCH  20  21
ENDBRANCH  17  20
ENDBRANCH   9  17
ENDBRANCH  12  16
TORSDOF 7
ENDMDL
MODEL 10
REMARK VINA RESULT:      -6.5      2.469      4.806
REMARK  Name = 7165018
REMARK  7 active torsions:
REMARK  status: ('A' for Active; 'I' for Inactive)
REMARK    1  A    between atoms: N_9  and  C_17
REMARK    2  A    between atoms: C_12  and  C_16
REMARK    3  A    between atoms: C_17  and  C_20
REMARK    4  A    between atoms: C_17  and  C_25
REMARK    5  A    between atoms: C_18  and  C_22
REMARK    6  A    between atoms: C_19  and  C_23
REMARK    7  A    between atoms: C_20  and  C_21
REMARK                            x       y       z     vdW  Elec       q    Type
REMARK                         _______ _______ _______ _____ _____    ______ ____
ROOT
ATOM      4  O   UNL     1       9.875   9.319   7.792  0.00  0.00    -0.269 OA
ATOM      5  O   UNL     1      14.903   8.637   2.519  0.00  0.00    -0.270 OA
ATOM      7  N   UNL     1      11.175   9.501   5.882  0.00  0.00    -0.283 N 
ATOM      8  N   UNL     1      13.702   9.142   4.457  0.00  0.00    -0.294 N 
ATOM     12  C   UNL     1      12.359   8.975   6.567  0.00  0.00    +0.179 C 
ATOM     13  C   UNL     1      13.671   9.394   5.907  0.00  0.00    +0.140 C 
ATOM     14  C   UNL     1      11.341   9.902   4.476  0.00  0.00    +0.128 C 
ATOM     15  C   UNL     1      12.416   9.094   3.764  0.00  0.00    +0.127 C 
ATOM     18  C   UNL     1       9.979   9.667   6.614  0.00  0.00    +0.254 C 
ATOM     19  C   UNL     1      14.866   8.896   3.722  0.00  0.00    +0.247 C 
ENDROOT
BRANCH  19  23
ATOM      2  F   UNL     1      19.377   7.253   4.424  0.00  0.00    -0.205 F 
ATOM     23  C   UNL     1      16.158   8.951   4.424  0.00  0.00    +0.040 A 
ATOM     29  C   UNL     1      17.175   8.058   4.085  0.00  0.00    +0.051 A 
ATOM     30  C   UNL     1      16.367   9.896   5.430  0.00  0.00    +0.013 A 
ATOM     37  C   UNL     1      18.401   8.111   4.750  0.00  0.00    +0.124 A 
ATOM     38  C   UNL     1      17.592   9.948   6.094  0.00  0.00    +0.004 A 
ATOM     39  C   UNL     1      18.608   9.055   5.754  0.00  0.00    +0.038 A 
ENDBRANCH  19  23
BRANCH  18  22
ATOM      1  S   UNL     1       8.635  11.963   5.969  0.00  0.00    -0.092 S 
ATOM     22  C   UNL     1       8.842  10.264   5.920  0.00  0.00    +0.074 A 
ATOM     28  C   UNL     1       7.852   9.644   5.189  0.00  0.00    +0.021 A 
ATOM     33  C   UNL     1       6.912  10.575   4.663  0.00  0.00    +0.008 A 
ATOM     36  C   UNL     1       7.218  11.873   5.012  0.00  0.00    +0.046 A 
ENDBRANCH  18  22
BRANCH  12  16
ATOM      3  O   UNL     1      13.178   6.745   6.838  0.00  0.00    -0.274 OA
ATOM      9  N   UNL     1      10.925   7.065   6.344  0.00  0.00    -0.302 N 
ATOM     16  C   UNL     1      12.219   7.478   6.609  0.00  0.00    +0.236 C 
ATOM     40  H   UNL     1      10.206   7.755   6.149  0.00  0.00    +0.150 HD
BRANCH   9  17
ATOM     17  C   UNL     1      10.532   5.676   6.303  0.00  0.00    +0.163 C 
BRANCH  17  25
ATOM      6  O   UNL     1       9.482   6.049   8.463  0.00  0.00    -0.274 OA
ATOM     11  N   UNL     1      10.403   3.989   8.030  0.00  0.00    -0.328 N 
ATOM     25  C   UNL     1      10.091   5.294   7.708  0.00  0.00    +0.231 C 
ATOM     42  H   UNL     1      10.152   3.602   8.933  0.00  0.00    +0.145 HD
ATOM     43  H   UNL     1      10.885   3.369   7.388  0.00  0.00    +0.145 HD
ENDBRANCH  17  25
BRANCH  17  20
ATOM     20  C   UNL     1       9.401   5.421   5.298  0.00  0.00    +0.069 C 
BRANCH  20  21
ATOM     10  N   UNL     1       9.798   7.128   2.067  0.00  0.00    -0.360 N 
ATOM     21  C   UNL     1       9.728   5.894   3.910  0.00  0.00    -0.020 A 
ATOM     24  C   UNL     1      10.544   5.224   2.957  0.00  0.00    +0.003 A 
ATOM     26  C   UNL     1       9.283   7.061   3.333  0.00  0.00    +0.087 A 
ATOM     27  C   UNL     1      10.572   6.020   1.810  0.00  0.00    +0.047 A 
ATOM     31  C   UNL     1      11.265   4.013   2.960  0.00  0.00    +0.010 A 
ATOM     32  C   UNL     1      11.288   5.663   0.661  0.00  0.00    +0.026 A 
ATOM     34  C   UNL     1      11.985   3.643   1.819  0.00  0.00    +0.001 A 
ATOM     35  C   UNL     1      11.994   4.457   0.688  0.00  0.00    +0.002 A 
ATOM     41  H   UNL     1       9.635   7.882   1.414  0.00  0.00    +0.165 HD
ENDBRANCH  20  21
ENDBRANCH  17  20
ENDBRANCH   9  17
ENDBRANCH  12  16
TORSDOF 7
ENDMDL
