REMARK  Name = 45783386
REMARK  9 active torsions:
REMARK  status: ('A' for Active; 'I' for Inactive)
REMARK    1  A    between atoms: O_4  and  C_30
REMARK    2  A    between atoms: O_4  and  C_31
REMARK    3  A    between atoms: N_5  and  C_15
REMARK    4  A    between atoms: N_8  and  C_28
REMARK    5  A    between atoms: N_9  and  C_24
REMARK    6  A    between atoms: C_11  and  C_16
REMARK    7  A    between atoms: C_15  and  C_17
REMARK    8  A    between atoms: C_20  and  C_23
REMARK    9  A    between atoms: C_28  and  C_30
REMARK                            x       y       z     vdW  Elec       q    Type
REMARK                         _______ _______ _______ _____ _____    ______ ____
ROOT
ATOM      1  O   UNL     1      -0.764   0.099   2.673  0.00  0.00    -0.336 OA
ATOM      6  N   UNL     1      -0.342  -1.260   0.944  0.00  0.00    -0.190 NA
ATOM      7  N   UNL     1       0.628  -0.042   2.620  0.00  0.00    -0.056 NA
ATOM     16  C   UNL     1      -1.258  -0.650   1.653  0.00  0.00    +0.245 A 
ATOM     20  C   UNL     1       0.799  -0.857   1.575  0.00  0.00    +0.205 A 
ENDROOT
BRANCH  20  23
ATOM      8  N   UNL     1       1.339  -1.468  -1.146  0.00  0.00    -0.326 N 
ATOM     10  N   UNL     1       3.586  -1.999  -0.629  0.00  0.00    -0.240 NA
ATOM     23  C   UNL     1       2.095  -1.288   1.136  0.00  0.00    +0.062 A 
ATOM     25  C   UNL     1       2.376  -1.591  -0.186  0.00  0.00    +0.130 A 
ATOM     26  C   UNL     1       3.123  -1.414   2.065  0.00  0.00    +0.016 A 
ATOM     27  C   UNL     1       4.381  -1.831   1.648  0.00  0.00    +0.020 A 
ATOM     29  C   UNL     1       4.560  -2.109   0.302  0.00  0.00    +0.113 A 
ATOM     32  H   UNL     1       0.578  -0.842  -0.905  0.00  0.00    +0.148 HD
BRANCH   8  28
ATOM     28  C   UNL     1       1.533  -1.757  -2.529  0.00  0.00    +0.131 C 
BRANCH  28  30
ATOM     30  C   UNL     1       0.249  -1.497  -3.299  0.00  0.00    +0.178 C 
BRANCH  30   4
ATOM      4  O   UNL     1      -0.776  -2.353  -2.812  0.00  0.00    -0.381 OA
ATOM     31  C   UNL     1      -1.998  -2.151  -3.509  0.00  0.00    +0.194 C 
ENDBRANCH  30   4
ENDBRANCH  28  30
ENDBRANCH   8  28
ENDBRANCH  20  23
BRANCH  16  11
ATOM      5  N   UNL     1      -3.196  -0.210   0.156  0.00  0.00    -0.287 NA
ATOM     11  C   UNL     1      -2.763  -0.664   1.493  0.00  0.00    +0.146 C 
ATOM     12  C   UNL     1      -3.364  -2.074   1.641  0.00  0.00    +0.030 C 
ATOM     13  C   UNL     1      -4.166  -2.301   0.367  0.00  0.00    +0.017 C 
ATOM     14  C   UNL     1      -4.457  -0.898  -0.125  0.00  0.00    +0.085 C 
BRANCH   5  15
ATOM     15  C   UNL     1      -3.327   1.237   0.055  0.00  0.00    +0.120 C 
BRANCH  15  17
ATOM     17  C   UNL     1      -1.993   1.908  -0.138  0.00  0.00    -0.033 A 
ATOM     18  C   UNL     1      -1.552   2.861   0.781  0.00  0.00    +0.007 A 
ATOM     19  C   UNL     1      -1.198   1.578  -1.235  0.00  0.00    +0.007 A 
ATOM     21  C   UNL     1      -0.316   3.482   0.602  0.00  0.00    +0.033 A 
ATOM     22  C   UNL     1       0.037   2.199  -1.415  0.00  0.00    +0.033 A 
ATOM     24  C   UNL     1       0.478   3.152  -0.496  0.00  0.00    +0.126 A 
BRANCH  24   9
ATOM      2  O   UNL     1       2.114   4.639   0.159  0.00  0.00    -0.126 OA
ATOM      3  O   UNL     1       2.435   3.473  -1.673  0.00  0.00    -0.126 OA
ATOM      9  N   UNL     1       1.736   3.785  -0.678  0.00  0.00    +0.056 N 
ENDBRANCH  24   9
ENDBRANCH  15  17
ENDBRANCH   5  15
ENDBRANCH  16  11
TORSDOF 8
