REMARK  Name = 9424537
REMARK  3 active torsions:
REMARK  status: ('A' for Active; 'I' for Inactive)
REMARK    1  A    between atoms: N_4  and  C_13
REMARK    2  A    between atoms: C_13  and  C_18
REMARK    3  A    between atoms: C_14  and  C_19
REMARK                            x       y       z     vdW  Elec       q    Type
REMARK                         _______ _______ _______ _____ _____    ______ ____
ROOT
ATOM      3  O   UNL     1      -3.337   2.038  -2.549  0.00  0.00    -0.268 OA
ATOM      4  N   UNL     1       0.124   2.130   1.038  0.00  0.00    -0.297 NA
ATOM      5  N   UNL     1      -2.409   1.125  -0.602  0.00  0.00    -0.311 N 
ATOM      6  C   UNL     1      -2.294   2.454   1.589  0.00  0.00    +0.024 C 
ATOM      7  C   UNL     1      -1.383   0.185   1.490  0.00  0.00    +0.051 C 
ATOM      8  C   UNL     1      -2.357   1.085   2.245  0.00  0.00    +0.017 C 
ATOM      9  C   UNL     1      -0.861   3.019   1.664  0.00  0.00    +0.090 C 
ATOM     10  C   UNL     1       0.045   0.772   1.594  0.00  0.00    +0.094 C 
ATOM     11  C   UNL     1      -2.798   2.327   0.150  0.00  0.00    +0.130 C 
ATOM     12  C   UNL     1      -1.798   0.021   0.025  0.00  0.00    +0.034 A 
ATOM     14  C   UNL     1      -1.585  -1.123  -0.676  0.00  0.00    +0.005 A 
ATOM     15  C   UNL     1      -2.789   1.109  -1.956  0.00  0.00    +0.252 A 
ATOM     16  C   UNL     1      -1.958  -1.175  -2.077  0.00  0.00    +0.015 A 
ATOM     17  C   UNL     1      -2.513  -0.138  -2.705  0.00  0.00    +0.071 A 
ENDROOT
BRANCH  14  19
ATOM      1  F   UNL     1       1.208  -1.545  -0.640  0.00  0.00    -0.205 F 
ATOM     19  C   UNL     1      -0.965  -2.313  -0.054  0.00  0.00    +0.019 A 
ATOM     22  C   UNL     1       0.418  -2.466  -0.068  0.00  0.00    +0.131 A 
ATOM     23  C   UNL     1      -1.775  -3.275   0.542  0.00  0.00    +0.011 A 
ATOM     26  C   UNL     1       0.997  -3.590   0.521  0.00  0.00    +0.039 A 
ATOM     27  C   UNL     1      -1.197  -4.399   1.131  0.00  0.00    +0.001 A 
ATOM     29  C   UNL     1       0.189  -4.557   1.120  0.00  0.00    +0.003 A 
ENDBRANCH  14  19
BRANCH   4  13
ATOM     13  C   UNL     1       1.475   2.671   1.169  0.00  0.00    +0.119 C 
BRANCH  13  18
ATOM      2  F   UNL     1       5.206  -0.526  -1.559  0.00  0.00    -0.205 F 
ATOM     18  C   UNL     1       2.474   1.815   0.440  0.00  0.00    -0.033 A 
ATOM     20  C   UNL     1       3.095   0.768   1.107  0.00  0.00    +0.008 A 
ATOM     21  C   UNL     1       2.761   2.084  -0.892  0.00  0.00    +0.008 A 
ATOM     24  C   UNL     1       4.021  -0.025   0.429  0.00  0.00    +0.038 A 
ATOM     25  C   UNL     1       3.687   1.291  -1.569  0.00  0.00    +0.038 A 
ATOM     28  C   UNL     1       4.318   0.236  -0.908  0.00  0.00    +0.123 A 
ENDBRANCH  13  18
ENDBRANCH   4  13
TORSDOF 3
