REMARK  Name = 45783599
REMARK  7 active torsions:
REMARK  status: ('A' for Active; 'I' for Inactive)
REMARK    1  A    between atoms: S_1  and  N_8
REMARK    2  A    between atoms: S_1  and  C_30
REMARK    3  A    between atoms: N_5  and  C_15
REMARK    4  A    between atoms: C_11  and  C_16
REMARK    5  A    between atoms: C_15  and  C_17
REMARK    6  A    between atoms: C_20  and  C_21
REMARK    7  A    between atoms: C_24  and  C_29
REMARK                            x       y       z     vdW  Elec       q    Type
REMARK                         _______ _______ _______ _____ _____    ______ ____
ROOT
ATOM      2  O   UNL     1      -2.370  -1.438  -1.226  0.00  0.00    -0.336 OA
ATOM      6  N   UNL     1      -1.005  -1.401   0.549  0.00  0.00    -0.190 NA
ATOM      7  N   UNL     1      -1.069  -1.547  -1.733  0.00  0.00    -0.056 NA
ATOM     16  C   UNL     1      -2.242  -1.356   0.124  0.00  0.00    +0.245 A 
ATOM     20  C   UNL     1      -0.321  -1.518  -0.626  0.00  0.00    +0.202 A 
ENDROOT
BRANCH  20  21
ATOM      8  N   UNL     1       4.053  -0.822   1.431  0.00  0.00    -0.204 N 
ATOM      9  N   UNL     1       3.900  -1.766  -0.725  0.00  0.00    -0.239 NA
ATOM     21  C   UNL     1       1.110  -1.603  -0.659  0.00  0.00    +0.027 A 
ATOM     25  C   UNL     1       1.861  -1.161   0.425  0.00  0.00    +0.056 A 
ATOM     26  C   UNL     1       1.753  -2.127  -1.775  0.00  0.00    +0.031 A 
ATOM     27  C   UNL     1       3.241  -1.263   0.342  0.00  0.00    +0.138 A 
ATOM     28  C   UNL     1       3.137  -2.186  -1.759  0.00  0.00    +0.113 A 
ATOM     31  H   UNL     1       3.541  -0.527   2.273  0.00  0.00    +0.175 HD
BRANCH   8   1
ATOM      1  S   UNL     1       5.504   0.032   1.070  0.00  0.00    +0.041 S 
ATOM      3  O   UNL     1       6.283   0.147   2.289  0.00  0.00    -0.155 OA
ATOM      4  O   UNL     1       6.111  -0.469  -0.147  0.00  0.00    -0.155 OA
ATOM     30  C   UNL     1       4.842   1.646   0.726  0.00  0.00    +0.218 C 
ENDBRANCH   8   1
ENDBRANCH  20  21
BRANCH  16  11
ATOM      5  N   UNL     1      -4.329  -0.058   0.515  0.00  0.00    -0.287 NA
ATOM     11  C   UNL     1      -3.526  -1.230   0.917  0.00  0.00    +0.146 C 
ATOM     12  C   UNL     1      -4.466  -2.434   0.722  0.00  0.00    +0.030 C 
ATOM     13  C   UNL     1      -5.790  -1.835   0.267  0.00  0.00    +0.017 C 
ATOM     14  C   UNL     1      -5.727  -0.407   0.770  0.00  0.00    +0.085 C 
BRANCH   5  15
ATOM     15  C   UNL     1      -3.937   1.169   1.197  0.00  0.00    +0.120 C 
BRANCH  15  17
ATOM     17  C   UNL     1      -2.709   1.785   0.582  0.00  0.00    -0.033 A 
ATOM     18  C   UNL     1      -1.567   1.990   1.357  0.00  0.00    +0.006 A 
ATOM     19  C   UNL     1      -2.712   2.150  -0.765  0.00  0.00    +0.006 A 
ATOM     22  C   UNL     1      -0.430   2.560   0.787  0.00  0.00    +0.019 A 
ATOM     23  C   UNL     1      -1.574   2.721  -1.335  0.00  0.00    +0.019 A 
ATOM     24  C   UNL     1      -0.433   2.926  -0.559  0.00  0.00    +0.052 A 
BRANCH  24  29
ATOM     10  N   UNL     1       1.679   3.985  -1.619  0.00  0.00    -0.191 NA
ATOM     29  C   UNL     1       0.732   3.510  -1.144  0.00  0.00    +0.099 C 
ENDBRANCH  24  29
ENDBRANCH  15  17
ENDBRANCH   5  15
ENDBRANCH  16  11
TORSDOF 6
