REMARK  Name = 11887241
REMARK  6 active torsions:
REMARK  status: ('A' for Active; 'I' for Inactive)
REMARK    1  A    between atoms: O_4  and  C_21
REMARK    2  A    between atoms: O_4  and  C_28
REMARK    3  A    between atoms: N_7  and  C_14
REMARK    4  A    between atoms: N_8  and  C_15
REMARK    5  A    between atoms: C_18  and  C_20
REMARK    6  A    between atoms: C_19  and  C_21
REMARK                            x       y       z     vdW  Elec       q    Type
REMARK                         _______ _______ _______ _____ _____    ______ ____
ROOT
ATOM      1  O   UNL     1       0.365  -3.236  -1.028  0.00  0.00    -0.370 OA
ATOM      2  O   UNL     1       0.779  -0.233  -1.866  0.00  0.00    -0.370 OA
ATOM     12  C   UNL     1       0.903  -0.949  -0.623  0.00  0.00    +0.176 C 
ATOM     13  C   UNL     1      -0.200  -1.989  -0.594  0.00  0.00    +0.171 C 
ATOM     14  C   UNL     1       2.190  -1.752  -0.617  0.00  0.00    +0.168 C 
ATOM     15  C   UNL     1      -1.210  -1.492  -1.604  0.00  0.00    +0.130 C 
ATOM     16  C   UNL     1       1.773  -3.074  -1.251  0.00  0.00    +0.190 C 
ATOM     17  C   UNL     1      -0.334  -0.757  -2.602  0.00  0.00    +0.185 C 
ENDROOT
BRANCH  14   7
ATOM      7  N   UNL     1       2.775  -1.864   0.722  0.00  0.00    -0.217 N 
ATOM      9  N   UNL     1       2.412  -2.856   1.540  0.00  0.00    -0.043 NA
ATOM     10  N   UNL     1       3.926  -1.548   2.525  0.00  0.00    -0.108 NA
ATOM     11  N   UNL     1       3.121  -2.659   2.645  0.00  0.00    -0.023 NA
ATOM     18  C   UNL     1       3.695  -1.072   1.323  0.00  0.00    +0.182 A 
BRANCH  18  20
ATOM      5  O   UNL     1       3.876   3.715   0.322  0.00  0.00    -0.453 OA
ATOM      6  O   UNL     1       5.912   3.479  -0.946  0.00  0.00    -0.453 OA
ATOM     20  C   UNL     1       4.297   0.089   0.721  0.00  0.00    +0.024 A 
ATOM     22  C   UNL     1       3.699   1.344   0.876  0.00  0.00    +0.061 A 
ATOM     23  C   UNL     1       5.486  -0.046  -0.020  0.00  0.00    +0.015 A 
ATOM     24  C   UNL     1       4.313   2.426   0.280  0.00  0.00    +0.167 A 
ATOM     25  C   UNL     1       6.087   1.067  -0.613  0.00  0.00    +0.050 A 
ATOM     26  C   UNL     1       5.475   2.292  -0.444  0.00  0.00    +0.166 A 
ATOM     27  C   UNL     1       4.894   4.376  -0.456  0.00  0.00    +0.466 C 
ENDBRANCH  18  20
ENDBRANCH  14   7
BRANCH  15   8
ATOM      3  O   UNL     1      -3.822  -2.172  -0.550  0.00  0.00    -0.272 OA
ATOM      8  N   UNL     1      -2.165  -0.600  -0.992  0.00  0.00    -0.305 N 
ATOM     19  C   UNL     1      -3.398  -1.020  -0.514  0.00  0.00    +0.251 C 
ATOM     34  H   UNL     1      -1.895   0.371  -0.861  0.00  0.00    +0.149 HD
BRANCH  19  21
ATOM     21  C   UNL     1      -4.192   0.126   0.076  0.00  0.00    +0.324 C 
BRANCH  21   4
ATOM      4  O   UNL     1      -5.435  -0.329   0.567  0.00  0.00    -0.483 OA
BRANCH   4  28
ATOM     28  C   UNL     1      -6.483   0.561   0.543  0.00  0.00    +0.121 A 
ATOM     29  C   UNL     1      -6.228   1.920   0.668  0.00  0.00    +0.045 A 
ATOM     30  C   UNL     1      -7.779   0.087   0.396  0.00  0.00    +0.045 A 
ATOM     31  C   UNL     1      -7.292   2.822   0.645  0.00  0.00    +0.004 A 
ATOM     32  C   UNL     1      -8.842   0.990   0.373  0.00  0.00    +0.004 A 
ATOM     33  C   UNL     1      -8.598   2.357   0.498  0.00  0.00    +0.000 A 
ENDBRANCH   4  28
ENDBRANCH  21   4
ENDBRANCH  19  21
ENDBRANCH  15   8
TORSDOF 6
