REMARK  Name = 11866179
REMARK  4 active torsions:
REMARK  status: ('A' for Active; 'I' for Inactive)
REMARK    1  A    between atoms: N_6  and  C_23
REMARK    2  A    between atoms: C_8  and  C_16
REMARK    3  A    between atoms: C_13  and  C_20
REMARK    4  A    between atoms: C_15  and  C_21
REMARK                            x       y       z     vdW  Elec       q    Type
REMARK                         _______ _______ _______ _____ _____    ______ ____
ROOT
ATOM      1  S   UNL     1      -1.537  -2.891   0.535  0.00  0.00    -0.057 S 
ATOM      3  O   UNL     1       3.384   1.944   0.202  0.00  0.00    -0.461 OA
ATOM      4  O   UNL     1       5.089   3.474   0.398  0.00  0.00    -0.251 OA
ATOM      5  N   UNL     1      -1.693  -0.340   0.140  0.00  0.00    -0.229 NA
ATOM      6  N   UNL     1      -3.766  -1.443   0.423  0.00  0.00    -0.294 N 
ATOM      7  C   UNL     1       2.137  -0.246   0.185  0.00  0.00    +0.045 C 
ATOM      8  C   UNL     1       2.299  -1.724  -0.381  0.00  0.00    -0.021 C 
ATOM      9  C   UNL     1       3.302   0.619  -0.325  0.00  0.00    +0.184 C 
ATOM     10  C   UNL     1       4.628   0.029   0.115  0.00  0.00    +0.044 C 
ATOM     11  C   UNL     1       3.727  -2.274  -0.080  0.00  0.00    +0.008 C 
ATOM     12  C   UNL     1       4.863  -1.333  -0.507  0.00  0.00    +0.008 C 
ATOM     13  C   UNL     1       0.716   0.360  -0.102  0.00  0.00    +0.043 C 
ATOM     14  C   UNL     1       1.261  -2.654   0.319  0.00  0.00    +0.051 C 
ATOM     15  C   UNL     1       5.570   1.162  -0.241  0.00  0.00    +0.101 C 
ATOM     16  C   UNL     1       2.073  -1.792  -1.915  0.00  0.00    +0.012 C 
ATOM     17  C   UNL     1      -0.352  -0.679   0.138  0.00  0.00    +0.057 A 
ATOM     18  C   UNL     1      -0.089  -2.023   0.315  0.00  0.00    +0.015 A 
ATOM     19  C   UNL     1       4.702   2.342   0.157  0.00  0.00    +0.311 C 
ATOM     20  C   UNL     1       0.435   1.616   0.733  0.00  0.00    +0.014 C 
ATOM     21  C   UNL     1       6.880   1.116   0.524  0.00  0.00    +0.019 C 
ATOM     22  C   UNL     1      -2.409  -1.424   0.350  0.00  0.00    +0.163 A 
ATOM     29  H   UNL     1      -4.202  -2.306   0.738  0.00  0.00    +0.154 HD
ENDROOT
BRANCH   6  23
ATOM      2  F   UNL     1      -7.444   2.582  -0.554  0.00  0.00    -0.205 F 
ATOM     23  C   UNL     1      -4.708  -0.412   0.173  0.00  0.00    +0.033 A 
ATOM     24  C   UNL     1      -5.969  -0.476   0.755  0.00  0.00    +0.026 A 
ATOM     25  C   UNL     1      -4.361   0.653  -0.651  0.00  0.00    +0.026 A 
ATOM     26  C   UNL     1      -6.896   0.538   0.508  0.00  0.00    +0.040 A 
ATOM     27  C   UNL     1      -5.287   1.666  -0.897  0.00  0.00    +0.040 A 
ATOM     28  C   UNL     1      -6.555   1.609  -0.317  0.00  0.00    +0.124 A 
ENDBRANCH   6  23
TORSDOF 1
