MODEL 1
REMARK VINA RESULT:      -7.1      0.000      0.000
REMARK  Name = 51137592
REMARK  6 active torsions:
REMARK  status: ('A' for Active; 'I' for Inactive)
REMARK    1  A    between atoms: O_4  and  C_18
REMARK    2  A    between atoms: O_4  and  C_22
REMARK    3  A    between atoms: N_5  and  C_12
REMARK    4  A    between atoms: C_8  and  C_13
REMARK    5  A    between atoms: C_12  and  C_14
REMARK    6  A    between atoms: C_15  and  C_18
REMARK                            x       y       z     vdW  Elec       q    Type
REMARK                         _______ _______ _______ _____ _____    ______ ____
ROOT
ATOM      3  O   UNL     1      13.923   7.918  19.386  0.00  0.00    -0.421 OA
ATOM      6  N   UNL     1      12.886   7.907  17.403  0.00  0.00    -0.112 NA
ATOM      7  N   UNL     1      14.052   7.174  17.279  0.00  0.00    -0.109 NA
ATOM     13  C   UNL     1      12.853   8.322  18.649  0.00  0.00    +0.222 A 
ATOM     15  C   UNL     1      14.624   7.208  18.460  0.00  0.00    +0.254 A 
ENDROOT
BRANCH  13   8
ATOM      5  N   UNL     1      11.443  10.429  21.294  0.00  0.00    -0.297 NA
ATOM      8  C   UNL     1      11.815   9.161  19.356  0.00  0.00    +0.092 C 
ATOM      9  C   UNL     1      10.895   8.382  20.312  0.00  0.00    +0.029 C 
ATOM     10  C   UNL     1      12.430  10.267  20.225  0.00  0.00    +0.097 C 
ATOM     11  C   UNL     1      11.060   9.065  21.664  0.00  0.00    +0.085 C 
BRANCH   5  12
ATOM     12  C   UNL     1      11.966  11.182  22.425  0.00  0.00    +0.121 C 
BRANCH  12  14
ATOM      1 CL   UNL     1      11.039  11.634  25.336  0.00  0.00    -0.083 Cl
ATOM     14  C   UNL     1      11.133  12.399  22.722  0.00  0.00    -0.015 A 
ATOM     16  C   UNL     1      10.674  12.676  24.010  0.00  0.00    +0.045 A 
ATOM     17  C   UNL     1      10.822  13.261  21.670  0.00  0.00    +0.006 A 
ATOM     19  C   UNL     1       9.903  13.815  24.245  0.00  0.00    +0.020 A 
ATOM     20  C   UNL     1      10.051  14.400  21.906  0.00  0.00    +0.000 A 
ATOM     21  C   UNL     1       9.592  14.677  23.194  0.00  0.00    +0.001 A 
ENDBRANCH  12  14
ENDBRANCH   5  12
ENDBRANCH  13   8
BRANCH  15  18
ATOM     18  C   UNL     1      15.884   6.598  18.906  0.00  0.00    +0.326 C 
BRANCH  18   4
ATOM      4  O   UNL     1      16.330   7.212  20.118  0.00  0.00    -0.483 OA
BRANCH   4  22
ATOM      2  F   UNL     1      21.513   6.176  21.623  0.00  0.00    -0.205 F 
ATOM     22  C   UNL     1      17.619   6.954  20.493  0.00  0.00    +0.121 A 
ATOM     23  C   UNL     1      18.249   7.772  21.431  0.00  0.00    +0.048 A 
ATOM     24  C   UNL     1      18.303   5.874  19.936  0.00  0.00    +0.048 A 
ATOM     25  C   UNL     1      19.565   7.509  21.812  0.00  0.00    +0.042 A 
ATOM     26  C   UNL     1      19.619   5.612  20.318  0.00  0.00    +0.042 A 
ATOM     27  C   UNL     1      20.250   6.429  21.255  0.00  0.00    +0.124 A 
ENDBRANCH   4  22
ENDBRANCH  18   4
ENDBRANCH  15  18
TORSDOF 6
ENDMDL
MODEL 2
REMARK VINA RESULT:      -6.9     27.040     29.749
REMARK  Name = 51137592
REMARK  6 active torsions:
REMARK  status: ('A' for Active; 'I' for Inactive)
REMARK    1  A    between atoms: O_4  and  C_18
REMARK    2  A    between atoms: O_4  and  C_22
REMARK    3  A    between atoms: N_5  and  C_12
REMARK    4  A    between atoms: C_8  and  C_13
REMARK    5  A    between atoms: C_12  and  C_14
REMARK    6  A    between atoms: C_15  and  C_18
REMARK                            x       y       z     vdW  Elec       q    Type
REMARK                         _______ _______ _______ _____ _____    ______ ____
ROOT
ATOM      3  O   UNL     1      -5.047 -10.370  17.897  0.00  0.00    -0.421 OA
ATOM      6  N   UNL     1      -4.449 -12.462  17.376  0.00  0.00    -0.112 NA
ATOM      7  N   UNL     1      -5.351 -12.524  18.422  0.00  0.00    -0.109 NA
ATOM     13  C   UNL     1      -4.302 -11.187  17.103  0.00  0.00    +0.222 A 
ATOM     15  C   UNL     1      -5.672 -11.280  18.693  0.00  0.00    +0.254 A 
ENDROOT
BRANCH  13   8
ATOM      5  N   UNL     1      -2.446 -10.866  13.960  0.00  0.00    -0.297 NA
ATOM      8  C   UNL     1      -3.443 -10.520  16.054  0.00  0.00    +0.092 C 
ATOM      9  C   UNL     1      -1.929 -10.725  16.232  0.00  0.00    +0.029 C 
ATOM     10  C   UNL     1      -3.738 -11.018  14.633  0.00  0.00    +0.097 C 
ATOM     11  C   UNL     1      -1.459 -11.350  14.925  0.00  0.00    +0.085 C 
BRANCH   5  12
ATOM     12  C   UNL     1      -2.388 -11.590  12.698  0.00  0.00    +0.121 C 
BRANCH  12  14
ATOM      1 CL   UNL     1      -0.918  -9.191  11.424  0.00  0.00    -0.083 Cl
ATOM     14  C   UNL     1      -3.080 -10.843  11.590  0.00  0.00    -0.015 A 
ATOM     16  C   UNL     1      -2.485  -9.748  10.962  0.00  0.00    +0.045 A 
ATOM     17  C   UNL     1      -4.348 -11.269  11.194  0.00  0.00    +0.006 A 
ATOM     19  C   UNL     1      -3.158  -9.080   9.939  0.00  0.00    +0.020 A 
ATOM     20  C   UNL     1      -5.021 -10.601  10.171  0.00  0.00    +0.000 A 
ATOM     21  C   UNL     1      -4.426  -9.507   9.543  0.00  0.00    +0.001 A 
ENDBRANCH  12  14
ENDBRANCH   5  12
ENDBRANCH  13   8
BRANCH  15  18
ATOM     18  C   UNL     1      -6.591 -10.752  19.710  0.00  0.00    +0.326 C 
BRANCH  18   4
ATOM      4  O   UNL     1      -7.807 -11.505  19.717  0.00  0.00    -0.483 OA
BRANCH   4  22
ATOM      2  F   UNL     1     -12.331  -8.862  18.060  0.00  0.00    -0.205 F 
ATOM     22  C   UNL     1      -8.932 -10.848  19.305  0.00  0.00    +0.121 A 
ATOM     23  C   UNL     1      -8.941 -10.181  18.080  0.00  0.00    +0.048 A 
ATOM     24  C   UNL     1     -10.072 -10.844  20.110  0.00  0.00    +0.048 A 
ATOM     25  C   UNL     1     -10.089  -9.509  17.660  0.00  0.00    +0.042 A 
ATOM     26  C   UNL     1     -11.220 -10.173  19.689  0.00  0.00    +0.042 A 
ATOM     27  C   UNL     1     -11.228  -9.505  18.465  0.00  0.00    +0.124 A 
ENDBRANCH   4  22
ENDBRANCH  18   4
ENDBRANCH  15  18
TORSDOF 6
ENDMDL
MODEL 3
REMARK VINA RESULT:      -6.8     27.185     29.849
REMARK  Name = 51137592
REMARK  6 active torsions:
REMARK  status: ('A' for Active; 'I' for Inactive)
REMARK    1  A    between atoms: O_4  and  C_18
REMARK    2  A    between atoms: O_4  and  C_22
REMARK    3  A    between atoms: N_5  and  C_12
REMARK    4  A    between atoms: C_8  and  C_13
REMARK    5  A    between atoms: C_12  and  C_14
REMARK    6  A    between atoms: C_15  and  C_18
REMARK                            x       y       z     vdW  Elec       q    Type
REMARK                         _______ _______ _______ _____ _____    ______ ____
ROOT
ATOM      3  O   UNL     1      -5.406 -10.156  16.965  0.00  0.00    -0.421 OA
ATOM      6  N   UNL     1      -4.116 -11.799  17.766  0.00  0.00    -0.112 NA
ATOM      7  N   UNL     1      -5.306 -11.807  18.472  0.00  0.00    -0.109 NA
ATOM     13  C   UNL     1      -4.219 -10.820  16.898  0.00  0.00    +0.222 A 
ATOM     15  C   UNL     1      -6.027 -10.832  17.970  0.00  0.00    +0.254 A 
ENDROOT
BRANCH  13   8
ATOM      5  N   UNL     1      -2.132 -10.986  13.891  0.00  0.00    -0.297 NA
ATOM      8  C   UNL     1      -3.228 -10.343  15.863  0.00  0.00    +0.092 C 
ATOM      9  C   UNL     1      -1.758 -10.672  16.175  0.00  0.00    +0.029 C 
ATOM     10  C   UNL     1      -3.475 -10.949  14.474  0.00  0.00    +0.097 C 
ATOM     11  C   UNL     1      -1.266 -11.464  14.970  0.00  0.00    +0.085 C 
BRANCH   5  12
ATOM     12  C   UNL     1      -2.062 -11.833  12.709  0.00  0.00    +0.121 C 
BRANCH  12  14
ATOM      1 CL   UNL     1      -3.940 -13.606  11.015  0.00  0.00    -0.083 Cl
ATOM     14  C   UNL     1      -2.754 -11.207  11.529  0.00  0.00    -0.015 A 
ATOM     16  C   UNL     1      -3.617 -11.938  10.713  0.00  0.00    +0.045 A 
ATOM     17  C   UNL     1      -2.514  -9.859  11.258  0.00  0.00    +0.006 A 
ATOM     19  C   UNL     1      -4.239 -11.322   9.627  0.00  0.00    +0.020 A 
ATOM     20  C   UNL     1      -3.136  -9.243  10.173  0.00  0.00    +0.000 A 
ATOM     21  C   UNL     1      -3.999  -9.975   9.357  0.00  0.00    +0.001 A 
ENDBRANCH  12  14
ENDBRANCH   5  12
ENDBRANCH  13   8
BRANCH  15  18
ATOM     18  C   UNL     1      -7.377 -10.384  18.334  0.00  0.00    +0.326 C 
BRANCH  18   4
ATOM      4  O   UNL     1      -7.743  -9.235  17.566  0.00  0.00    -0.483 OA
BRANCH   4  22
ATOM      2  F   UNL     1     -13.125  -8.266  17.022  0.00  0.00    -0.205 F 
ATOM     22  C   UNL     1      -9.081  -8.993  17.431  0.00  0.00    +0.121 A 
ATOM     23  C   UNL     1     -10.008  -9.877  17.983  0.00  0.00    +0.048 A 
ATOM     24  C   UNL     1      -9.520  -7.864  16.740  0.00  0.00    +0.048 A 
ATOM     25  C   UNL     1     -11.375  -9.632  17.844  0.00  0.00    +0.042 A 
ATOM     26  C   UNL     1     -10.886  -7.618  16.601  0.00  0.00    +0.042 A 
ATOM     27  C   UNL     1     -11.813  -8.502  17.153  0.00  0.00    +0.124 A 
ENDBRANCH   4  22
ENDBRANCH  18   4
ENDBRANCH  15  18
TORSDOF 6
ENDMDL
MODEL 4
REMARK VINA RESULT:      -6.7     28.152     30.496
REMARK  Name = 51137592
REMARK  6 active torsions:
REMARK  status: ('A' for Active; 'I' for Inactive)
REMARK    1  A    between atoms: O_4  and  C_18
REMARK    2  A    between atoms: O_4  and  C_22
REMARK    3  A    between atoms: N_5  and  C_12
REMARK    4  A    between atoms: C_8  and  C_13
REMARK    5  A    between atoms: C_12  and  C_14
REMARK    6  A    between atoms: C_15  and  C_18
REMARK                            x       y       z     vdW  Elec       q    Type
REMARK                         _______ _______ _______ _____ _____    ______ ____
ROOT
ATOM      3  O   UNL     1      -6.907 -10.981  17.939  0.00  0.00    -0.421 OA
ATOM      6  N   UNL     1      -5.226 -10.821  19.406  0.00  0.00    -0.112 NA
ATOM      7  N   UNL     1      -6.349 -11.251  20.089  0.00  0.00    -0.109 NA
ATOM     13  C   UNL     1      -5.599 -10.676  18.156  0.00  0.00    +0.222 A 
ATOM     15  C   UNL     1      -7.306 -11.330  19.192  0.00  0.00    +0.254 A 
ENDROOT
BRANCH  13   8
ATOM      5  N   UNL     1      -4.416 -10.689  14.688  0.00  0.00    -0.297 NA
ATOM      8  C   UNL     1      -4.794 -10.232  16.957  0.00  0.00    +0.092 C 
ATOM      9  C   UNL     1      -3.435 -10.935  16.793  0.00  0.00    +0.029 C 
ATOM     10  C   UNL     1      -5.519 -10.473  15.626  0.00  0.00    +0.097 C 
ATOM     11  C   UNL     1      -3.477 -11.556  15.402  0.00  0.00    +0.085 C 
BRANCH   5  12
ATOM     12  C   UNL     1      -4.861 -11.273  13.431  0.00  0.00    +0.121 C 
BRANCH  12  14
ATOM      1 CL   UNL     1      -2.100 -11.541  12.071  0.00  0.00    -0.083 Cl
ATOM     14  C   UNL     1      -4.558 -10.378  12.259  0.00  0.00    -0.015 A 
ATOM     16  C   UNL     1      -3.336 -10.436  11.590  0.00  0.00    +0.045 A 
ATOM     17  C   UNL     1      -5.537  -9.474  11.846  0.00  0.00    +0.006 A 
ATOM     19  C   UNL     1      -3.092  -9.590  10.508  0.00  0.00    +0.020 A 
ATOM     20  C   UNL     1      -5.294  -8.629  10.764  0.00  0.00    +0.000 A 
ATOM     21  C   UNL     1      -4.071  -8.686  10.094  0.00  0.00    +0.001 A 
ENDBRANCH  12  14
ENDBRANCH   5  12
ENDBRANCH  13   8
BRANCH  15  18
ATOM     18  C   UNL     1      -8.708 -11.734  19.355  0.00  0.00    +0.326 C 
BRANCH  18   4
ATOM      4  O   UNL     1      -9.419 -10.760  20.124  0.00  0.00    -0.483 OA
BRANCH   4  22
ATOM      2  F   UNL     1     -14.177  -8.983  18.025  0.00  0.00    -0.205 F 
ATOM     22  C   UNL     1     -10.602 -10.318  19.602  0.00  0.00    +0.121 A 
ATOM     23  C   UNL     1     -11.795 -10.548  20.287  0.00  0.00    +0.048 A 
ATOM     24  C   UNL     1     -10.616  -9.638  18.384  0.00  0.00    +0.048 A 
ATOM     25  C   UNL     1     -13.003 -10.098  19.753  0.00  0.00    +0.042 A 
ATOM     26  C   UNL     1     -11.824  -9.187  17.851  0.00  0.00    +0.042 A 
ATOM     27  C   UNL     1     -13.017  -9.418  18.535  0.00  0.00    +0.124 A 
ENDBRANCH   4  22
ENDBRANCH  18   4
ENDBRANCH  15  18
TORSDOF 6
ENDMDL
MODEL 5
REMARK VINA RESULT:      -6.7      5.392     10.750
REMARK  Name = 51137592
REMARK  6 active torsions:
REMARK  status: ('A' for Active; 'I' for Inactive)
REMARK    1  A    between atoms: O_4  and  C_18
REMARK    2  A    between atoms: O_4  and  C_22
REMARK    3  A    between atoms: N_5  and  C_12
REMARK    4  A    between atoms: C_8  and  C_13
REMARK    5  A    between atoms: C_12  and  C_14
REMARK    6  A    between atoms: C_15  and  C_18
REMARK                            x       y       z     vdW  Elec       q    Type
REMARK                         _______ _______ _______ _____ _____    ______ ____
ROOT
ATOM      3  O   UNL     1      16.984   7.036  20.685  0.00  0.00    -0.421 OA
ATOM      6  N   UNL     1      17.589   5.743  18.962  0.00  0.00    -0.112 NA
ATOM      7  N   UNL     1      16.209   5.828  18.968  0.00  0.00    -0.109 NA
ATOM     13  C   UNL     1      17.998   6.463  19.981  0.00  0.00    +0.222 A 
ATOM     15  C   UNL     1      15.901   6.592  19.991  0.00  0.00    +0.254 A 
ENDROOT
BRANCH  13   8
ATOM      5  N   UNL     1      21.147   5.831  21.746  0.00  0.00    -0.297 NA
ATOM      8  C   UNL     1      19.404   6.736  20.464  0.00  0.00    +0.092 C 
ATOM      9  C   UNL     1      19.492   7.478  21.809  0.00  0.00    +0.029 C 
ATOM     10  C   UNL     1      20.225   5.456  20.671  0.00  0.00    +0.097 C 
ATOM     11  C   UNL     1      20.327   6.572  22.705  0.00  0.00    +0.085 C 
BRANCH   5  12
ATOM     12  C   UNL     1      21.797   4.677  22.349  0.00  0.00    +0.121 C 
BRANCH  12  14
ATOM      1 CL   UNL     1      23.752   6.630  20.969  0.00  0.00    -0.083 Cl
ATOM     14  C   UNL     1      22.859   4.100  21.453  0.00  0.00    -0.015 A 
ATOM     16  C   UNL     1      23.781   4.913  20.792  0.00  0.00    +0.045 A 
ATOM     17  C   UNL     1      22.909   2.715  21.290  0.00  0.00    +0.006 A 
ATOM     19  C   UNL     1      24.751   4.341  19.969  0.00  0.00    +0.020 A 
ATOM     20  C   UNL     1      23.879   2.143  20.467  0.00  0.00    +0.000 A 
ATOM     21  C   UNL     1      24.801   2.957  19.807  0.00  0.00    +0.001 A 
ENDBRANCH  12  14
ENDBRANCH   5  12
ENDBRANCH  13   8
BRANCH  15  18
ATOM     18  C   UNL     1      14.582   7.023  20.472  0.00  0.00    +0.326 C 
BRANCH  18   4
ATOM      4  O   UNL     1      14.353   8.393  20.130  0.00  0.00    -0.483 OA
BRANCH   4  22
ATOM      2  F   UNL     1      11.415   9.318  15.579  0.00  0.00    -0.205 F 
ATOM     22  C   UNL     1      13.622   8.623  18.998  0.00  0.00    +0.121 A 
ATOM     23  C   UNL     1      12.292   8.209  18.931  0.00  0.00    +0.048 A 
ATOM     24  C   UNL     1      14.208   9.271  17.910  0.00  0.00    +0.048 A 
ATOM     25  C   UNL     1      11.547   8.443  17.775  0.00  0.00    +0.042 A 
ATOM     26  C   UNL     1      13.462   9.506  16.755  0.00  0.00    +0.042 A 
ATOM     27  C   UNL     1      12.132   9.091  16.687  0.00  0.00    +0.124 A 
ENDBRANCH   4  22
ENDBRANCH  18   4
ENDBRANCH  15  18
TORSDOF 6
ENDMDL
MODEL 6
REMARK VINA RESULT:      -6.7      4.608      7.146
REMARK  Name = 51137592
REMARK  6 active torsions:
REMARK  status: ('A' for Active; 'I' for Inactive)
REMARK    1  A    between atoms: O_4  and  C_18
REMARK    2  A    between atoms: O_4  and  C_22
REMARK    3  A    between atoms: N_5  and  C_12
REMARK    4  A    between atoms: C_8  and  C_13
REMARK    5  A    between atoms: C_12  and  C_14
REMARK    6  A    between atoms: C_15  and  C_18
REMARK                            x       y       z     vdW  Elec       q    Type
REMARK                         _______ _______ _______ _____ _____    ______ ____
ROOT
ATOM      3  O   UNL     1      20.173   5.649  20.906  0.00  0.00    -0.421 OA
ATOM      6  N   UNL     1      20.514   7.860  20.868  0.00  0.00    -0.112 NA
ATOM      7  N   UNL     1      21.726   7.236  20.632  0.00  0.00    -0.109 NA
ATOM     13  C   UNL     1      19.637   6.895  21.021  0.00  0.00    +0.222 A 
ATOM     15  C   UNL     1      21.478   5.947  20.664  0.00  0.00    +0.254 A 
ENDROOT
BRANCH  13   8
ATOM      5  N   UNL     1      16.066   7.182  20.252  0.00  0.00    -0.297 NA
ATOM      8  C   UNL     1      18.154   6.977  21.300  0.00  0.00    +0.092 C 
ATOM      9  C   UNL     1      17.613   8.402  21.506  0.00  0.00    +0.029 C 
ATOM     10  C   UNL     1      17.299   6.397  20.165  0.00  0.00    +0.097 C 
ATOM     11  C   UNL     1      16.511   8.560  20.467  0.00  0.00    +0.085 C 
BRANCH   5  12
ATOM     12  C   UNL     1      15.236   7.047  19.064  0.00  0.00    +0.121 C 
BRANCH  12  14
ATOM      1 CL   UNL     1      14.091   9.227  17.199  0.00  0.00    -0.083 Cl
ATOM     14  C   UNL     1      13.828   7.520  19.308  0.00  0.00    -0.015 A 
ATOM     16  C   UNL     1      13.237   8.501  18.511  0.00  0.00    +0.045 A 
ATOM     17  C   UNL     1      13.111   6.952  20.361  0.00  0.00    +0.006 A 
ATOM     19  C   UNL     1      11.929   8.913  18.769  0.00  0.00    +0.020 A 
ATOM     20  C   UNL     1      11.804   7.364  20.618  0.00  0.00    +0.000 A 
ATOM     21  C   UNL     1      11.212   8.345  19.822  0.00  0.00    +0.001 A 
ENDBRANCH  12  14
ENDBRANCH   5  12
ENDBRANCH  13   8
BRANCH  15  18
ATOM     18  C   UNL     1      22.394   4.815  20.476  0.00  0.00    +0.326 C 
BRANCH  18   4
ATOM      4  O   UNL     1      21.877   3.647  21.120  0.00  0.00    -0.483 OA
BRANCH   4  22
ATOM      2  F   UNL     1      25.577   0.171  23.224  0.00  0.00    -0.205 F 
ATOM     22  C   UNL     1      22.797   2.783  21.643  0.00  0.00    +0.121 A 
ATOM     23  C   UNL     1      23.668   2.096  20.798  0.00  0.00    +0.048 A 
ATOM     24  C   UNL     1      22.864   2.587  23.023  0.00  0.00    +0.048 A 
ATOM     25  C   UNL     1      24.606   1.212  21.332  0.00  0.00    +0.042 A 
ATOM     26  C   UNL     1      23.804   1.704  23.557  0.00  0.00    +0.042 A 
ATOM     27  C   UNL     1      24.674   1.017  22.711  0.00  0.00    +0.124 A 
ENDBRANCH   4  22
ENDBRANCH  18   4
ENDBRANCH  15  18
TORSDOF 6
ENDMDL
MODEL 7
REMARK VINA RESULT:      -6.6     28.038     30.022
REMARK  Name = 51137592
REMARK  6 active torsions:
REMARK  status: ('A' for Active; 'I' for Inactive)
REMARK    1  A    between atoms: O_4  and  C_18
REMARK    2  A    between atoms: O_4  and  C_22
REMARK    3  A    between atoms: N_5  and  C_12
REMARK    4  A    between atoms: C_8  and  C_13
REMARK    5  A    between atoms: C_12  and  C_14
REMARK    6  A    between atoms: C_15  and  C_18
REMARK                            x       y       z     vdW  Elec       q    Type
REMARK                         _______ _______ _______ _____ _____    ______ ____
ROOT
ATOM      3  O   UNL     1      -6.913 -10.485  17.731  0.00  0.00    -0.421 OA
ATOM      6  N   UNL     1      -5.333 -10.613  19.311  0.00  0.00    -0.112 NA
ATOM      7  N   UNL     1      -6.562 -10.794  19.919  0.00  0.00    -0.109 NA
ATOM     13  C   UNL     1      -5.587 -10.436  18.035  0.00  0.00    +0.222 A 
ATOM     15  C   UNL     1      -7.454 -10.711  18.959  0.00  0.00    +0.254 A 
ENDROOT
BRANCH  13   8
ATOM      5  N   UNL     1      -4.182 -10.815  14.672  0.00  0.00    -0.297 NA
ATOM      8  C   UNL     1      -4.633 -10.194  16.888  0.00  0.00    +0.092 C 
ATOM      9  C   UNL     1      -3.413 -11.130  16.854  0.00  0.00    +0.029 C 
ATOM     10  C   UNL     1      -5.293 -10.367  15.514  0.00  0.00    +0.097 C 
ATOM     11  C   UNL     1      -3.464 -11.797  15.486  0.00  0.00    +0.085 C 
BRANCH   5  12
ATOM     12  C   UNL     1      -4.632 -11.370  13.404  0.00  0.00    +0.121 C 
BRANCH  12  14
ATOM      1 CL   UNL     1      -6.799  -9.421  12.380  0.00  0.00    -0.083 Cl
ATOM     14  C   UNL     1      -4.288 -10.474  12.246  0.00  0.00    -0.015 A 
ATOM     16  C   UNL     1      -5.210  -9.566  11.723  0.00  0.00    +0.045 A 
ATOM     17  C   UNL     1      -3.011 -10.567  11.692  0.00  0.00    +0.006 A 
ATOM     19  C   UNL     1      -4.853  -8.752  10.647  0.00  0.00    +0.020 A 
ATOM     20  C   UNL     1      -2.654  -9.753  10.617  0.00  0.00    +0.000 A 
ATOM     21  C   UNL     1      -3.576  -8.845  10.095  0.00  0.00    +0.001 A 
ENDBRANCH  12  14
ENDBRANCH   5  12
ENDBRANCH  13   8
BRANCH  15  18
ATOM     18  C   UNL     1      -8.916 -10.829  19.029  0.00  0.00    +0.326 C 
BRANCH  18   4
ATOM      4  O   UNL     1      -9.478 -10.810  17.714  0.00  0.00    -0.483 OA
BRANCH   4  22
ATOM      2  F   UNL     1     -12.279  -6.293  16.316  0.00  0.00    -0.205 F 
ATOM     22  C   UNL     1     -10.175  -9.687  17.366  0.00  0.00    +0.121 A 
ATOM     23  C   UNL     1      -9.499  -8.575  16.865  0.00  0.00    +0.048 A 
ATOM     24  C   UNL     1     -11.561  -9.653  17.514  0.00  0.00    +0.048 A 
ATOM     25  C   UNL     1     -10.210  -7.427  16.511  0.00  0.00    +0.042 A 
ATOM     26  C   UNL     1     -12.272  -8.506  17.159  0.00  0.00    +0.042 A 
ATOM     27  C   UNL     1     -11.596  -7.393  16.659  0.00  0.00    +0.124 A 
ENDBRANCH   4  22
ENDBRANCH  18   4
ENDBRANCH  15  18
TORSDOF 6
ENDMDL
MODEL 8
REMARK VINA RESULT:      -6.6     29.015     31.522
REMARK  Name = 51137592
REMARK  6 active torsions:
REMARK  status: ('A' for Active; 'I' for Inactive)
REMARK    1  A    between atoms: O_4  and  C_18
REMARK    2  A    between atoms: O_4  and  C_22
REMARK    3  A    between atoms: N_5  and  C_12
REMARK    4  A    between atoms: C_8  and  C_13
REMARK    5  A    between atoms: C_12  and  C_14
REMARK    6  A    between atoms: C_15  and  C_18
REMARK                            x       y       z     vdW  Elec       q    Type
REMARK                         _______ _______ _______ _____ _____    ______ ____
ROOT
ATOM      3  O   UNL     1     -11.214  -7.055  15.417  0.00  0.00    -0.421 OA
ATOM      6  N   UNL     1     -13.080  -7.768  16.427  0.00  0.00    -0.112 NA
ATOM      7  N   UNL     1     -13.435  -6.797  15.508  0.00  0.00    -0.109 NA
ATOM     13  C   UNL     1     -11.775  -7.885  16.339  0.00  0.00    +0.222 A 
ATOM     15  C   UNL     1     -12.314  -6.410  14.943  0.00  0.00    +0.254 A 
ENDROOT
BRANCH  13   8
ATOM      5  N   UNL     1      -8.620  -9.554  17.167  0.00  0.00    -0.297 NA
ATOM      8  C   UNL     1     -10.837  -8.793  17.100  0.00  0.00    +0.092 C 
ATOM      9  C   UNL     1     -10.774 -10.239  16.580  0.00  0.00    +0.029 C 
ATOM     10  C   UNL     1      -9.381  -8.307  17.074  0.00  0.00    +0.097 C 
ATOM     11  C   UNL     1      -9.303 -10.481  16.264  0.00  0.00    +0.085 C 
BRANCH   5  12
ATOM     12  C   UNL     1      -7.217  -9.376  16.819  0.00  0.00    +0.121 C 
BRANCH  12  14
ATOM      1 CL   UNL     1      -4.565 -10.380  15.595  0.00  0.00    -0.083 Cl
ATOM     14  C   UNL     1      -6.316 -10.220  17.679  0.00  0.00    -0.015 A 
ATOM     16  C   UNL     1      -5.101 -10.713  17.202  0.00  0.00    +0.045 A 
ATOM     17  C   UNL     1      -6.720 -10.507  18.983  0.00  0.00    +0.006 A 
ATOM     19  C   UNL     1      -4.292 -11.493  18.029  0.00  0.00    +0.020 A 
ATOM     20  C   UNL     1      -5.911 -11.286  19.810  0.00  0.00    +0.000 A 
ATOM     21  C   UNL     1      -4.697 -11.779  19.333  0.00  0.00    +0.001 A 
ENDBRANCH  12  14
ENDBRANCH   5  12
ENDBRANCH  13   8
BRANCH  15  18
ATOM     18  C   UNL     1     -12.094  -5.404  13.896  0.00  0.00    +0.326 C 
BRANCH  18   4
ATOM      4  O   UNL     1     -13.159  -4.448  13.896  0.00  0.00    -0.483 OA
BRANCH   4  22
ATOM      2  F   UNL     1     -14.686  -2.493   8.992  0.00  0.00    -0.205 F 
ATOM     22  C   UNL     1     -13.539  -3.962  12.676  0.00  0.00    +0.121 A 
ATOM     23  C   UNL     1     -12.684  -4.082  11.581  0.00  0.00    +0.048 A 
ATOM     24  C   UNL     1     -14.781  -3.346  12.528  0.00  0.00    +0.048 A 
ATOM     25  C   UNL     1     -13.071  -3.584  10.336  0.00  0.00    +0.042 A 
ATOM     26  C   UNL     1     -15.169  -2.849  11.283  0.00  0.00    +0.042 A 
ATOM     27  C   UNL     1     -14.313  -2.968  10.188  0.00  0.00    +0.124 A 
ENDBRANCH   4  22
ENDBRANCH  18   4
ENDBRANCH  15  18
TORSDOF 6
ENDMDL
MODEL 9
REMARK VINA RESULT:      -6.6     28.092     29.419
REMARK  Name = 51137592
REMARK  6 active torsions:
REMARK  status: ('A' for Active; 'I' for Inactive)
REMARK    1  A    between atoms: O_4  and  C_18
REMARK    2  A    between atoms: O_4  and  C_22
REMARK    3  A    between atoms: N_5  and  C_12
REMARK    4  A    between atoms: C_8  and  C_13
REMARK    5  A    between atoms: C_12  and  C_14
REMARK    6  A    between atoms: C_15  and  C_18
REMARK                            x       y       z     vdW  Elec       q    Type
REMARK                         _______ _______ _______ _____ _____    ______ ____
ROOT
ATOM      3  O   UNL     1      -3.913 -10.488  13.206  0.00  0.00    -0.421 OA
ATOM      6  N   UNL     1      -2.379 -11.052  11.679  0.00  0.00    -0.112 NA
ATOM      7  N   UNL     1      -2.129 -11.784  12.826  0.00  0.00    -0.109 NA
ATOM     13  C   UNL     1      -3.428 -10.310  11.947  0.00  0.00    +0.222 A 
ATOM     15  C   UNL     1      -3.049 -11.421  13.690  0.00  0.00    +0.254 A 
ENDROOT
BRANCH  13   8
ATOM      5  N   UNL     1      -5.848  -9.129   9.462  0.00  0.00    -0.297 NA
ATOM      8  C   UNL     1      -4.152  -9.314  11.071  0.00  0.00    +0.092 C 
ATOM      9  C   UNL     1      -3.524  -9.098   9.683  0.00  0.00    +0.029 C 
ATOM     10  C   UNL     1      -5.604  -9.717  10.781  0.00  0.00    +0.097 C 
ATOM     11  C   UNL     1      -4.637  -9.414   8.692  0.00  0.00    +0.085 C 
BRANCH   5  12
ATOM     12  C   UNL     1      -7.045  -9.663   8.828  0.00  0.00    +0.121 C 
BRANCH  12  14
ATOM      1 CL   UNL     1      -6.787  -9.033   5.816  0.00  0.00    -0.083 Cl
ATOM     14  C   UNL     1      -7.911  -8.573   8.256  0.00  0.00    -0.015 A 
ATOM     16  C   UNL     1      -7.854  -8.227   6.906  0.00  0.00    +0.045 A 
ATOM     17  C   UNL     1      -8.785  -7.903   9.112  0.00  0.00    +0.006 A 
ATOM     19  C   UNL     1      -8.673  -7.210   6.413  0.00  0.00    +0.020 A 
ATOM     20  C   UNL     1      -9.603  -6.887   8.619  0.00  0.00    +0.000 A 
ATOM     21  C   UNL     1      -9.547  -6.540   7.269  0.00  0.00    +0.001 A 
ENDBRANCH  12  14
ENDBRANCH   5  12
ENDBRANCH  13   8
BRANCH  15  18
ATOM     18  C   UNL     1      -3.268 -11.876  15.069  0.00  0.00    +0.326 C 
BRANCH  18   4
ATOM      4  O   UNL     1      -3.277 -10.760  15.963  0.00  0.00    -0.483 OA
BRANCH   4  22
ATOM      2  F   UNL     1      -7.516 -10.453  19.446  0.00  0.00    -0.205 F 
ATOM     22  C   UNL     1      -4.331 -10.683  16.829  0.00  0.00    +0.121 A 
ATOM     23  C   UNL     1      -4.252 -11.296  18.080  0.00  0.00    +0.048 A 
ATOM     24  C   UNL     1      -5.487  -9.993  16.462  0.00  0.00    +0.048 A 
ATOM     25  C   UNL     1      -5.329 -11.219  18.964  0.00  0.00    +0.042 A 
ATOM     26  C   UNL     1      -6.563  -9.916  17.346  0.00  0.00    +0.042 A 
ATOM     27  C   UNL     1      -6.484 -10.529  18.596  0.00  0.00    +0.124 A 
ENDBRANCH   4  22
ENDBRANCH  18   4
ENDBRANCH  15  18
TORSDOF 6
ENDMDL
MODEL 10
REMARK VINA RESULT:      -6.5     33.338     35.553
REMARK  Name = 51137592
REMARK  6 active torsions:
REMARK  status: ('A' for Active; 'I' for Inactive)
REMARK    1  A    between atoms: O_4  and  C_18
REMARK    2  A    between atoms: O_4  and  C_22
REMARK    3  A    between atoms: N_5  and  C_12
REMARK    4  A    between atoms: C_8  and  C_13
REMARK    5  A    between atoms: C_12  and  C_14
REMARK    6  A    between atoms: C_15  and  C_18
REMARK                            x       y       z     vdW  Elec       q    Type
REMARK                         _______ _______ _______ _____ _____    ______ ____
ROOT
ATOM      3  O   UNL     1       0.320 -14.805  -0.212  0.00  0.00    -0.421 OA
ATOM      6  N   UNL     1      -1.468 -13.484   0.043  0.00  0.00    -0.112 NA
ATOM      7  N   UNL     1      -0.825 -13.573   1.264  0.00  0.00    -0.109 NA
ATOM     13  C   UNL     1      -0.765 -14.218  -0.788  0.00  0.00    +0.222 A 
ATOM     15  C   UNL     1       0.212 -14.354   1.068  0.00  0.00    +0.254 A 
ENDROOT
BRANCH  13   8
ATOM      5  N   UNL     1      -1.156 -13.441  -4.347  0.00  0.00    -0.297 NA
ATOM      8  C   UNL     1      -0.989 -14.491  -2.257  0.00  0.00    +0.092 C 
ATOM      9  C   UNL     1      -2.461 -14.463  -2.703  0.00  0.00    +0.029 C 
ATOM     10  C   UNL     1      -0.288 -13.475  -3.168  0.00  0.00    +0.097 C 
ATOM     11  C   UNL     1      -2.518 -13.421  -3.812  0.00  0.00    +0.085 C 
BRANCH   5  12
ATOM     12  C   UNL     1      -0.882 -12.299  -5.207  0.00  0.00    +0.121 C 
BRANCH  12  14
ATOM      1 CL   UNL     1       1.508 -10.436  -4.610  0.00  0.00    -0.083 Cl
ATOM     14  C   UNL     1       0.379 -12.487  -6.006  0.00  0.00    -0.015 A 
ATOM     16  C   UNL     1       1.503 -11.688  -5.799  0.00  0.00    +0.045 A 
ATOM     17  C   UNL     1       0.406 -13.491  -6.974  0.00  0.00    +0.006 A 
ATOM     19  C   UNL     1       2.655 -11.893  -6.560  0.00  0.00    +0.020 A 
ATOM     20  C   UNL     1       1.557 -13.696  -7.734  0.00  0.00    +0.000 A 
ATOM     21  C   UNL     1       2.682 -12.897  -7.527  0.00  0.00    +0.001 A 
ENDBRANCH  12  14
ENDBRANCH   5  12
ENDBRANCH  13   8
BRANCH  15  18
ATOM     18  C   UNL     1       1.244 -14.794   2.016  0.00  0.00    +0.326 C 
BRANCH  18   4
ATOM      4  O   UNL     1       2.470 -14.099   1.770  0.00  0.00    -0.483 OA
BRANCH   4  22
ATOM      2  F   UNL     1       6.656 -17.117  -0.121  0.00  0.00    -0.205 F 
ATOM     22  C   UNL     1       3.511 -14.849   1.299  0.00  0.00    +0.121 A 
ATOM     23  C   UNL     1       4.037 -15.879   2.080  0.00  0.00    +0.048 A 
ATOM     24  C   UNL     1       4.048 -14.585   0.039  0.00  0.00    +0.048 A 
ATOM     25  C   UNL     1       5.100 -16.644   1.600  0.00  0.00    +0.042 A 
ATOM     26  C   UNL     1       5.110 -15.351  -0.441  0.00  0.00    +0.042 A 
ATOM     27  C   UNL     1       5.637 -16.380   0.340  0.00  0.00    +0.124 A 
ENDBRANCH   4  22
ENDBRANCH  18   4
ENDBRANCH  15  18
TORSDOF 6
ENDMDL
