REMARK  Name = 45783723
REMARK  7 active torsions:
REMARK  status: ('A' for Active; 'I' for Inactive)
REMARK    1  A    between atoms: O_2  and  C_21
REMARK    2  A    between atoms: O_2  and  C_24
REMARK    3  A    between atoms: O_3  and  C_26
REMARK    4  A    between atoms: O_3  and  C_27
REMARK    5  A    between atoms: C_10  and  C_14
REMARK    6  A    between atoms: C_16  and  C_17
REMARK    7  A    between atoms: C_24  and  C_26
REMARK                            x       y       z     vdW  Elec       q    Type
REMARK                         _______ _______ _______ _____ _____    ______ ____
ROOT
ATOM      1  O   UNL     1      -0.040  -2.724   0.618  0.00  0.00    -0.336 OA
ATOM      5  N   UNL     1       0.673  -0.982  -0.596  0.00  0.00    -0.190 NA
ATOM      8  N   UNL     1       1.267  -2.460   1.046  0.00  0.00    -0.056 NA
ATOM     14  C   UNL     1      -0.312  -1.809  -0.350  0.00  0.00    +0.248 A 
ATOM     16  C   UNL     1       1.619  -1.420   0.284  0.00  0.00    +0.207 A 
ENDROOT
BRANCH  14  10
ATOM      4  N   UNL     1      -2.455  -0.630  -0.889  0.00  0.00    -0.288 N 
ATOM      6  N   UNL     1      -2.887  -0.879   1.378  0.00  0.00    -0.223 NA
ATOM      7  N   UNL     1      -3.919   0.880   0.094  0.00  0.00    -0.223 NA
ATOM     10  C   UNL     1      -1.690  -1.884  -0.985  0.00  0.00    +0.165 C 
ATOM     11  C   UNL     1      -1.608  -2.137  -2.500  0.00  0.00    +0.034 C 
ATOM     12  C   UNL     1      -1.640  -0.744  -3.108  0.00  0.00    +0.021 C 
ATOM     13  C   UNL     1      -2.600   0.015  -2.197  0.00  0.00    +0.109 C 
ATOM     15  C   UNL     1      -3.116  -0.191   0.243  0.00  0.00    +0.218 A 
ATOM     18  C   UNL     1      -4.548   1.281   1.218  0.00  0.00    +0.116 A 
ATOM     19  C   UNL     1      -3.547  -0.424   2.463  0.00  0.00    +0.116 A 
ATOM     20  C   UNL     1      -4.399   0.662   2.443  0.00  0.00    +0.039 A 
ENDBRANCH  14  10
BRANCH  16  17
ATOM      9  N   UNL     1       4.291   1.175   0.174  0.00  0.00    -0.221 NA
ATOM     17  C   UNL     1       2.908  -0.797   0.376  0.00  0.00    +0.084 A 
ATOM     21  C   UNL     1       3.096   0.547   0.100  0.00  0.00    +0.226 A 
ATOM     22  C   UNL     1       4.017  -1.546   0.752  0.00  0.00    +0.018 A 
ATOM     23  C   UNL     1       5.264  -0.936   0.840  0.00  0.00    +0.021 A 
ATOM     25  C   UNL     1       5.347   0.415   0.543  0.00  0.00    +0.114 A 
BRANCH  21   2
ATOM      2  O   UNL     1       2.033   1.328  -0.276  0.00  0.00    -0.474 OA
BRANCH   2  24
ATOM     24  C   UNL     1       2.308   2.697  -0.542  0.00  0.00    +0.258 C 
BRANCH  24  26
ATOM     26  C   UNL     1       1.024   3.387  -0.962  0.00  0.00    +0.200 C 
BRANCH  26   3
ATOM      3  O   UNL     1       0.067   3.263   0.083  0.00  0.00    -0.380 OA
ATOM     27  C   UNL     1      -1.153   3.912  -0.249  0.00  0.00    +0.194 C 
ENDBRANCH  26   3
ENDBRANCH  24  26
ENDBRANCH   2  24
ENDBRANCH  21   2
ENDBRANCH  16  17
TORSDOF 6
