MODEL 1
REMARK VINA RESULT:      -7.6      0.000      0.000
REMARK  Name = 25314818
REMARK  7 active torsions:
REMARK  status: ('A' for Active; 'I' for Inactive)
REMARK    1  A    between atoms: O_3  and  C_11
REMARK    2  A    between atoms: O_5  and  C_28
REMARK    3  A    between atoms: O_5  and  C_33
REMARK    4  A    between atoms: N_6  and  C_10
REMARK    5  A    between atoms: N_7  and  C_12
REMARK    6  A    between atoms: N_8  and  C_24
REMARK    7  A    between atoms: N_9  and  C_21
REMARK                            x       y       z     vdW  Elec       q    Type
REMARK                         _______ _______ _______ _____ _____    ______ ____
ROOT
ATOM      1  O   UNL     1      12.876   9.234  21.189  0.00  0.00    -0.342 OA
ATOM      2  O   UNL     1      11.640   7.380  21.835  0.00  0.00    -0.347 OA
ATOM     10  C   UNL     1      13.734   7.040  20.673  0.00  0.00    +0.144 C 
ATOM     11  C   UNL     1      13.004   7.054  19.310  0.00  0.00    +0.159 C 
ATOM     12  C   UNL     1      12.299   8.393  19.004  0.00  0.00    +0.136 C 
ATOM     13  C   UNL     1      11.788   9.113  20.269  0.00  0.00    +0.170 C 
ATOM     14  C   UNL     1      12.975   7.898  21.701  0.00  0.00    +0.270 C 
ATOM     15  C   UNL     1      10.814   8.295  21.098  0.00  0.00    +0.196 C 
ENDROOT
BRANCH  12   7
ATOM      4  O   UNL     1      12.418   8.717  16.150  0.00  0.00    -0.253 OA
ATOM      7  N   UNL     1      13.187   9.268  18.268  0.00  0.00    -0.291 N 
ATOM      9  N   UNL     1      14.123  10.269  16.428  0.00  0.00    -0.297 N 
ATOM     20  C   UNL     1      13.173   9.358  16.881  0.00  0.00    +0.300 C 
ATOM     34  H   UNL     1      13.899   9.778  18.782  0.00  0.00    +0.151 HD
ATOM     36  H   UNL     1      14.743  10.688  17.113  0.00  0.00    +0.151 HD
BRANCH   9  21
ATOM     21  C   UNL     1      14.330  10.565  15.028  0.00  0.00    +0.074 C 
ATOM     22  C   UNL     1      13.575  11.834  14.616  0.00  0.00    +0.022 C 
ATOM     23  C   UNL     1      15.824  10.678  14.704  0.00  0.00    +0.022 C 
ATOM     25  C   UNL     1      14.209  13.102  15.189  0.00  0.00    +0.002 C 
ATOM     26  C   UNL     1      16.453  11.947  15.275  0.00  0.00    +0.002 C 
ATOM     27  C   UNL     1      15.692  13.197  14.843  0.00  0.00    +0.000 C 
ENDBRANCH   9  21
ENDBRANCH  12   7
BRANCH  10   6
ATOM      6  N   UNL     1      15.099   7.545  20.519  0.00  0.00    -0.290 NA
ATOM      8  N   UNL     1      17.905   7.679  21.043  0.00  0.00    -0.325 N 
ATOM     16  C   UNL     1      15.994   6.476  20.057  0.00  0.00    +0.104 C 
ATOM     17  C   UNL     1      15.592   8.094  21.788  0.00  0.00    +0.104 C 
ATOM     18  C   UNL     1      17.414   7.003  19.838  0.00  0.00    +0.120 C 
ATOM     19  C   UNL     1      16.998   8.676  21.626  0.00  0.00    +0.120 C 
BRANCH   8  24
ATOM     24  C   UNL     1      19.280   7.852  21.231  0.00  0.00    +0.072 A 
ATOM     28  C   UNL     1      20.168   6.804  20.984  0.00  0.00    +0.141 A 
ATOM     29  C   UNL     1      19.762   9.086  21.666  0.00  0.00    +0.027 A 
ATOM     30  C   UNL     1      21.537   6.991  21.174  0.00  0.00    +0.047 A 
ATOM     31  C   UNL     1      21.131   9.273  21.855  0.00  0.00    +0.002 A 
ATOM     32  C   UNL     1      22.019   8.226  21.610  0.00  0.00    +0.004 A 
BRANCH  28   5
ATOM      5  O   UNL     1      19.718   5.591  20.559  0.00  0.00    -0.493 OA
ATOM     33  C   UNL     1      20.671   4.531  20.499  0.00  0.00    +0.277 C 
ENDBRANCH  28   5
ENDBRANCH   8  24
ENDBRANCH  10   6
BRANCH  11   3
ATOM      3  O   UNL     1      12.021   6.010  19.330  0.00  0.00    -0.388 OA
ATOM     35  H   UNL     1      11.151   6.428  19.445  0.00  0.00    +0.210 HD
ENDBRANCH  11   3
TORSDOF 6
ENDMDL
MODEL 2
REMARK VINA RESULT:      -7.1     12.806     15.507
REMARK  Name = 25314818
REMARK  7 active torsions:
REMARK  status: ('A' for Active; 'I' for Inactive)
REMARK    1  A    between atoms: O_3  and  C_11
REMARK    2  A    between atoms: O_5  and  C_28
REMARK    3  A    between atoms: O_5  and  C_33
REMARK    4  A    between atoms: N_6  and  C_10
REMARK    5  A    between atoms: N_7  and  C_12
REMARK    6  A    between atoms: N_8  and  C_24
REMARK    7  A    between atoms: N_9  and  C_21
REMARK                            x       y       z     vdW  Elec       q    Type
REMARK                         _______ _______ _______ _____ _____    ______ ____
ROOT
ATOM      1  O   UNL     1      11.084   9.028   5.449  0.00  0.00    -0.342 OA
ATOM      2  O   UNL     1      10.645   8.841   7.719  0.00  0.00    -0.347 OA
ATOM     10  C   UNL     1      12.723   7.955   6.855  0.00  0.00    +0.144 C 
ATOM     11  C   UNL     1      12.060   6.580   6.612  0.00  0.00    +0.159 C 
ATOM     12  C   UNL     1      10.899   6.628   5.594  0.00  0.00    +0.136 C 
ATOM     13  C   UNL     1      10.136   7.969   5.608  0.00  0.00    +0.170 C 
ATOM     14  C   UNL     1      11.680   9.083   6.752  0.00  0.00    +0.270 C 
ATOM     15  C   UNL     1       9.540   8.330   6.956  0.00  0.00    +0.196 C 
ENDROOT
BRANCH  12   7
ATOM      4  O   UNL     1      10.543   4.209   4.083  0.00  0.00    -0.253 OA
ATOM      7  N   UNL     1      11.393   6.360   4.260  0.00  0.00    -0.291 N 
ATOM      9  N   UNL     1      11.751   5.154   2.341  0.00  0.00    -0.297 N 
ATOM     20  C   UNL     1      11.171   5.153   3.606  0.00  0.00    +0.300 C 
ATOM     34  H   UNL     1      11.990   7.051   3.817  0.00  0.00    +0.151 HD
ATOM     36  H   UNL     1      12.308   5.959   2.075  0.00  0.00    +0.151 HD
BRANCH   9  21
ATOM     21  C   UNL     1      11.677   4.029   1.436  0.00  0.00    +0.074 C 
ATOM     22  C   UNL     1      11.666   4.497  -0.024  0.00  0.00    +0.022 C 
ATOM     23  C   UNL     1      12.818   3.040   1.693  0.00  0.00    +0.022 C 
ATOM     25  C   UNL     1      13.025   5.033  -0.476  0.00  0.00    +0.002 C 
ATOM     26  C   UNL     1      14.174   3.578   1.238  0.00  0.00    +0.002 C 
ATOM     27  C   UNL     1      14.141   4.026  -0.220  0.00  0.00    +0.000 C 
ENDBRANCH   9  21
ENDBRANCH  12   7
BRANCH  10   6
ATOM      6  N   UNL     1      13.792   8.179   5.881  0.00  0.00    -0.290 NA
ATOM      8  N   UNL     1      16.493   8.322   4.960  0.00  0.00    -0.325 N 
ATOM     16  C   UNL     1      14.578   6.954   5.689  0.00  0.00    +0.104 C 
ATOM     17  C   UNL     1      14.669   9.271   6.320  0.00  0.00    +0.104 C 
ATOM     18  C   UNL     1      15.665   7.157   4.631  0.00  0.00    +0.120 C 
ATOM     19  C   UNL     1      15.759   9.552   5.283  0.00  0.00    +0.120 C 
BRANCH   8  24
ATOM     24  C   UNL     1      17.770   8.446   4.402  0.00  0.00    +0.072 A 
ATOM     28  C   UNL     1      18.899   8.508   5.220  0.00  0.00    +0.141 A 
ATOM     29  C   UNL     1      17.910   8.504   3.016  0.00  0.00    +0.027 A 
ATOM     30  C   UNL     1      20.166   8.630   4.651  0.00  0.00    +0.047 A 
ATOM     31  C   UNL     1      19.177   8.625   2.447  0.00  0.00    +0.002 A 
ATOM     32  C   UNL     1      20.306   8.689   3.264  0.00  0.00    +0.004 A 
BRANCH  28   5
ATOM      5  O   UNL     1      18.784   8.453   6.577  0.00  0.00    -0.493 OA
ATOM     33  C   UNL     1      19.929   8.831   7.339  0.00  0.00    +0.277 C 
ENDBRANCH  28   5
ENDBRANCH   8  24
ENDBRANCH  10   6
BRANCH  11   3
ATOM      3  O   UNL     1      11.552   6.111   7.868  0.00  0.00    -0.388 OA
ATOM     35  H   UNL     1      11.371   6.890   8.421  0.00  0.00    +0.210 HD
ENDBRANCH  11   3
TORSDOF 6
ENDMDL
MODEL 3
REMARK VINA RESULT:      -7.0     28.194     30.185
REMARK  Name = 25314818
REMARK  7 active torsions:
REMARK  status: ('A' for Active; 'I' for Inactive)
REMARK    1  A    between atoms: O_3  and  C_11
REMARK    2  A    between atoms: O_5  and  C_28
REMARK    3  A    between atoms: O_5  and  C_33
REMARK    4  A    between atoms: N_6  and  C_10
REMARK    5  A    between atoms: N_7  and  C_12
REMARK    6  A    between atoms: N_8  and  C_24
REMARK    7  A    between atoms: N_9  and  C_21
REMARK                            x       y       z     vdW  Elec       q    Type
REMARK                         _______ _______ _______ _____ _____    ______ ____
ROOT
ATOM      1  O   UNL     1      -4.940 -10.297  18.213  0.00  0.00    -0.342 OA
ATOM      2  O   UNL     1      -4.134 -12.326  18.996  0.00  0.00    -0.347 OA
ATOM     10  C   UNL     1      -4.945 -12.192  16.721  0.00  0.00    +0.144 C 
ATOM     11  C   UNL     1      -6.369 -12.576  17.184  0.00  0.00    +0.159 C 
ATOM     12  C   UNL     1      -6.995 -11.557  18.161  0.00  0.00    +0.136 C 
ATOM     13  C   UNL     1      -5.952 -10.855  19.055  0.00  0.00    +0.170 C 
ATOM     14  C   UNL     1      -4.190 -11.463  17.848  0.00  0.00    +0.270 C 
ATOM     15  C   UNL     1      -5.119 -11.802  19.899  0.00  0.00    +0.196 C 
ENDROOT
BRANCH  12   7
ATOM      4  O   UNL     1      -9.599 -10.546  18.840  0.00  0.00    -0.253 OA
ATOM      7  N   UNL     1      -7.758 -10.568  17.429  0.00  0.00    -0.291 N 
ATOM      9  N   UNL     1      -9.529  -9.187  16.959  0.00  0.00    -0.297 N 
ATOM     20  C   UNL     1      -9.016 -10.139  17.836  0.00  0.00    +0.300 C 
ATOM     34  H   UNL     1      -7.391 -10.232  16.544  0.00  0.00    +0.151 HD
ATOM     36  H   UNL     1      -8.995  -8.977  16.122  0.00  0.00    +0.151 HD
BRANCH   9  21
ATOM     21  C   UNL     1     -10.822  -8.565  17.135  0.00  0.00    +0.074 C 
ATOM     22  C   UNL     1     -10.719  -7.040  17.023  0.00  0.00    +0.022 C 
ATOM     23  C   UNL     1     -11.844  -9.126  16.140  0.00  0.00    +0.022 C 
ATOM     25  C   UNL     1     -10.462  -6.575  15.589  0.00  0.00    +0.002 C 
ATOM     26  C   UNL     1     -11.585  -8.658  14.709  0.00  0.00    +0.002 C 
ATOM     27  C   UNL     1     -11.498  -7.137  14.621  0.00  0.00    +0.000 C 
ENDBRANCH   9  21
ENDBRANCH  12   7
BRANCH  10   6
ATOM      6  N   UNL     1      -5.014 -11.334  15.537  0.00  0.00    -0.290 NA
ATOM      8  N   UNL     1      -4.808 -10.704  12.758  0.00  0.00    -0.325 N 
ATOM     16  C   UNL     1      -5.999 -11.856  14.581  0.00  0.00    +0.104 C 
ATOM     17  C   UNL     1      -3.698 -11.235  14.894  0.00  0.00    +0.104 C 
ATOM     18  C   UNL     1      -6.123 -10.939  13.362  0.00  0.00    +0.120 C 
ATOM     19  C   UNL     1      -3.745 -10.296  13.687  0.00  0.00    +0.120 C 
BRANCH   8  24
ATOM     24  C   UNL     1      -4.720 -10.273  11.430  0.00  0.00    +0.072 A 
ATOM     28  C   UNL     1      -4.162 -11.096  10.451  0.00  0.00    +0.141 A 
ATOM     29  C   UNL     1      -5.200  -9.009  11.087  0.00  0.00    +0.027 A 
ATOM     30  C   UNL     1      -4.083 -10.654   9.131  0.00  0.00    +0.047 A 
ATOM     31  C   UNL     1      -5.122  -8.568   9.767  0.00  0.00    +0.002 A 
ATOM     32  C   UNL     1      -4.563  -9.389   8.788  0.00  0.00    +0.004 A 
BRANCH  28   5
ATOM      5  O   UNL     1      -3.686 -12.333  10.766  0.00  0.00    -0.493 OA
ATOM     33  C   UNL     1      -4.153 -13.426   9.976  0.00  0.00    +0.277 C 
ENDBRANCH  28   5
ENDBRANCH   8  24
ENDBRANCH  10   6
BRANCH  11   3
ATOM      3  O   UNL     1      -6.287 -13.850  17.838  0.00  0.00    -0.388 OA
ATOM     35  H   UNL     1      -5.842 -13.714  18.692  0.00  0.00    +0.210 HD
ENDBRANCH  11   3
TORSDOF 6
ENDMDL
MODEL 4
REMARK VINA RESULT:      -6.9     11.991     15.012
REMARK  Name = 25314818
REMARK  7 active torsions:
REMARK  status: ('A' for Active; 'I' for Inactive)
REMARK    1  A    between atoms: O_3  and  C_11
REMARK    2  A    between atoms: O_5  and  C_28
REMARK    3  A    between atoms: O_5  and  C_33
REMARK    4  A    between atoms: N_6  and  C_10
REMARK    5  A    between atoms: N_7  and  C_12
REMARK    6  A    between atoms: N_8  and  C_24
REMARK    7  A    between atoms: N_9  and  C_21
REMARK                            x       y       z     vdW  Elec       q    Type
REMARK                         _______ _______ _______ _____ _____    ______ ____
ROOT
ATOM      1  O   UNL     1      10.047   8.201   5.413  0.00  0.00    -0.342 OA
ATOM      2  O   UNL     1       9.146   7.734   7.499  0.00  0.00    -0.347 OA
ATOM     10  C   UNL     1      11.552   7.802   7.255  0.00  0.00    +0.144 C 
ATOM     11  C   UNL     1      11.582   6.292   6.929  0.00  0.00    +0.159 C 
ATOM     12  C   UNL     1      10.807   5.924   5.645  0.00  0.00    +0.136 C 
ATOM     13  C   UNL     1       9.597   6.844   5.382  0.00  0.00    +0.170 C 
ATOM     14  C   UNL     1      10.211   8.422   6.820  0.00  0.00    +0.270 C 
ATOM     15  C   UNL     1       8.578   6.865   6.507  0.00  0.00    +0.196 C 
ENDROOT
BRANCH  12   7
ATOM      4  O   UNL     1      10.646   4.256   3.309  0.00  0.00    -0.253 OA
ATOM      7  N   UNL     1      11.695   5.946   4.502  0.00  0.00    -0.291 N 
ATOM      9  N   UNL     1      12.523   5.322   2.455  0.00  0.00    -0.297 N 
ATOM     20  C   UNL     1      11.538   5.096   3.412  0.00  0.00    +0.300 C 
ATOM     34  H   UNL     1      12.509   6.553   4.533  0.00  0.00    +0.151 HD
ATOM     36  H   UNL     1      13.255   5.990   2.674  0.00  0.00    +0.151 HD
BRANCH   9  21
ATOM     21  C   UNL     1      12.604   4.583   1.215  0.00  0.00    +0.074 C 
ATOM     22  C   UNL     1      13.224   5.438   0.104  0.00  0.00    +0.022 C 
ATOM     23  C   UNL     1      13.379   3.274   1.405  0.00  0.00    +0.022 C 
ATOM     25  C   UNL     1      14.723   5.663   0.306  0.00  0.00    +0.002 C 
ATOM     26  C   UNL     1      14.876   3.502   1.604  0.00  0.00    +0.002 C 
ATOM     27  C   UNL     1      15.472   4.345   0.480  0.00  0.00    +0.000 C 
ENDBRANCH   9  21
ENDBRANCH  12   7
BRANCH  10   6
ATOM      6  N   UNL     1      12.655   8.487   6.579  0.00  0.00    -0.290 NA
ATOM      8  N   UNL     1      15.149   9.870   6.404  0.00  0.00    -0.325 N 
ATOM     16  C   UNL     1      13.919   7.774   6.807  0.00  0.00    +0.104 C 
ATOM     17  C   UNL     1      12.771   9.871   7.053  0.00  0.00    +0.104 C 
ATOM     18  C   UNL     1      15.072   8.447   6.059  0.00  0.00    +0.120 C 
ATOM     19  C   UNL     1      13.885  10.615   6.314  0.00  0.00    +0.120 C 
BRANCH   8  24
ATOM     24  C   UNL     1      16.341  10.572   6.195  0.00  0.00    +0.072 A 
ATOM     28  C   UNL     1      16.741  11.571   7.084  0.00  0.00    +0.141 A 
ATOM     29  C   UNL     1      17.133  10.264   5.090  0.00  0.00    +0.027 A 
ATOM     30  C   UNL     1      17.933  12.261   6.865  0.00  0.00    +0.047 A 
ATOM     31  C   UNL     1      18.325  10.954   4.872  0.00  0.00    +0.002 A 
ATOM     32  C   UNL     1      18.726  11.953   5.759  0.00  0.00    +0.004 A 
BRANCH  28   5
ATOM      5  O   UNL     1      15.982  11.888   8.169  0.00  0.00    -0.493 OA
ATOM     33  C   UNL     1      16.623  12.608   9.220  0.00  0.00    +0.277 C 
ENDBRANCH  28   5
ENDBRANCH   8  24
ENDBRANCH  10   6
BRANCH  11   3
ATOM      3  O   UNL     1      10.997   5.593   8.036  0.00  0.00    -0.388 OA
ATOM     35  H   UNL     1      10.874   4.667   7.767  0.00  0.00    +0.210 HD
ENDBRANCH  11   3
TORSDOF 6
ENDMDL
MODEL 5
REMARK VINA RESULT:      -6.8     28.181     31.249
REMARK  Name = 25314818
REMARK  7 active torsions:
REMARK  status: ('A' for Active; 'I' for Inactive)
REMARK    1  A    between atoms: O_3  and  C_11
REMARK    2  A    between atoms: O_5  and  C_28
REMARK    3  A    between atoms: O_5  and  C_33
REMARK    4  A    between atoms: N_6  and  C_10
REMARK    5  A    between atoms: N_7  and  C_12
REMARK    6  A    between atoms: N_8  and  C_24
REMARK    7  A    between atoms: N_9  and  C_21
REMARK                            x       y       z     vdW  Elec       q    Type
REMARK                         _______ _______ _______ _____ _____    ______ ____
ROOT
ATOM      1  O   UNL     1     -15.491   9.030  20.570  0.00  0.00    -0.342 OA
ATOM      2  O   UNL     1     -14.803   8.390  18.449  0.00  0.00    -0.347 OA
ATOM     10  C   UNL     1     -14.304   6.944  20.324  0.00  0.00    +0.144 C 
ATOM     11  C   UNL     1     -12.955   7.664  20.546  0.00  0.00    +0.159 C 
ATOM     12  C   UNL     1     -13.106   9.160  20.898  0.00  0.00    +0.136 C 
ATOM     13  C   UNL     1     -14.341   9.815  20.246  0.00  0.00    +0.170 C 
ATOM     14  C   UNL     1     -15.332   7.905  19.696  0.00  0.00    +0.270 C 
ATOM     15  C   UNL     1     -14.363   9.727  18.731  0.00  0.00    +0.196 C 
ENDROOT
BRANCH  12   7
ATOM      4  O   UNL     1     -12.091  11.388  22.406  0.00  0.00    -0.253 OA
ATOM      7  N   UNL     1     -13.162   9.331  22.335  0.00  0.00    -0.291 N 
ATOM      9  N   UNL     1     -12.825  10.363  24.356  0.00  0.00    -0.297 N 
ATOM     20  C   UNL     1     -12.641  10.448  22.979  0.00  0.00    +0.300 C 
ATOM     34  H   UNL     1     -13.527   8.569  22.899  0.00  0.00    +0.151 HD
ATOM     36  H   UNL     1     -13.227   9.510  24.730  0.00  0.00    +0.151 HD
BRANCH   9  21
ATOM     21  C   UNL     1     -12.384  11.387  25.277  0.00  0.00    +0.074 C 
ATOM     22  C   UNL     1     -13.442  11.653  26.353  0.00  0.00    +0.022 C 
ATOM     23  C   UNL     1     -11.035  11.017  25.905  0.00  0.00    +0.022 C 
ATOM     25  C   UNL     1     -13.554  10.507  27.360  0.00  0.00    +0.002 C 
ATOM     26  C   UNL     1     -11.151   9.874  26.911  0.00  0.00    +0.002 C 
ATOM     27  C   UNL     1     -12.201  10.167  27.978  0.00  0.00    +0.000 C 
ENDBRANCH   9  21
ENDBRANCH  12   7
BRANCH  10   6
ATOM      6  N   UNL     1     -14.819   6.433  21.595  0.00  0.00    -0.290 NA
ATOM      8  N   UNL     1     -15.778   4.445  23.410  0.00  0.00    -0.325 N 
ATOM     16  C   UNL     1     -13.901   5.434  22.157  0.00  0.00    +0.104 C 
ATOM     17  C   UNL     1     -16.150   5.840  21.412  0.00  0.00    +0.104 C 
ATOM     18  C   UNL     1     -14.399   4.932  23.514  0.00  0.00    +0.120 C 
ATOM     19  C   UNL     1     -16.723   5.352  22.744  0.00  0.00    +0.120 C 
BRANCH   8  24
ATOM     24  C   UNL     1     -16.280   3.568  24.376  0.00  0.00    +0.072 A 
ATOM     28  C   UNL     1     -16.831   2.341  24.005  0.00  0.00    +0.141 A 
ATOM     29  C   UNL     1     -16.223   3.927  25.723  0.00  0.00    +0.027 A 
ATOM     30  C   UNL     1     -17.326   1.475  24.979  0.00  0.00    +0.047 A 
ATOM     31  C   UNL     1     -16.717   3.060  26.697  0.00  0.00    +0.002 A 
ATOM     32  C   UNL     1     -17.270   1.834  26.326  0.00  0.00    +0.004 A 
BRANCH  28   5
ATOM      5  O   UNL     1     -16.897   1.972  22.695  0.00  0.00    -0.493 OA
ATOM     33  C   UNL     1     -18.194   1.730  22.154  0.00  0.00    +0.277 C 
ENDBRANCH  28   5
ENDBRANCH   8  24
ENDBRANCH  10   6
BRANCH  11   3
ATOM      3  O   UNL     1     -12.194   7.550  19.336  0.00  0.00    -0.388 OA
ATOM     35  H   UNL     1     -12.261   6.629  19.032  0.00  0.00    +0.210 HD
ENDBRANCH  11   3
TORSDOF 6
ENDMDL
MODEL 6
REMARK VINA RESULT:      -6.8     13.024     15.448
REMARK  Name = 25314818
REMARK  7 active torsions:
REMARK  status: ('A' for Active; 'I' for Inactive)
REMARK    1  A    between atoms: O_3  and  C_11
REMARK    2  A    between atoms: O_5  and  C_28
REMARK    3  A    between atoms: O_5  and  C_33
REMARK    4  A    between atoms: N_6  and  C_10
REMARK    5  A    between atoms: N_7  and  C_12
REMARK    6  A    between atoms: N_8  and  C_24
REMARK    7  A    between atoms: N_9  and  C_21
REMARK                            x       y       z     vdW  Elec       q    Type
REMARK                         _______ _______ _______ _____ _____    ______ ____
ROOT
ATOM      1  O   UNL     1      10.758   9.272   5.080  0.00  0.00    -0.342 OA
ATOM      2  O   UNL     1       9.883   9.540   7.211  0.00  0.00    -0.347 OA
ATOM     10  C   UNL     1      12.072   8.539   6.965  0.00  0.00    +0.144 C 
ATOM     11  C   UNL     1      11.441   7.131   6.881  0.00  0.00    +0.159 C 
ATOM     12  C   UNL     1      10.500   6.948   5.670  0.00  0.00    +0.136 C 
ATOM     13  C   UNL     1       9.776   8.248   5.264  0.00  0.00    +0.170 C 
ATOM     14  C   UNL     1      11.092   9.602   6.434  0.00  0.00    +0.270 C 
ATOM     15  C   UNL     1       8.938   8.864   6.369  0.00  0.00    +0.196 C 
ENDROOT
BRANCH  12   7
ATOM      4  O   UNL     1       9.968   4.505   4.252  0.00  0.00    -0.253 OA
ATOM      7  N   UNL     1      11.238   6.425   4.540  0.00  0.00    -0.291 N 
ATOM      9  N   UNL     1      11.771   4.955   2.860  0.00  0.00    -0.297 N 
ATOM     20  C   UNL     1      10.905   5.227   3.916  0.00  0.00    +0.300 C 
ATOM     34  H   UNL     1      12.077   6.913   4.241  0.00  0.00    +0.151 HD
ATOM     36  H   UNL     1      12.555   5.582   2.715  0.00  0.00    +0.151 HD
BRANCH   9  21
ATOM     21  C   UNL     1      11.661   3.775   2.032  0.00  0.00    +0.074 C 
ATOM     22  C   UNL     1      10.902   4.081   0.736  0.00  0.00    +0.022 C 
ATOM     23  C   UNL     1      13.041   3.177   1.740  0.00  0.00    +0.022 C 
ATOM     25  C   UNL     1      11.722   4.935  -0.233  0.00  0.00    +0.002 C 
ATOM     26  C   UNL     1      13.856   4.031   0.770  0.00  0.00    +0.002 C 
ATOM     27  C   UNL     1      13.085   4.313  -0.517  0.00  0.00    +0.000 C 
ENDBRANCH   9  21
ENDBRANCH  12   7
BRANCH  10   6
ATOM      6  N   UNL     1      13.314   8.583   6.191  0.00  0.00    -0.290 NA
ATOM      8  N   UNL     1      16.143   8.548   5.798  0.00  0.00    -0.325 N 
ATOM     16  C   UNL     1      14.074   7.339   6.369  0.00  0.00    +0.104 C 
ATOM     17  C   UNL     1      14.133   9.731   6.596  0.00  0.00    +0.104 C 
ATOM     18  C   UNL     1      15.348   7.347   5.522  0.00  0.00    +0.120 C 
ATOM     19  C   UNL     1      15.409   9.819   5.755  0.00  0.00    +0.120 C 
BRANCH   8  24
ATOM     24  C   UNL     1      17.507   8.565   5.484  0.00  0.00    +0.072 A 
ATOM     28  C   UNL     1      17.933   8.444   4.162  0.00  0.00    +0.141 A 
ATOM     29  C   UNL     1      18.443   8.708   6.508  0.00  0.00    +0.027 A 
ATOM     30  C   UNL     1      19.294   8.465   3.863  0.00  0.00    +0.047 A 
ATOM     31  C   UNL     1      19.805   8.730   6.210  0.00  0.00    +0.002 A 
ATOM     32  C   UNL     1      20.232   8.608   4.887  0.00  0.00    +0.004 A 
BRANCH  28   5
ATOM      5  O   UNL     1      17.034   8.303   3.147  0.00  0.00    -0.493 OA
ATOM     33  C   UNL     1      16.843   9.427   2.290  0.00  0.00    +0.277 C 
ENDBRANCH  28   5
ENDBRANCH   8  24
ENDBRANCH  10   6
BRANCH  11   3
ATOM      3  O   UNL     1      10.690   6.916   8.084  0.00  0.00    -0.388 OA
ATOM     35  H   UNL     1      10.049   6.206   7.907  0.00  0.00    +0.210 HD
ENDBRANCH  11   3
TORSDOF 6
ENDMDL
MODEL 7
REMARK VINA RESULT:      -6.5     28.955     31.040
REMARK  Name = 25314818
REMARK  7 active torsions:
REMARK  status: ('A' for Active; 'I' for Inactive)
REMARK    1  A    between atoms: O_3  and  C_11
REMARK    2  A    between atoms: O_5  and  C_28
REMARK    3  A    between atoms: O_5  and  C_33
REMARK    4  A    between atoms: N_6  and  C_10
REMARK    5  A    between atoms: N_7  and  C_12
REMARK    6  A    between atoms: N_8  and  C_24
REMARK    7  A    between atoms: N_9  and  C_21
REMARK                            x       y       z     vdW  Elec       q    Type
REMARK                         _______ _______ _______ _____ _____    ______ ____
ROOT
ATOM      1  O   UNL     1      -5.301  -9.547  15.143  0.00  0.00    -0.342 OA
ATOM      2  O   UNL     1      -4.482 -11.709  15.325  0.00  0.00    -0.347 OA
ATOM     10  C   UNL     1      -6.099 -11.216  13.594  0.00  0.00    +0.144 C 
ATOM     11  C   UNL     1      -7.261 -11.574  14.549  0.00  0.00    +0.159 C 
ATOM     12  C   UNL     1      -7.339 -10.662  15.793  0.00  0.00    +0.136 C 
ATOM     13  C   UNL     1      -5.959 -10.153  16.259  0.00  0.00    +0.170 C 
ATOM     14  C   UNL     1      -4.887 -10.695  14.390  0.00  0.00    +0.270 C 
ATOM     15  C   UNL     1      -4.972 -11.255  16.597  0.00  0.00    +0.196 C 
ENDROOT
BRANCH  12   7
ATOM      4  O   UNL     1      -9.274  -9.537  17.596  0.00  0.00    -0.253 OA
ATOM      7  N   UNL     1      -8.213  -9.537  15.533  0.00  0.00    -0.291 N 
ATOM      9  N   UNL     1      -9.838  -7.978  15.971  0.00  0.00    -0.297 N 
ATOM     20  C   UNL     1      -9.123  -9.062  16.472  0.00  0.00    +0.300 C 
ATOM     34  H   UNL     1      -8.215  -9.130  14.603  0.00  0.00    +0.151 HD
ATOM     36  H   UNL     1      -9.684  -7.713  15.004  0.00  0.00    +0.151 HD
BRANCH   9  21
ATOM     21  C   UNL     1     -10.852  -7.281  16.731  0.00  0.00    +0.074 C 
ATOM     22  C   UNL     1     -11.043  -5.851  16.212  0.00  0.00    +0.022 C 
ATOM     23  C   UNL     1     -12.175  -8.056  16.723  0.00  0.00    +0.022 C 
ATOM     25  C   UNL     1     -11.742  -5.811  14.853  0.00  0.00    +0.002 C 
ATOM     26  C   UNL     1     -12.871  -8.011  15.364  0.00  0.00    +0.002 C 
ATOM     27  C   UNL     1     -13.060  -6.578  14.875  0.00  0.00    +0.000 C 
ENDBRANCH   9  21
ENDBRANCH  12   7
BRANCH  10   6
ATOM      6  N   UNL     1      -6.530 -10.202  12.631  0.00  0.00    -0.290 NA
ATOM      8  N   UNL     1      -7.201  -9.173  10.052  0.00  0.00    -0.325 N 
ATOM     16  C   UNL     1      -7.768 -10.622  11.962  0.00  0.00    +0.104 C 
ATOM     17  C   UNL     1      -5.481  -9.957  11.634  0.00  0.00    +0.104 C 
ATOM     18  C   UNL     1      -8.262  -9.546  10.992  0.00  0.00    +0.120 C 
ATOM     19  C   UNL     1      -5.899  -8.859  10.655  0.00  0.00    +0.120 C 
BRANCH   8  24
ATOM     24  C   UNL     1      -7.531  -8.554   8.842  0.00  0.00    +0.072 A 
ATOM     28  C   UNL     1      -7.228  -9.165   7.625  0.00  0.00    +0.141 A 
ATOM     29  C   UNL     1      -8.172  -7.315   8.859  0.00  0.00    +0.027 A 
ATOM     30  C   UNL     1      -7.565  -8.537   6.426  0.00  0.00    +0.047 A 
ATOM     31  C   UNL     1      -8.510  -6.688   7.661  0.00  0.00    +0.002 A 
ATOM     32  C   UNL     1      -8.206  -7.298   6.444  0.00  0.00    +0.004 A 
BRANCH  28   5
ATOM      5  O   UNL     1      -6.602 -10.374   7.586  0.00  0.00    -0.493 OA
ATOM     33  C   UNL     1      -5.212 -10.373   7.264  0.00  0.00    +0.277 C 
ENDBRANCH  28   5
ENDBRANCH   8  24
ENDBRANCH  10   6
BRANCH  11   3
ATOM      3  O   UNL     1      -7.070 -12.928  14.982  0.00  0.00    -0.388 OA
ATOM     35  H   UNL     1      -6.120 -13.125  14.919  0.00  0.00    +0.210 HD
ENDBRANCH  11   3
TORSDOF 6
ENDMDL
MODEL 8
REMARK VINA RESULT:      -6.5      1.875      2.412
REMARK  Name = 25314818
REMARK  7 active torsions:
REMARK  status: ('A' for Active; 'I' for Inactive)
REMARK    1  A    between atoms: O_3  and  C_11
REMARK    2  A    between atoms: O_5  and  C_28
REMARK    3  A    between atoms: O_5  and  C_33
REMARK    4  A    between atoms: N_6  and  C_10
REMARK    5  A    between atoms: N_7  and  C_12
REMARK    6  A    between atoms: N_8  and  C_24
REMARK    7  A    between atoms: N_9  and  C_21
REMARK                            x       y       z     vdW  Elec       q    Type
REMARK                         _______ _______ _______ _____ _____    ______ ____
ROOT
ATOM      1  O   UNL     1      11.862   9.605  21.157  0.00  0.00    -0.342 OA
ATOM      2  O   UNL     1      11.512   7.451  21.946  0.00  0.00    -0.347 OA
ATOM     10  C   UNL     1      13.725   8.073  21.191  0.00  0.00    +0.144 C 
ATOM     11  C   UNL     1      13.391   7.605  19.757  0.00  0.00    +0.159 C 
ATOM     12  C   UNL     1      12.234   8.394  19.106  0.00  0.00    +0.136 C 
ATOM     13  C   UNL     1      11.185   8.884  20.125  0.00  0.00    +0.170 C 
ATOM     14  C   UNL     1      12.450   8.541  21.918  0.00  0.00    +0.270 C 
ATOM     15  C   UNL     1      10.543   7.774  20.937  0.00  0.00    +0.196 C 
ENDROOT
BRANCH  12   7
ATOM      4  O   UNL     1      12.891   8.448  16.307  0.00  0.00    -0.253 OA
ATOM      7  N   UNL     1      12.756   9.520  18.360  0.00  0.00    -0.291 N 
ATOM      9  N   UNL     1      13.533  10.668  16.532  0.00  0.00    -0.297 N 
ATOM     20  C   UNL     1      13.046   9.452  17.002  0.00  0.00    +0.300 C 
ATOM     34  H   UNL     1      12.991  10.368  18.867  0.00  0.00    +0.151 HD
ATOM     36  H   UNL     1      13.690  11.410  17.207  0.00  0.00    +0.151 HD
BRANCH   9  21
ATOM     21  C   UNL     1      13.916  10.888  15.155  0.00  0.00    +0.074 C 
ATOM     22  C   UNL     1      13.466  12.271  14.673  0.00  0.00    +0.022 C 
ATOM     23  C   UNL     1      15.425  10.697  14.966  0.00  0.00    +0.022 C 
ATOM     25  C   UNL     1      14.286  13.402  15.295  0.00  0.00    +0.002 C 
ATOM     26  C   UNL     1      16.240  11.830  15.587  0.00  0.00    +0.002 C 
ATOM     27  C   UNL     1      15.782  13.196  15.083  0.00  0.00    +0.000 C 
ENDBRANCH   9  21
ENDBRANCH  12   7
BRANCH  10   6
ATOM      6  N   UNL     1      14.700   9.165  21.151  0.00  0.00    -0.290 NA
ATOM      8  N   UNL     1      17.152  10.494  21.766  0.00  0.00    -0.325 N 
ATOM     16  C   UNL     1      15.963   8.705  20.561  0.00  0.00    +0.104 C 
ATOM     17  C   UNL     1      14.941   9.690  22.500  0.00  0.00    +0.104 C 
ATOM     18  C   UNL     1      16.973   9.850  20.461  0.00  0.00    +0.120 C 
ATOM     19  C   UNL     1      15.916  10.869  22.465  0.00  0.00    +0.120 C 
BRANCH   8  24
ATOM     24  C   UNL     1      18.303  11.251  22.015  0.00  0.00    +0.072 A 
ATOM     28  C   UNL     1      19.470  10.638  22.472  0.00  0.00    +0.141 A 
ATOM     29  C   UNL     1      18.277  12.628  21.799  0.00  0.00    +0.027 A 
ATOM     30  C   UNL     1      20.610  11.403  22.714  0.00  0.00    +0.047 A 
ATOM     31  C   UNL     1      19.417  13.393  22.040  0.00  0.00    +0.002 A 
ATOM     32  C   UNL     1      20.584  12.782  22.498  0.00  0.00    +0.004 A 
BRANCH  28   5
ATOM      5  O   UNL     1      19.516   9.294  22.690  0.00  0.00    -0.493 OA
ATOM     33  C   UNL     1      20.305   8.518  21.790  0.00  0.00    +0.277 C 
ENDBRANCH  28   5
ENDBRANCH   8  24
ENDBRANCH  10   6
BRANCH  11   3
ATOM      3  O   UNL     1      13.023   6.220  19.824  0.00  0.00    -0.388 OA
ATOM     35  H   UNL     1      12.682   5.964  18.950  0.00  0.00    +0.210 HD
ENDBRANCH  11   3
TORSDOF 6
ENDMDL
MODEL 9
REMARK VINA RESULT:      -6.4     13.381     15.769
REMARK  Name = 25314818
REMARK  7 active torsions:
REMARK  status: ('A' for Active; 'I' for Inactive)
REMARK    1  A    between atoms: O_3  and  C_11
REMARK    2  A    between atoms: O_5  and  C_28
REMARK    3  A    between atoms: O_5  and  C_33
REMARK    4  A    between atoms: N_6  and  C_10
REMARK    5  A    between atoms: N_7  and  C_12
REMARK    6  A    between atoms: N_8  and  C_24
REMARK    7  A    between atoms: N_9  and  C_21
REMARK                            x       y       z     vdW  Elec       q    Type
REMARK                         _______ _______ _______ _____ _____    ______ ____
ROOT
ATOM      1  O   UNL     1      11.842  10.006   3.837  0.00  0.00    -0.342 OA
ATOM      2  O   UNL     1      10.757  10.894   5.684  0.00  0.00    -0.347 OA
ATOM     10  C   UNL     1      12.732   9.541   6.030  0.00  0.00    +0.144 C 
ATOM     11  C   UNL     1      11.866   8.266   6.132  0.00  0.00    +0.159 C 
ATOM     12  C   UNL     1      11.078   7.951   4.842  0.00  0.00    +0.136 C 
ATOM     13  C   UNL     1      10.671   9.215   4.057  0.00  0.00    +0.170 C 
ATOM     14  C   UNL     1      12.048  10.588   5.131  0.00  0.00    +0.270 C 
ATOM     15  C   UNL     1       9.822  10.192   4.850  0.00  0.00    +0.196 C 
ENDROOT
BRANCH  12   7
ATOM      4  O   UNL     1      10.203   5.463   3.698  0.00  0.00    -0.253 OA
ATOM      7  N   UNL     1      11.849   7.072   3.988  0.00  0.00    -0.291 N 
ATOM      9  N   UNL     1      12.283   5.229   2.692  0.00  0.00    -0.297 N 
ATOM     20  C   UNL     1      11.339   5.882   3.480  0.00  0.00    +0.300 C 
ATOM     34  H   UNL     1      12.825   7.297   3.818  0.00  0.00    +0.151 HD
ATOM     36  H   UNL     1      13.214   5.628   2.638  0.00  0.00    +0.151 HD
BRANCH   9  21
ATOM     21  C   UNL     1      12.026   3.968   2.034  0.00  0.00    +0.074 C 
ATOM     22  C   UNL     1      11.208   4.171   0.754  0.00  0.00    +0.022 C 
ATOM     23  C   UNL     1      13.333   3.222   1.744  0.00  0.00    +0.022 C 
ATOM     25  C   UNL     1      12.023   4.822  -0.364  0.00  0.00    +0.002 C 
ATOM     26  C   UNL     1      14.144   3.874   0.625  0.00  0.00    +0.002 C 
ATOM     27  C   UNL     1      13.312   4.055  -0.641  0.00  0.00    +0.000 C 
ENDBRANCH   9  21
ENDBRANCH  12   7
BRANCH  10   6
ATOM      6  N   UNL     1      14.052   9.213   5.490  0.00  0.00    -0.290 NA
ATOM      8  N   UNL     1      16.865   8.725   5.595  0.00  0.00    -0.325 N 
ATOM     16  C   UNL     1      14.571   7.988   6.110  0.00  0.00    +0.104 C 
ATOM     17  C   UNL     1      14.990  10.321   5.711  0.00  0.00    +0.104 C 
ATOM     18  C   UNL     1      15.927   7.601   5.514  0.00  0.00    +0.120 C 
ATOM     19  C   UNL     1      16.359  10.012   5.101  0.00  0.00    +0.120 C 
BRANCH   8  24
ATOM     24  C   UNL     1      18.242   8.487   5.519  0.00  0.00    +0.072 A 
ATOM     28  C   UNL     1      18.838   8.151   4.304  0.00  0.00    +0.141 A 
ATOM     29  C   UNL     1      19.020   8.592   6.672  0.00  0.00    +0.027 A 
ATOM     30  C   UNL     1      20.212   7.919   4.241  0.00  0.00    +0.047 A 
ATOM     31  C   UNL     1      20.393   8.360   6.610  0.00  0.00    +0.002 A 
ATOM     32  C   UNL     1      20.990   8.023   5.395  0.00  0.00    +0.004 A 
BRANCH  28   5
ATOM      5  O   UNL     1      18.096   8.043   3.166  0.00  0.00    -0.493 OA
ATOM     33  C   UNL     1      18.766   8.286   1.930  0.00  0.00    +0.277 C 
ENDBRANCH  28   5
ENDBRANCH   8  24
ENDBRANCH  10   6
BRANCH  11   3
ATOM      3  O   UNL     1      10.934   8.455   7.206  0.00  0.00    -0.388 OA
ATOM     35  H   UNL     1      10.265   9.094   6.906  0.00  0.00    +0.210 HD
ENDBRANCH  11   3
TORSDOF 6
ENDMDL
MODEL 10
REMARK VINA RESULT:      -6.4     15.891     19.944
REMARK  Name = 25314818
REMARK  7 active torsions:
REMARK  status: ('A' for Active; 'I' for Inactive)
REMARK    1  A    between atoms: O_3  and  C_11
REMARK    2  A    between atoms: O_5  and  C_28
REMARK    3  A    between atoms: O_5  and  C_33
REMARK    4  A    between atoms: N_6  and  C_10
REMARK    5  A    between atoms: N_7  and  C_12
REMARK    6  A    between atoms: N_8  and  C_24
REMARK    7  A    between atoms: N_9  and  C_21
REMARK                            x       y       z     vdW  Elec       q    Type
REMARK                         _______ _______ _______ _____ _____    ______ ____
ROOT
ATOM      1  O   UNL     1      10.712   3.743  -0.978  0.00  0.00    -0.342 OA
ATOM      2  O   UNL     1      12.966   3.408  -1.412  0.00  0.00    -0.347 OA
ATOM     10  C   UNL     1      12.328   5.060   0.237  0.00  0.00    +0.144 C 
ATOM     11  C   UNL     1      12.279   6.157  -0.851  0.00  0.00    +0.159 C 
ATOM     12  C   UNL     1      11.226   5.890  -1.949  0.00  0.00    +0.136 C 
ATOM     13  C   UNL     1      11.001   4.388  -2.221  0.00  0.00    +0.170 C 
ATOM     14  C   UNL     1      12.010   3.681  -0.373  0.00  0.00    +0.270 C 
ATOM     15  C   UNL     1      12.254   3.639  -2.637  0.00  0.00    +0.196 C 
ENDROOT
BRANCH  12   7
ATOM      4  O   UNL     1       9.872   7.965  -3.407  0.00  0.00    -0.253 OA
ATOM      7  N   UNL     1       9.969   6.517  -1.597  0.00  0.00    -0.291 N 
ATOM      9  N   UNL     1       8.188   7.948  -1.809  0.00  0.00    -0.297 N 
ATOM     20  C   UNL     1       9.389   7.518  -2.368  0.00  0.00    +0.300 C 
ATOM     34  H   UNL     1       9.535   6.269  -0.713  0.00  0.00    +0.151 HD
ATOM     36  H   UNL     1       7.918   7.563  -0.910  0.00  0.00    +0.151 HD
BRANCH   9  21
ATOM     21  C   UNL     1       7.367   8.981  -2.399  0.00  0.00    +0.074 C 
ATOM     22  C   UNL     1       6.190   8.375  -3.172  0.00  0.00    +0.022 C 
ATOM     23  C   UNL     1       6.881   9.973  -1.336  0.00  0.00    +0.022 C 
ATOM     25  C   UNL     1       5.130   7.775  -2.247  0.00  0.00    +0.002 C 
ATOM     26  C   UNL     1       5.820   9.370  -0.415  0.00  0.00    +0.002 C 
ATOM     27  C   UNL     1       4.655   8.784  -1.206  0.00  0.00    +0.000 C 
ENDBRANCH   9  21
ENDBRANCH  12   7
BRANCH  10   6
ATOM      6  N   UNL     1      11.369   5.362   1.301  0.00  0.00    -0.290 NA
ATOM      8  N   UNL     1      10.541   6.211   3.900  0.00  0.00    -0.325 N 
ATOM     16  C   UNL     1      11.455   6.777   1.683  0.00  0.00    +0.104 C 
ATOM     17  C   UNL     1      11.615   4.513   2.473  0.00  0.00    +0.104 C 
ATOM     18  C   UNL     1      10.419   7.121   2.757  0.00  0.00    +0.120 C 
ATOM     19  C   UNL     1      10.585   4.780   3.572  0.00  0.00    +0.120 C 
BRANCH   8  24
ATOM     24  C   UNL     1      10.019   6.585   5.143  0.00  0.00    +0.072 A 
ATOM     28  C   UNL     1      10.853   6.715   6.254  0.00  0.00    +0.141 A 
ATOM     29  C   UNL     1       8.651   6.830   5.265  0.00  0.00    +0.027 A 
ATOM     30  C   UNL     1      10.319   7.089   7.486  0.00  0.00    +0.047 A 
ATOM     31  C   UNL     1       8.118   7.206   6.498  0.00  0.00    +0.002 A 
ATOM     32  C   UNL     1       8.951   7.335   7.609  0.00  0.00    +0.004 A 
BRANCH  28   5
ATOM      5  O   UNL     1      12.191   6.478   6.156  0.00  0.00    -0.493 OA
ATOM     33  C   UNL     1      13.064   7.572   6.431  0.00  0.00    +0.277 C 
ENDBRANCH  28   5
ENDBRANCH   8  24
ENDBRANCH  10   6
BRANCH  11   3
ATOM      3  O   UNL     1      13.575   6.223  -1.463  0.00  0.00    -0.388 OA
ATOM     35  H   UNL     1      13.971   7.078  -1.220  0.00  0.00    +0.210 HD
ENDBRANCH  11   3
TORSDOF 6
ENDMDL
