MODEL 1
REMARK VINA RESULT:      -7.1      0.000      0.000
REMARK  Name = 11885303
REMARK  5 active torsions:
REMARK  status: ('A' for Active; 'I' for Inactive)
REMARK    1  A    between atoms: O_4  and  C_26
REMARK    2  A    between atoms: N_5  and  C_14
REMARK    3  A    between atoms: C_14  and  C_19
REMARK    4  A    between atoms: C_17  and  C_20
REMARK    5  A    between atoms: C_22  and  C_26
REMARK                            x       y       z     vdW  Elec       q    Type
REMARK                         _______ _______ _______ _____ _____    ______ ____
ROOT
ATOM      2  O   UNL     1      -6.092 -11.721  10.755  0.00  0.00    -0.267 OA
ATOM      5  N   UNL     1      -3.271 -11.064  14.848  0.00  0.00    -0.294 NA
ATOM      6  N   UNL     1      -4.008 -11.622  11.796  0.00  0.00    -0.311 N 
ATOM      7  C   UNL     1      -3.302 -13.259  13.638  0.00  0.00    +0.024 C 
ATOM      8  C   UNL     1      -1.755 -11.504  12.912  0.00  0.00    +0.050 C 
ATOM      9  C   UNL     1      -1.894 -13.011  13.112  0.00  0.00    +0.017 C 
ATOM     10  C   UNL     1      -3.509 -12.507  14.969  0.00  0.00    +0.090 C 
ATOM     11  C   UNL     1      -1.951 -10.783  14.265  0.00  0.00    +0.094 C 
ATOM     12  C   UNL     1      -4.312 -12.840  12.562  0.00  0.00    +0.130 C 
ATOM     13  C   UNL     1      -2.760 -11.002  11.893  0.00  0.00    +0.026 A 
ATOM     15  C   UNL     1      -2.464  -9.957  11.103  0.00  0.00    +0.022 A 
ATOM     16  C   UNL     1      -4.994 -11.179  10.892  0.00  0.00    +0.259 A 
ATOM     17  C   UNL     1      -4.646  -9.986  10.044  0.00  0.00    +0.047 A 
ATOM     18  C   UNL     1      -3.426  -9.441  10.170  0.00  0.00    +0.015 A 
ENDROOT
BRANCH  17  20
ATOM      1 CL   UNL     1      -8.596  -7.647   6.204  0.00  0.00    -0.084 Cl
ATOM     20  C   UNL     1      -5.618  -9.411   9.099  0.00  0.00    -0.013 A 
ATOM     24  C   UNL     1      -6.505  -8.421   9.525  0.00  0.00    +0.010 A 
ATOM     25  C   UNL     1      -5.654  -9.854   7.776  0.00  0.00    +0.010 A 
ATOM     27  C   UNL     1      -7.425  -7.876   8.630  0.00  0.00    +0.020 A 
ATOM     28  C   UNL     1      -6.574  -9.308   6.881  0.00  0.00    +0.020 A 
ATOM     29  C   UNL     1      -7.459  -8.319   7.308  0.00  0.00    +0.041 A 
ENDBRANCH  17  20
BRANCH   5  14
ATOM     14  C   UNL     1      -3.425 -10.397  16.139  0.00  0.00    +0.158 C 
BRANCH  14  19
ATOM      3  O   UNL     1      -5.236 -10.661  17.696  0.00  0.00    -0.461 OA
ATOM     19  C   UNL     1      -4.878 -10.209  16.482  0.00  0.00    +0.119 A 
ATOM     21  C   UNL     1      -5.908  -9.666  15.795  0.00  0.00    +0.046 A 
ATOM     22  C   UNL     1      -6.566 -10.396  17.798  0.00  0.00    +0.131 A 
ATOM     23  C   UNL     1      -7.026  -9.786  16.655  0.00  0.00    +0.047 A 
BRANCH  22  26
ATOM     26  C   UNL     1      -7.214 -10.799  19.054  0.00  0.00    +0.230 C 
BRANCH  26   4
ATOM      4  O   UNL     1      -6.617 -10.055  20.118  0.00  0.00    -0.387 OA
ATOM     30  H   UNL     1      -6.201 -10.701  20.716  0.00  0.00    +0.210 HD
ENDBRANCH  26   4
ENDBRANCH  22  26
ENDBRANCH  14  19
ENDBRANCH   5  14
TORSDOF 5
ENDMDL
MODEL 2
REMARK VINA RESULT:      -6.8     27.499     29.830
REMARK  Name = 11885303
REMARK  5 active torsions:
REMARK  status: ('A' for Active; 'I' for Inactive)
REMARK    1  A    between atoms: O_4  and  C_26
REMARK    2  A    between atoms: N_5  and  C_14
REMARK    3  A    between atoms: C_14  and  C_19
REMARK    4  A    between atoms: C_17  and  C_20
REMARK    5  A    between atoms: C_22  and  C_26
REMARK                            x       y       z     vdW  Elec       q    Type
REMARK                         _______ _______ _______ _____ _____    ______ ____
ROOT
ATOM      2  O   UNL     1      15.464   5.965  19.968  0.00  0.00    -0.267 OA
ATOM      5  N   UNL     1      12.992   9.419  17.302  0.00  0.00    -0.294 NA
ATOM      6  N   UNL     1      14.303   7.982  19.830  0.00  0.00    -0.311 N 
ATOM      7  C   UNL     1      11.846   8.118  19.114  0.00  0.00    +0.024 C 
ATOM      8  C   UNL     1      13.060  10.167  19.685  0.00  0.00    +0.050 C 
ATOM      9  C   UNL     1      11.808   9.353  20.004  0.00  0.00    +0.017 C 
ATOM     10  C   UNL     1      11.864   8.537  17.629  0.00  0.00    +0.090 C 
ATOM     11  C   UNL     1      13.039  10.584  18.197  0.00  0.00    +0.094 C 
ATOM     12  C   UNL     1      13.062   7.267  19.500  0.00  0.00    +0.130 C 
ATOM     13  C   UNL     1      14.313   9.370  19.995  0.00  0.00    +0.026 A 
ATOM     15  C   UNL     1      15.431   9.991  20.405  0.00  0.00    +0.022 A 
ATOM     16  C   UNL     1      15.445   7.193  20.070  0.00  0.00    +0.259 A 
ATOM     17  C   UNL     1      16.692   7.921  20.495  0.00  0.00    +0.047 A 
ATOM     18  C   UNL     1      16.637   9.253  20.652  0.00  0.00    +0.015 A 
ENDROOT
BRANCH  17  20
ATOM      1 CL   UNL     1      21.825   4.992  21.441  0.00  0.00    -0.084 Cl
ATOM     20  C   UNL     1      17.955   7.200  20.729  0.00  0.00    -0.013 A 
ATOM     24  C   UNL     1      18.302   6.119  19.917  0.00  0.00    +0.010 A 
ATOM     25  C   UNL     1      18.807   7.597  21.761  0.00  0.00    +0.010 A 
ATOM     27  C   UNL     1      19.498   5.437  20.137  0.00  0.00    +0.020 A 
ATOM     28  C   UNL     1      20.003   6.914  21.981  0.00  0.00    +0.020 A 
ATOM     29  C   UNL     1      20.348   5.835  21.169  0.00  0.00    +0.041 A 
ENDBRANCH  17  20
BRANCH   5  14
ATOM     14  C   UNL     1      12.943   9.835  15.903  0.00  0.00    +0.158 C 
BRANCH  14  19
ATOM      3  O   UNL     1      14.313  10.836  14.200  0.00  0.00    -0.461 OA
ATOM     19  C   UNL     1      14.199  10.567  15.512  0.00  0.00    +0.119 A 
ATOM     21  C   UNL     1      15.251  11.012  16.236  0.00  0.00    +0.046 A 
ATOM     22  C   UNL     1      15.499  11.488  14.071  0.00  0.00    +0.131 A 
ATOM     23  C   UNL     1      16.113  11.621  15.293  0.00  0.00    +0.047 A 
BRANCH  22  26
ATOM     26  C   UNL     1      15.868  11.901  12.709  0.00  0.00    +0.230 C 
BRANCH  26   4
ATOM      4  O   UNL     1      14.749  11.656  11.854  0.00  0.00    -0.387 OA
ATOM     30  H   UNL     1      15.027  11.891  10.951  0.00  0.00    +0.210 HD
ENDBRANCH  26   4
ENDBRANCH  22  26
ENDBRANCH  14  19
ENDBRANCH   5  14
TORSDOF 5
ENDMDL
MODEL 3
REMARK VINA RESULT:      -6.8     24.380     26.368
REMARK  Name = 11885303
REMARK  5 active torsions:
REMARK  status: ('A' for Active; 'I' for Inactive)
REMARK    1  A    between atoms: O_4  and  C_26
REMARK    2  A    between atoms: N_5  and  C_14
REMARK    3  A    between atoms: C_14  and  C_19
REMARK    4  A    between atoms: C_17  and  C_20
REMARK    5  A    between atoms: C_22  and  C_26
REMARK                            x       y       z     vdW  Elec       q    Type
REMARK                         _______ _______ _______ _____ _____    ______ ____
ROOT
ATOM      2  O   UNL     1      12.203   7.826   2.455  0.00  0.00    -0.267 OA
ATOM      5  N   UNL     1      13.484   4.254  -0.822  0.00  0.00    -0.294 NA
ATOM      6  N   UNL     1      12.766   5.616   1.970  0.00  0.00    -0.311 N 
ATOM      7  C   UNL     1      15.047   4.947   1.011  0.00  0.00    +0.024 C 
ATOM      8  C   UNL     1      13.362   3.226   1.452  0.00  0.00    +0.050 C 
ATOM      9  C   UNL     1      14.805   3.634   1.742  0.00  0.00    +0.017 C 
ATOM     10  C   UNL     1      14.826   4.758  -0.505  0.00  0.00    +0.090 C 
ATOM     11  C   UNL     1      13.179   3.028  -0.071  0.00  0.00    +0.094 C 
ATOM     12  C   UNL     1      14.132   6.023   1.610  0.00  0.00    +0.130 C 
ATOM     13  C   UNL     1      12.392   4.270   1.971  0.00  0.00    +0.026 A 
ATOM     15  C   UNL     1      11.175   3.910   2.411  0.00  0.00    +0.022 A 
ATOM     16  C   UNL     1      11.897   6.634   2.410  0.00  0.00    +0.259 A 
ATOM     17  C   UNL     1      10.529   6.203   2.865  0.00  0.00    +0.047 A 
ATOM     18  C   UNL     1      10.231   4.894   2.858  0.00  0.00    +0.015 A 
ENDROOT
BRANCH  17  20
ATOM      1 CL   UNL     1       6.443  10.202   4.635  0.00  0.00    -0.084 Cl
ATOM     20  C   UNL     1       9.523   7.187   3.301  0.00  0.00    -0.013 A 
ATOM     24  C   UNL     1       8.835   7.947   2.355  0.00  0.00    +0.010 A 
ATOM     25  C   UNL     1       9.258   7.361   4.660  0.00  0.00    +0.010 A 
ATOM     27  C   UNL     1       7.882   8.879   2.768  0.00  0.00    +0.020 A 
ATOM     28  C   UNL     1       8.306   8.293   5.073  0.00  0.00    +0.020 A 
ATOM     29  C   UNL     1       7.618   9.051   4.126  0.00  0.00    +0.041 A 
ENDBRANCH  17  20
BRANCH   5  14
ATOM     14  C   UNL     1      13.332   4.037  -2.260  0.00  0.00    +0.158 C 
BRANCH  14  19
ATOM      3  O   UNL     1      11.454   2.850  -3.176  0.00  0.00    -0.461 OA
ATOM     19  C   UNL     1      11.881   4.012  -2.653  0.00  0.00    +0.119 A 
ATOM     21  C   UNL     1      10.906   4.948  -2.581  0.00  0.00    +0.046 A 
ATOM     22  C   UNL     1      10.139   3.045  -3.457  0.00  0.00    +0.131 A 
ATOM     23  C   UNL     1       9.754   4.318  -3.109  0.00  0.00    +0.047 A 
BRANCH  22  26
ATOM     26  C   UNL     1       9.425   1.905  -4.049  0.00  0.00    +0.230 C 
BRANCH  26   4
ATOM      4  O   UNL     1       9.113   0.985  -3.000  0.00  0.00    -0.387 OA
ATOM     30  H   UNL     1       8.150   1.019  -2.871  0.00  0.00    +0.210 HD
ENDBRANCH  26   4
ENDBRANCH  22  26
ENDBRANCH  14  19
ENDBRANCH   5  14
TORSDOF 5
ENDMDL
MODEL 4
REMARK VINA RESULT:      -6.6     23.323     25.087
REMARK  Name = 11885303
REMARK  5 active torsions:
REMARK  status: ('A' for Active; 'I' for Inactive)
REMARK    1  A    between atoms: O_4  and  C_26
REMARK    2  A    between atoms: N_5  and  C_14
REMARK    3  A    between atoms: C_14  and  C_19
REMARK    4  A    between atoms: C_17  and  C_20
REMARK    5  A    between atoms: C_22  and  C_26
REMARK                            x       y       z     vdW  Elec       q    Type
REMARK                         _______ _______ _______ _____ _____    ______ ____
ROOT
ATOM      2  O   UNL     1      10.179   3.955   3.279  0.00  0.00    -0.267 OA
ATOM      5  N   UNL     1       9.346   8.171   5.862  0.00  0.00    -0.294 NA
ATOM      6  N   UNL     1      10.911   5.642   4.712  0.00  0.00    -0.311 N 
ATOM      7  C   UNL     1       9.895   6.024   7.034  0.00  0.00    +0.024 C 
ATOM      8  C   UNL     1      11.712   7.467   6.250  0.00  0.00    +0.050 C 
ATOM      9  C   UNL     1      11.279   6.549   7.391  0.00  0.00    +0.017 C 
ATOM     10  C   UNL     1       8.908   7.199   6.872  0.00  0.00    +0.090 C 
ATOM     11  C   UNL     1      10.713   8.641   6.126  0.00  0.00    +0.094 C 
ATOM     12  C   UNL     1      10.003   5.166   5.766  0.00  0.00    +0.130 C 
ATOM     13  C   UNL     1      11.793   6.700   4.944  0.00  0.00    +0.026 A 
ATOM     15  C   UNL     1      12.692   7.045   4.007  0.00  0.00    +0.022 A 
ATOM     16  C   UNL     1      10.918   4.914   3.506  0.00  0.00    +0.259 A 
ATOM     17  C   UNL     1      11.912   5.346   2.462  0.00  0.00    +0.047 A 
ATOM     18  C   UNL     1      12.745   6.360   2.747  0.00  0.00    +0.015 A 
ENDROOT
BRANCH  17  20
ATOM      1 CL   UNL     1      12.171   2.661  -2.880  0.00  0.00    -0.084 Cl
ATOM     20  C   UNL     1      11.975   4.686   1.147  0.00  0.00    -0.013 A 
ATOM     24  C   UNL     1      13.011   3.794   0.863  0.00  0.00    +0.010 A 
ATOM     25  C   UNL     1      11.001   4.950   0.184  0.00  0.00    +0.010 A 
ATOM     27  C   UNL     1      13.071   3.168  -0.382  0.00  0.00    +0.020 A 
ATOM     28  C   UNL     1      11.061   4.324  -1.061  0.00  0.00    +0.020 A 
ATOM     29  C   UNL     1      12.096   3.433  -1.344  0.00  0.00    +0.041 A 
ENDBRANCH  17  20
BRANCH   5  14
ATOM     14  C   UNL     1       8.414   9.294   5.777  0.00  0.00    +0.158 C 
BRANCH  14  19
ATOM      3  O   UNL     1       6.539   9.955   4.428  0.00  0.00    -0.461 OA
ATOM     19  C   UNL     1       7.726   9.326   4.440  0.00  0.00    +0.119 A 
ATOM     21  C   UNL     1       8.076   8.836   3.228  0.00  0.00    +0.046 A 
ATOM     22  C   UNL     1       6.100   9.868   3.144  0.00  0.00    +0.131 A 
ATOM     23  C   UNL     1       7.009   9.189   2.368  0.00  0.00    +0.047 A 
BRANCH  22  26
ATOM     26  C   UNL     1       4.799  10.490   2.859  0.00  0.00    +0.230 C 
BRANCH  26   4
ATOM      4  O   UNL     1       3.990   9.530   2.176  0.00  0.00    -0.387 OA
ATOM     30  H   UNL     1       3.357   9.179   2.827  0.00  0.00    +0.210 HD
ENDBRANCH  26   4
ENDBRANCH  22  26
ENDBRANCH  14  19
ENDBRANCH   5  14
TORSDOF 5
ENDMDL
MODEL 5
REMARK VINA RESULT:      -6.5      4.056      6.775
REMARK  Name = 11885303
REMARK  5 active torsions:
REMARK  status: ('A' for Active; 'I' for Inactive)
REMARK    1  A    between atoms: O_4  and  C_26
REMARK    2  A    between atoms: N_5  and  C_14
REMARK    3  A    between atoms: C_14  and  C_19
REMARK    4  A    between atoms: C_17  and  C_20
REMARK    5  A    between atoms: C_22  and  C_26
REMARK                            x       y       z     vdW  Elec       q    Type
REMARK                         _______ _______ _______ _____ _____    ______ ____
ROOT
ATOM      2  O   UNL     1      -6.630 -10.466  14.245  0.00  0.00    -0.267 OA
ATOM      5  N   UNL     1      -2.445 -13.023  13.200  0.00  0.00    -0.294 NA
ATOM      6  N   UNL     1      -4.306 -10.657  14.254  0.00  0.00    -0.311 N 
ATOM      7  C   UNL     1      -2.922 -10.820  12.102  0.00  0.00    +0.024 C 
ATOM      8  C   UNL     1      -1.797 -10.863  14.277  0.00  0.00    +0.050 C 
ATOM      9  C   UNL     1      -1.832 -10.150  12.928  0.00  0.00    +0.017 C 
ATOM     10  C   UNL     1      -2.603 -12.319  11.922  0.00  0.00    +0.090 C 
ATOM     11  C   UNL     1      -1.458 -12.356  14.063  0.00  0.00    +0.094 C 
ATOM     12  C   UNL     1      -4.276 -10.585  12.786  0.00  0.00    +0.130 C 
ATOM     13  C   UNL     1      -3.125 -10.719  14.997  0.00  0.00    +0.026 A 
ATOM     15  C   UNL     1      -3.170 -10.671  16.338  0.00  0.00    +0.022 A 
ATOM     16  C   UNL     1      -5.570 -10.556  14.867  0.00  0.00    +0.259 A 
ATOM     17  C   UNL     1      -5.591 -10.539  16.372  0.00  0.00    +0.047 A 
ATOM     18  C   UNL     1      -4.424 -10.586  17.032  0.00  0.00    +0.015 A 
ENDROOT
BRANCH  17  20
ATOM      1 CL   UNL     1     -10.747 -10.312  19.404  0.00  0.00    -0.084 Cl
ATOM     20  C   UNL     1      -6.860 -10.483  17.118  0.00  0.00    -0.013 A 
ATOM     24  C   UNL     1      -7.287 -11.589  17.854  0.00  0.00    +0.010 A 
ATOM     25  C   UNL     1      -7.638  -9.324  17.090  0.00  0.00    +0.010 A 
ATOM     27  C   UNL     1      -8.488 -11.536  18.560  0.00  0.00    +0.020 A 
ATOM     28  C   UNL     1      -8.839  -9.271  17.797  0.00  0.00    +0.020 A 
ATOM     29  C   UNL     1      -9.264 -10.377  18.532  0.00  0.00    +0.041 A 
ENDBRANCH  17  20
BRANCH   5  14
ATOM     14  C   UNL     1      -2.090 -14.424  12.987  0.00  0.00    +0.158 C 
BRANCH  14  19
ATOM      3  O   UNL     1      -3.551 -14.844  14.849  0.00  0.00    -0.461 OA
ATOM     19  C   UNL     1      -2.465 -15.265  14.177  0.00  0.00    +0.119 A 
ATOM     21  C   UNL     1      -1.913 -16.378  14.711  0.00  0.00    +0.046 A 
ATOM     22  C   UNL     1      -3.707 -15.730  15.868  0.00  0.00    +0.131 A 
ATOM     23  C   UNL     1      -2.725 -16.692  15.826  0.00  0.00    +0.047 A 
BRANCH  22  26
ATOM     26  C   UNL     1      -4.845 -15.492  16.767  0.00  0.00    +0.230 C 
BRANCH  26   4
ATOM      4  O   UNL     1      -4.457 -14.497  17.717  0.00  0.00    -0.387 OA
ATOM     30  H   UNL     1      -4.168 -13.719  17.209  0.00  0.00    +0.210 HD
ENDBRANCH  26   4
ENDBRANCH  22  26
ENDBRANCH  14  19
ENDBRANCH   5  14
TORSDOF 5
ENDMDL
MODEL 6
REMARK VINA RESULT:      -6.4     23.753     25.856
REMARK  Name = 11885303
REMARK  5 active torsions:
REMARK  status: ('A' for Active; 'I' for Inactive)
REMARK    1  A    between atoms: O_4  and  C_26
REMARK    2  A    between atoms: N_5  and  C_14
REMARK    3  A    between atoms: C_14  and  C_19
REMARK    4  A    between atoms: C_17  and  C_20
REMARK    5  A    between atoms: C_22  and  C_26
REMARK                            x       y       z     vdW  Elec       q    Type
REMARK                         _______ _______ _______ _____ _____    ______ ____
ROOT
ATOM      2  O   UNL     1      10.127   7.118   1.722  0.00  0.00    -0.267 OA
ATOM      5  N   UNL     1      11.111   8.247   6.507  0.00  0.00    -0.294 NA
ATOM      6  N   UNL     1       9.755   6.812   4.003  0.00  0.00    -0.311 N 
ATOM      7  C   UNL     1       8.847   8.669   5.518  0.00  0.00    +0.024 C 
ATOM      8  C   UNL     1       9.357   6.469   6.465  0.00  0.00    +0.050 C 
ATOM      9  C   UNL     1       8.258   7.520   6.325  0.00  0.00    +0.017 C 
ATOM     10  C   UNL     1      10.075   9.254   6.248  0.00  0.00    +0.090 C 
ATOM     11  C   UNL     1      10.564   7.080   7.213  0.00  0.00    +0.094 C 
ATOM     12  C   UNL     1       9.184   8.163   4.110  0.00  0.00    +0.130 C 
ATOM     13  C   UNL     1       9.784   5.953   5.104  0.00  0.00    +0.026 A 
ATOM     15  C   UNL     1      10.206   4.686   4.958  0.00  0.00    +0.022 A 
ATOM     16  C   UNL     1      10.170   6.400   2.721  0.00  0.00    +0.259 A 
ATOM     17  C   UNL     1      10.670   4.986   2.596  0.00  0.00    +0.047 A 
ATOM     18  C   UNL     1      10.660   4.201   3.685  0.00  0.00    +0.015 A 
ENDROOT
BRANCH  17  20
ATOM      1 CL   UNL     1      12.710   2.861  -2.614  0.00  0.00    -0.084 Cl
ATOM     20  C   UNL     1      11.171   4.463   1.314  0.00  0.00    -0.013 A 
ATOM     24  C   UNL     1      12.419   3.840   1.254  0.00  0.00    +0.010 A 
ATOM     25  C   UNL     1      10.401   4.590   0.157  0.00  0.00    +0.010 A 
ATOM     27  C   UNL     1      12.894   3.345   0.040  0.00  0.00    +0.020 A 
ATOM     28  C   UNL     1      10.876   4.094  -1.057  0.00  0.00    +0.020 A 
ATOM     29  C   UNL     1      12.123   3.472  -1.115  0.00  0.00    +0.041 A 
ENDBRANCH  17  20
BRANCH   5  14
ATOM     14  C   UNL     1      12.231   8.827   7.245  0.00  0.00    +0.158 C 
BRANCH  14  19
ATOM      3  O   UNL     1      13.497   8.009   5.373  0.00  0.00    -0.461 OA
ATOM     19  C   UNL     1      13.470   8.884   6.393  0.00  0.00    +0.119 A 
ATOM     21  C   UNL     1      14.578   9.657   6.455  0.00  0.00    +0.046 A 
ATOM     22  C   UNL     1      14.683   8.227   4.746  0.00  0.00    +0.131 A 
ATOM     23  C   UNL     1      15.384   9.230   5.373  0.00  0.00    +0.047 A 
BRANCH  22  26
ATOM     26  C   UNL     1      14.963   7.384   3.575  0.00  0.00    +0.230 C 
BRANCH  26   4
ATOM      4  O   UNL     1      15.497   6.143   4.040  0.00  0.00    -0.387 OA
ATOM     30  H   UNL     1      15.539   5.547   3.272  0.00  0.00    +0.210 HD
ENDBRANCH  26   4
ENDBRANCH  22  26
ENDBRANCH  14  19
ENDBRANCH   5  14
TORSDOF 5
ENDMDL
MODEL 7
REMARK VINA RESULT:      -6.4     20.907     23.461
REMARK  Name = 11885303
REMARK  5 active torsions:
REMARK  status: ('A' for Active; 'I' for Inactive)
REMARK    1  A    between atoms: O_4  and  C_26
REMARK    2  A    between atoms: N_5  and  C_14
REMARK    3  A    between atoms: C_14  and  C_19
REMARK    4  A    between atoms: C_17  and  C_20
REMARK    5  A    between atoms: C_22  and  C_26
REMARK                            x       y       z     vdW  Elec       q    Type
REMARK                         _______ _______ _______ _____ _____    ______ ____
ROOT
ATOM      2  O   UNL     1       9.073 -11.825  31.940  0.00  0.00    -0.267 OA
ATOM      5  N   UNL     1       7.010  -8.518  35.095  0.00  0.00    -0.294 NA
ATOM      6  N   UNL     1       8.466  -9.642  32.490  0.00  0.00    -0.311 N 
ATOM      7  C   UNL     1       9.444  -8.400  34.507  0.00  0.00    +0.024 C 
ATOM      8  C   UNL     1       7.803  -7.284  33.072  0.00  0.00    +0.050 C 
ATOM      9  C   UNL     1       9.202  -7.151  33.669  0.00  0.00    +0.017 C 
ATOM     10  C   UNL     1       8.381  -8.505  35.620  0.00  0.00    +0.090 C 
ATOM     11  C   UNL     1       6.762  -7.369  34.211  0.00  0.00    +0.094 C 
ATOM     12  C   UNL     1       9.451  -9.623  33.582  0.00  0.00    +0.130 C 
ATOM     13  C   UNL     1       7.713  -8.507  32.179  0.00  0.00    +0.026 A 
ATOM     15  C   UNL     1       6.902  -8.510  31.108  0.00  0.00    +0.022 A 
ATOM     16  C   UNL     1       8.400 -10.818  31.717  0.00  0.00    +0.259 A 
ATOM     17  C   UNL     1       7.457 -10.802  30.544  0.00  0.00    +0.047 A 
ATOM     18  C   UNL     1       6.770  -9.678  30.285  0.00  0.00    +0.015 A 
ENDROOT
BRANCH  17  20
ATOM      1 CL   UNL     1       6.714 -15.636  27.093  0.00  0.00    -0.084 Cl
ATOM     20  C   UNL     1       7.273 -11.992  29.695  0.00  0.00    -0.013 A 
ATOM     24  C   UNL     1       8.121 -12.211  28.608  0.00  0.00    +0.010 A 
ATOM     25  C   UNL     1       6.253 -12.902  29.976  0.00  0.00    +0.010 A 
ATOM     27  C   UNL     1       7.948 -13.338  27.804  0.00  0.00    +0.020 A 
ATOM     28  C   UNL     1       6.080 -14.028  29.172  0.00  0.00    +0.020 A 
ATOM     29  C   UNL     1       6.928 -14.246  28.086  0.00  0.00    +0.041 A 
ENDBRANCH  17  20
BRANCH   5  14
ATOM     14  C   UNL     1       6.033  -8.564  36.180  0.00  0.00    +0.158 C 
BRANCH  14  19
ATOM      3  O   UNL     1       3.711  -9.176  36.282  0.00  0.00    -0.461 OA
ATOM     19  C   UNL     1       4.939  -9.552  35.882  0.00  0.00    +0.119 A 
ATOM     21  C   UNL     1       4.950 -10.763  35.281  0.00  0.00    +0.046 A 
ATOM     22  C   UNL     1       2.889 -10.197  35.921  0.00  0.00    +0.131 A 
ATOM     23  C   UNL     1       3.603 -11.196  35.302  0.00  0.00    +0.047 A 
BRANCH  22  26
ATOM     26  C   UNL     1       1.466 -10.032  36.250  0.00  0.00    +0.230 C 
BRANCH  26   4
ATOM      4  O   UNL     1       1.264  -8.683  36.675  0.00  0.00    -0.387 OA
ATOM     30  H   UNL     1       1.449  -8.657  37.630  0.00  0.00    +0.210 HD
ENDBRANCH  26   4
ENDBRANCH  22  26
ENDBRANCH  14  19
ENDBRANCH   5  14
TORSDOF 5
ENDMDL
MODEL 8
REMARK VINA RESULT:      -6.3     19.194     22.158
REMARK  Name = 11885303
REMARK  5 active torsions:
REMARK  status: ('A' for Active; 'I' for Inactive)
REMARK    1  A    between atoms: O_4  and  C_26
REMARK    2  A    between atoms: N_5  and  C_14
REMARK    3  A    between atoms: C_14  and  C_19
REMARK    4  A    between atoms: C_17  and  C_20
REMARK    5  A    between atoms: C_22  and  C_26
REMARK                            x       y       z     vdW  Elec       q    Type
REMARK                         _______ _______ _______ _____ _____    ______ ____
ROOT
ATOM      2  O   UNL     1      -6.520   9.619   5.616  0.00  0.00    -0.267 OA
ATOM      5  N   UNL     1      -1.848  10.603   4.083  0.00  0.00    -0.294 NA
ATOM      6  N   UNL     1      -4.221   9.247   5.726  0.00  0.00    -0.311 N 
ATOM      7  C   UNL     1      -2.558  11.061   6.444  0.00  0.00    +0.024 C 
ATOM      8  C   UNL     1      -1.741   8.831   5.843  0.00  0.00    +0.050 C 
ATOM      9  C   UNL     1      -1.723   9.889   6.943  0.00  0.00    +0.017 C 
ATOM     10  C   UNL     1      -1.957  11.619   5.136  0.00  0.00    +0.090 C 
ATOM     11  C   UNL     1      -1.118   9.417   4.554  0.00  0.00    +0.094 C 
ATOM     12  C   UNL     1      -4.010  10.595   6.273  0.00  0.00    +0.130 C 
ATOM     13  C   UNL     1      -3.156   8.355   5.577  0.00  0.00    +0.026 A 
ATOM     15  C   UNL     1      -3.387   7.092   5.183  0.00  0.00    +0.022 A 
ATOM     16  C   UNL     1      -5.553   8.871   5.463  0.00  0.00    +0.259 A 
ATOM     17  C   UNL     1      -5.776   7.460   4.990  0.00  0.00    +0.047 A 
ATOM     18  C   UNL     1      -4.716   6.643   4.881  0.00  0.00    +0.015 A 
ENDROOT
BRANCH  17  20
ATOM      1 CL   UNL     1     -11.246   5.484   3.578  0.00  0.00    -0.084 Cl
ATOM     20  C   UNL     1      -7.122   6.974   4.642  0.00  0.00    -0.013 A 
ATOM     24  C   UNL     1      -7.734   5.993   5.424  0.00  0.00    +0.010 A 
ATOM     25  C   UNL     1      -7.788   7.493   3.531  0.00  0.00    +0.010 A 
ATOM     27  C   UNL     1      -9.009   5.533   5.095  0.00  0.00    +0.020 A 
ATOM     28  C   UNL     1      -9.063   7.033   3.202  0.00  0.00    +0.020 A 
ATOM     29  C   UNL     1      -9.673   6.053   3.984  0.00  0.00    +0.041 A 
ENDBRANCH  17  20
BRANCH   5  14
ATOM     14  C   UNL     1      -1.226  11.156   2.883  0.00  0.00    +0.158 C 
BRANCH  14  19
ATOM      3  O   UNL     1      -2.982  10.685   1.310  0.00  0.00    -0.461 OA
ATOM     19  C   UNL     1      -1.703  10.442   1.648  0.00  0.00    +0.119 A 
ATOM     21  C   UNL     1      -1.086   9.590   0.798  0.00  0.00    +0.046 A 
ATOM     22  C   UNL     1      -3.201   9.952   0.186  0.00  0.00    +0.131 A 
ATOM     23  C   UNL     1      -2.066   9.261  -0.169  0.00  0.00    +0.047 A 
BRANCH  22  26
ATOM     26  C   UNL     1      -4.547  10.043  -0.396  0.00  0.00    +0.230 C 
BRANCH  26   4
ATOM      4  O   UNL     1      -4.532   9.362  -1.653  0.00  0.00    -0.387 OA
ATOM     30  H   UNL     1      -3.945   8.593  -1.551  0.00  0.00    +0.210 HD
ENDBRANCH  26   4
ENDBRANCH  22  26
ENDBRANCH  14  19
ENDBRANCH   5  14
TORSDOF 5
ENDMDL
MODEL 9
REMARK VINA RESULT:      -6.1     24.612     26.631
REMARK  Name = 11885303
REMARK  5 active torsions:
REMARK  status: ('A' for Active; 'I' for Inactive)
REMARK    1  A    between atoms: O_4  and  C_26
REMARK    2  A    between atoms: N_5  and  C_14
REMARK    3  A    between atoms: C_14  and  C_19
REMARK    4  A    between atoms: C_17  and  C_20
REMARK    5  A    between atoms: C_22  and  C_26
REMARK                            x       y       z     vdW  Elec       q    Type
REMARK                         _______ _______ _______ _____ _____    ______ ____
ROOT
ATOM      2  O   UNL     1     -10.622 -10.861  39.364  0.00  0.00    -0.267 OA
ATOM      5  N   UNL     1      -6.981  -7.474  40.007  0.00  0.00    -0.294 NA
ATOM      6  N   UNL     1      -8.365 -10.278  39.379  0.00  0.00    -0.311 N 
ATOM      7  C   UNL     1      -7.154  -9.485  41.494  0.00  0.00    +0.024 C 
ATOM      8  C   UNL     1      -5.927  -9.652  39.382  0.00  0.00    +0.050 C 
ATOM      9  C   UNL     1      -5.923 -10.099  40.841  0.00  0.00    +0.017 C 
ATOM     10  C   UNL     1      -7.096  -7.946  41.392  0.00  0.00    +0.090 C 
ATOM     11  C   UNL     1      -5.850  -8.109  39.314  0.00  0.00    +0.094 C 
ATOM     12  C   UNL     1      -8.409 -10.071  40.834  0.00  0.00    +0.130 C 
ATOM     13  C   UNL     1      -7.169 -10.152  38.668  0.00  0.00    +0.026 A 
ATOM     15  C   UNL     1      -7.127 -10.454  37.360  0.00  0.00    +0.022 A 
ATOM     16  C   UNL     1      -9.558 -10.706  38.764  0.00  0.00    +0.259 A 
ATOM     17  C   UNL     1      -9.488 -11.005  37.290  0.00  0.00    +0.047 A 
ATOM     18  C   UNL     1      -8.308 -10.881  36.664  0.00  0.00    +0.015 A 
ENDROOT
BRANCH  17  20
ATOM      1 CL   UNL     1     -14.350 -12.676  34.226  0.00  0.00    -0.084 Cl
ATOM     20  C   UNL     1     -10.685 -11.415  36.536  0.00  0.00    -0.013 A 
ATOM     24  C   UNL     1     -10.717 -12.657  35.900  0.00  0.00    +0.010 A 
ATOM     25  C   UNL     1     -11.788 -10.564  36.456  0.00  0.00    +0.010 A 
ATOM     27  C   UNL     1     -11.850 -13.047  35.187  0.00  0.00    +0.020 A 
ATOM     28  C   UNL     1     -12.921 -10.954  35.742  0.00  0.00    +0.020 A 
ATOM     29  C   UNL     1     -12.952 -12.195  35.108  0.00  0.00    +0.041 A 
ENDBRANCH  17  20
BRANCH   5  14
ATOM     14  C   UNL     1      -6.874  -6.018  39.956  0.00  0.00    +0.158 C 
BRANCH  14  19
ATOM      3  O   UNL     1      -8.215  -4.042  39.684  0.00  0.00    -0.461 OA
ATOM     19  C   UNL     1      -8.229  -5.381  39.808  0.00  0.00    +0.119 A 
ATOM     21  C   UNL     1      -9.477  -5.901  39.776  0.00  0.00    +0.046 A 
ATOM     22  C   UNL     1      -9.520  -3.680  39.566  0.00  0.00    +0.131 A 
ATOM     23  C   UNL     1     -10.335  -4.787  39.617  0.00  0.00    +0.047 A 
BRANCH  22  26
ATOM     26  C   UNL     1      -9.784  -2.243  39.413  0.00  0.00    +0.230 C 
BRANCH  26   4
ATOM      4  O   UNL     1      -8.549  -1.545  39.583  0.00  0.00    -0.387 OA
ATOM     30  H   UNL     1      -8.770  -0.610  39.738  0.00  0.00    +0.210 HD
ENDBRANCH  26   4
ENDBRANCH  22  26
ENDBRANCH  14  19
ENDBRANCH   5  14
TORSDOF 5
ENDMDL
MODEL 10
REMARK VINA RESULT:      -6.1      7.036     11.189
REMARK  Name = 11885303
REMARK  5 active torsions:
REMARK  status: ('A' for Active; 'I' for Inactive)
REMARK    1  A    between atoms: O_4  and  C_26
REMARK    2  A    between atoms: N_5  and  C_14
REMARK    3  A    between atoms: C_14  and  C_19
REMARK    4  A    between atoms: C_17  and  C_20
REMARK    5  A    between atoms: C_22  and  C_26
REMARK                            x       y       z     vdW  Elec       q    Type
REMARK                         _______ _______ _______ _____ _____    ______ ____
ROOT
ATOM      2  O   UNL     1     -13.064  -8.182  12.350  0.00  0.00    -0.267 OA
ATOM      5  N   UNL     1     -10.621  -5.287   9.065  0.00  0.00    -0.294 NA
ATOM      6  N   UNL     1     -12.750  -6.133  11.283  0.00  0.00    -0.311 N 
ATOM      7  C   UNL     1     -13.049  -5.828   8.756  0.00  0.00    +0.024 C 
ATOM      8  C   UNL     1     -12.408  -3.914  10.143  0.00  0.00    +0.050 C 
ATOM      9  C   UNL     1     -13.434  -4.401   9.123  0.00  0.00    +0.017 C 
ATOM     10  C   UNL     1     -11.626  -5.855   8.159  0.00  0.00    +0.090 C 
ATOM     11  C   UNL     1     -10.999  -3.937   9.509  0.00  0.00    +0.094 C 
ATOM     12  C   UNL     1     -13.181  -6.712  10.003  0.00  0.00    +0.130 C 
ATOM     13  C   UNL     1     -12.442  -4.774  11.393  0.00  0.00    +0.026 A 
ATOM     15  C   UNL     1     -12.159  -4.242  12.593  0.00  0.00    +0.022 A 
ATOM     16  C   UNL     1     -12.765  -6.988  12.403  0.00  0.00    +0.259 A 
ATOM     17  C   UNL     1     -12.410  -6.370  13.729  0.00  0.00    +0.047 A 
ATOM     18  C   UNL     1     -12.138  -5.057  13.775  0.00  0.00    +0.015 A 
ENDROOT
BRANCH  17  20
ATOM      1 CL   UNL     1     -12.166  -9.664  18.720  0.00  0.00    -0.084 Cl
ATOM     20  C   UNL     1     -12.349  -7.181  14.957  0.00  0.00    -0.013 A 
ATOM     24  C   UNL     1     -13.525  -7.662  15.534  0.00  0.00    +0.010 A 
ATOM     25  C   UNL     1     -11.117  -7.468  15.546  0.00  0.00    +0.010 A 
ATOM     27  C   UNL     1     -13.469  -8.430  16.697  0.00  0.00    +0.020 A 
ATOM     28  C   UNL     1     -11.060  -8.236  16.709  0.00  0.00    +0.020 A 
ATOM     29  C   UNL     1     -12.236  -8.717  17.284  0.00  0.00    +0.041 A 
ENDBRANCH  17  20
BRANCH   5  14
ATOM     14  C   UNL     1      -9.299  -5.282   8.443  0.00  0.00    +0.158 C 
BRANCH  14  19
ATOM      3  O   UNL     1      -8.226  -6.928   7.059  0.00  0.00    -0.461 OA
ATOM     19  C   UNL     1      -8.782  -6.682   8.258  0.00  0.00    +0.119 A 
ATOM     21  C   UNL     1      -8.768  -7.759   9.076  0.00  0.00    +0.046 A 
ATOM     22  C   UNL     1      -7.834  -8.229   7.105  0.00  0.00    +0.131 A 
ATOM     23  C   UNL     1      -8.145  -8.783   8.324  0.00  0.00    +0.047 A 
BRANCH  22  26
ATOM     26  C   UNL     1      -7.186  -8.755   5.896  0.00  0.00    +0.230 C 
BRANCH  26   4
ATOM      4  O   UNL     1      -7.035  -7.678   4.969  0.00  0.00    -0.387 OA
ATOM     30  H   UNL     1      -7.931  -7.413   4.696  0.00  0.00    +0.210 HD
ENDBRANCH  26   4
ENDBRANCH  22  26
ENDBRANCH  14  19
ENDBRANCH   5  14
TORSDOF 5
ENDMDL
