MODEL 1
REMARK VINA RESULT:      -7.3      0.000      0.000
REMARK  Name = 75537095
REMARK  5 active torsions:
REMARK  status: ('A' for Active; 'I' for Inactive)
REMARK    1  A    between atoms: N_4  and  C_13
REMARK    2  A    between atoms: N_5  and  C_14
REMARK    3  A    between atoms: C_13  and  C_15
REMARK    4  A    between atoms: C_14  and  C_16
REMARK    5  A    between atoms: C_17  and  C_21
REMARK                            x       y       z     vdW  Elec       q    Type
REMARK                         _______ _______ _______ _____ _____    ______ ____
ROOT
ATOM      2  O   UNL     1     -17.120   2.125  22.389  0.00  0.00    -0.252 OA
ATOM      3  N   UNL     1     -16.486   2.332  24.642  0.00  0.00    -0.278 N 
ATOM      4  N   UNL     1     -16.610   2.061  27.439  0.00  0.00    -0.293 NA
ATOM      5  N   UNL     1     -16.293   4.132  23.312  0.00  0.00    -0.279 N 
ATOM      7  C   UNL     1     -15.846   3.330  25.473  0.00  0.00    +0.109 C 
ATOM      8  C   UNL     1     -16.532   3.407  26.836  0.00  0.00    +0.109 C 
ATOM      9  C   UNL     1     -15.931   4.605  24.637  0.00  0.00    +0.133 C 
ATOM     10  C   UNL     1     -16.746   1.016  25.188  0.00  0.00    +0.125 C 
ATOM     11  C   UNL     1     -17.378   1.141  26.576  0.00  0.00    +0.104 C 
ATOM     12  C   UNL     1     -16.684   2.778  23.328  0.00  0.00    +0.305 C 
ENDROOT
BRANCH   4  13
ATOM     13  C   UNL     1     -17.210   2.134  28.770  0.00  0.00    +0.140 C 
BRANCH  13  15
ATOM      6  N   UNL     1     -16.159   0.229  29.822  0.00  0.00    -0.258 NA
ATOM     15  C   UNL     1     -16.305   1.572  29.827  0.00  0.00    +0.058 A 
ATOM     17  C   UNL     1     -15.682   2.417  30.732  0.00  0.00    -0.028 A 
ATOM     20  C   UNL     1     -14.855   1.845  31.694  0.00  0.00    +0.006 A 
ATOM     21  C   UNL     1     -15.874   3.894  30.699  0.00  0.00    +0.045 C 
ATOM     24  C   UNL     1     -15.348  -0.291  30.770  0.00  0.00    +0.111 A 
ATOM     25  C   UNL     1     -14.680   0.466  31.720  0.00  0.00    +0.020 A 
ENDBRANCH  13  15
ENDBRANCH   4  13
BRANCH   5  14
ATOM     14  C   UNL     1     -16.374   5.022  22.175  0.00  0.00    +0.144 C 
BRANCH  14  16
ATOM      1  F   UNL     1     -11.344   7.150  20.805  0.00  0.00    -0.205 F 
ATOM     16  C   UNL     1     -15.032   5.589  21.810  0.00  0.00    -0.030 A 
ATOM     18  C   UNL     1     -13.867   4.923  22.189  0.00  0.00    +0.008 A 
ATOM     19  C   UNL     1     -14.952   6.783  21.091  0.00  0.00    +0.008 A 
ATOM     22  C   UNL     1     -12.621   5.451  21.849  0.00  0.00    +0.038 A 
ATOM     23  C   UNL     1     -13.706   7.310  20.753  0.00  0.00    +0.038 A 
ATOM     26  C   UNL     1     -12.541   6.644  21.131  0.00  0.00    +0.123 A 
ENDBRANCH  14  16
ENDBRANCH   5  14
TORSDOF 4
ENDMDL
MODEL 2
REMARK VINA RESULT:      -7.1     31.018     33.837
REMARK  Name = 75537095
REMARK  5 active torsions:
REMARK  status: ('A' for Active; 'I' for Inactive)
REMARK    1  A    between atoms: N_4  and  C_13
REMARK    2  A    between atoms: N_5  and  C_14
REMARK    3  A    between atoms: C_13  and  C_15
REMARK    4  A    between atoms: C_14  and  C_16
REMARK    5  A    between atoms: C_17  and  C_21
REMARK                            x       y       z     vdW  Elec       q    Type
REMARK                         _______ _______ _______ _____ _____    ______ ____
ROOT
ATOM      2  O   UNL     1      15.905   9.676  20.403  0.00  0.00    -0.252 OA
ATOM      3  N   UNL     1      17.402   7.947  20.938  0.00  0.00    -0.278 N 
ATOM      4  N   UNL     1      19.854   6.631  21.352  0.00  0.00    -0.293 NA
ATOM      5  N   UNL     1      15.635   7.460  19.640  0.00  0.00    -0.279 N 
ATOM      7  C   UNL     1      17.468   6.511  20.758  0.00  0.00    +0.109 C 
ATOM      8  C   UNL     1      18.886   6.088  20.377  0.00  0.00    +0.109 C 
ATOM      9  C   UNL     1      16.407   6.231  19.696  0.00  0.00    +0.133 C 
ATOM     10  C   UNL     1      18.398   8.604  21.760  0.00  0.00    +0.125 C 
ATOM     11  C   UNL     1      19.796   8.107  21.385  0.00  0.00    +0.104 C 
ATOM     12  C   UNL     1      16.266   8.509  20.340  0.00  0.00    +0.305 C 
ENDROOT
BRANCH   4  13
ATOM     13  C   UNL     1      21.207   6.181  21.030  0.00  0.00    +0.140 C 
BRANCH  13  15
ATOM      6  N   UNL     1      22.276   6.158  23.198  0.00  0.00    -0.258 NA
ATOM     15  C   UNL     1      21.830   5.415  22.161  0.00  0.00    +0.058 A 
ATOM     17  C   UNL     1      21.920   4.033  22.101  0.00  0.00    -0.028 A 
ATOM     20  C   UNL     1      22.508   3.372  23.175  0.00  0.00    +0.006 A 
ATOM     21  C   UNL     1      21.414   3.256  20.936  0.00  0.00    +0.045 C 
ATOM     24  C   UNL     1      22.841   5.482  24.223  0.00  0.00    +0.111 A 
ATOM     25  C   UNL     1      22.979   4.103  24.260  0.00  0.00    +0.020 A 
ENDBRANCH  13  15
ENDBRANCH   4  13
BRANCH   5  14
ATOM     14  C   UNL     1      14.447   7.584  18.824  0.00  0.00    +0.144 C 
BRANCH  14  16
ATOM      1  F   UNL     1       9.749   7.541  21.926  0.00  0.00    -0.205 F 
ATOM     16  C   UNL     1      13.194   7.572  19.651  0.00  0.00    -0.030 A 
ATOM     18  C   UNL     1      12.170   8.479  19.378  0.00  0.00    +0.008 A 
ATOM     19  C   UNL     1      13.054   6.655  20.693  0.00  0.00    +0.008 A 
ATOM     22  C   UNL     1      11.006   8.468  20.146  0.00  0.00    +0.038 A 
ATOM     23  C   UNL     1      11.891   6.645  21.462  0.00  0.00    +0.038 A 
ATOM     26  C   UNL     1      10.867   7.551  21.188  0.00  0.00    +0.123 A 
ENDBRANCH  14  16
ENDBRANCH   5  14
TORSDOF 4
ENDMDL
MODEL 3
REMARK VINA RESULT:      -6.7     15.389     16.836
REMARK  Name = 75537095
REMARK  5 active torsions:
REMARK  status: ('A' for Active; 'I' for Inactive)
REMARK    1  A    between atoms: N_4  and  C_13
REMARK    2  A    between atoms: N_5  and  C_14
REMARK    3  A    between atoms: C_13  and  C_15
REMARK    4  A    between atoms: C_14  and  C_16
REMARK    5  A    between atoms: C_17  and  C_21
REMARK                            x       y       z     vdW  Elec       q    Type
REMARK                         _______ _______ _______ _____ _____    ______ ____
ROOT
ATOM      2  O   UNL     1     -12.548  -8.528  13.634  0.00  0.00    -0.252 OA
ATOM      3  N   UNL     1     -10.625  -8.312  14.966  0.00  0.00    -0.278 N 
ATOM      4  N   UNL     1      -8.497  -9.061  16.646  0.00  0.00    -0.293 NA
ATOM      5  N   UNL     1     -12.256  -6.784  15.195  0.00  0.00    -0.279 N 
ATOM      7  C   UNL     1     -10.083  -7.337  15.890  0.00  0.00    +0.109 C 
ATOM      8  C   UNL     1      -9.461  -8.037  17.097  0.00  0.00    +0.109 C 
ATOM      9  C   UNL     1     -11.276  -6.440  16.210  0.00  0.00    +0.133 C 
ATOM     10  C   UNL     1      -9.811  -9.443  14.571  0.00  0.00    +0.125 C 
ATOM     11  C   UNL     1      -9.162 -10.077  15.804  0.00  0.00    +0.104 C 
ATOM     12  C   UNL     1     -11.890  -7.946  14.486  0.00  0.00    +0.305 C 
ENDROOT
BRANCH   4  13
ATOM     13  C   UNL     1      -7.853  -9.695  17.796  0.00  0.00    +0.140 C 
BRANCH  13  15
ATOM      6  N   UNL     1      -5.963  -9.734  16.290  0.00  0.00    -0.258 NA
ATOM     15  C   UNL     1      -6.452 -10.133  17.485  0.00  0.00    +0.058 A 
ATOM     17  C   UNL     1      -5.742 -10.898  18.398  0.00  0.00    -0.028 A 
ATOM     20  C   UNL     1      -4.447 -11.279  18.060  0.00  0.00    +0.006 A 
ATOM     21  C   UNL     1      -6.323 -11.314  19.704  0.00  0.00    +0.045 C 
ATOM     24  C   UNL     1      -4.702 -10.122  15.996  0.00  0.00    +0.111 A 
ATOM     25  C   UNL     1      -3.910 -10.888  16.838  0.00  0.00    +0.020 A 
ENDBRANCH  13  15
ENDBRANCH   4  13
BRANCH   5  14
ATOM     14  C   UNL     1     -13.511  -6.078  15.070  0.00  0.00    +0.144 C 
BRANCH  14  16
ATOM      1  F   UNL     1     -13.648  -2.818  10.480  0.00  0.00    -0.205 F 
ATOM     16  C   UNL     1     -13.547  -5.209  13.846  0.00  0.00    -0.030 A 
ATOM     18  C   UNL     1     -12.367  -4.659  13.345  0.00  0.00    +0.008 A 
ATOM     19  C   UNL     1     -14.762  -4.950  13.209  0.00  0.00    +0.008 A 
ATOM     22  C   UNL     1     -12.401  -3.852  12.208  0.00  0.00    +0.038 A 
ATOM     23  C   UNL     1     -14.796  -4.142  12.073  0.00  0.00    +0.038 A 
ATOM     26  C   UNL     1     -13.616  -3.594  11.572  0.00  0.00    +0.123 A 
ENDBRANCH  14  16
ENDBRANCH   5  14
TORSDOF 4
ENDMDL
MODEL 4
REMARK VINA RESULT:      -6.6     19.497     20.930
REMARK  Name = 75537095
REMARK  5 active torsions:
REMARK  status: ('A' for Active; 'I' for Inactive)
REMARK    1  A    between atoms: N_4  and  C_13
REMARK    2  A    between atoms: N_5  and  C_14
REMARK    3  A    between atoms: C_13  and  C_15
REMARK    4  A    between atoms: C_14  and  C_16
REMARK    5  A    between atoms: C_17  and  C_21
REMARK                            x       y       z     vdW  Elec       q    Type
REMARK                         _______ _______ _______ _____ _____    ______ ____
ROOT
ATOM      2  O   UNL     1      -1.407 -11.133  15.427  0.00  0.00    -0.252 OA
ATOM      3  N   UNL     1      -3.714 -10.902  15.804  0.00  0.00    -0.278 N 
ATOM      4  N   UNL     1      -6.275 -11.456  16.827  0.00  0.00    -0.293 NA
ATOM      5  N   UNL     1      -2.951 -10.672  13.704  0.00  0.00    -0.279 N 
ATOM      7  C   UNL     1      -4.877 -10.509  15.036  0.00  0.00    +0.109 C 
ATOM      8  C   UNL     1      -6.063 -11.415  15.366  0.00  0.00    +0.109 C 
ATOM      9  C   UNL     1      -4.396 -10.582  13.588  0.00  0.00    +0.133 C 
ATOM     10  C   UNL     1      -3.847 -11.116  17.230  0.00  0.00    +0.125 C 
ATOM     11  C   UNL     1      -5.079 -11.978  17.518  0.00  0.00    +0.104 C 
ATOM     12  C   UNL     1      -2.545 -10.924  15.030  0.00  0.00    +0.305 C 
ENDROOT
BRANCH   4  13
ATOM     13  C   UNL     1      -7.445 -12.272  17.147  0.00  0.00    +0.140 C 
BRANCH  13  15
ATOM      6  N   UNL     1      -9.091 -10.502  17.195  0.00  0.00    -0.258 NA
ATOM     15  C   UNL     1      -8.489 -11.491  17.892  0.00  0.00    +0.058 A 
ATOM     17  C   UNL     1      -8.783 -11.801  19.211  0.00  0.00    -0.028 A 
ATOM     20  C   UNL     1      -9.757 -11.045  19.855  0.00  0.00    +0.006 A 
ATOM     21  C   UNL     1      -8.092 -12.902  19.939  0.00  0.00    +0.045 C 
ATOM     24  C   UNL     1     -10.032  -9.789  17.853  0.00  0.00    +0.111 A 
ATOM     25  C   UNL     1     -10.398 -10.019  19.171  0.00  0.00    +0.020 A 
ENDBRANCH  13  15
ENDBRANCH   4  13
BRANCH   5  14
ATOM     14  C   UNL     1      -2.086 -10.652  12.545  0.00  0.00    +0.144 C 
BRANCH  14  16
ATOM      1  F   UNL     1      -5.002 -10.251   7.745  0.00  0.00    -0.205 F 
ATOM     16  C   UNL     1      -2.864 -10.545  11.266  0.00  0.00    -0.030 A 
ATOM     18  C   UNL     1      -3.407 -11.690  10.682  0.00  0.00    +0.008 A 
ATOM     19  C   UNL     1      -3.043  -9.301  10.659  0.00  0.00    +0.008 A 
ATOM     22  C   UNL     1      -4.130 -11.590   9.493  0.00  0.00    +0.038 A 
ATOM     23  C   UNL     1      -3.764  -9.202   9.470  0.00  0.00    +0.038 A 
ATOM     26  C   UNL     1      -4.308 -10.346   8.887  0.00  0.00    +0.123 A 
ENDBRANCH  14  16
ENDBRANCH   5  14
TORSDOF 4
ENDMDL
MODEL 5
REMARK VINA RESULT:      -6.5     32.029     36.179
REMARK  Name = 75537095
REMARK  5 active torsions:
REMARK  status: ('A' for Active; 'I' for Inactive)
REMARK    1  A    between atoms: N_4  and  C_13
REMARK    2  A    between atoms: N_5  and  C_14
REMARK    3  A    between atoms: C_13  and  C_15
REMARK    4  A    between atoms: C_14  and  C_16
REMARK    5  A    between atoms: C_17  and  C_21
REMARK                            x       y       z     vdW  Elec       q    Type
REMARK                         _______ _______ _______ _____ _____    ______ ____
ROOT
ATOM      2  O   UNL     1      15.604   8.303   2.667  0.00  0.00    -0.252 OA
ATOM      3  N   UNL     1      14.053   7.426   4.198  0.00  0.00    -0.278 N 
ATOM      4  N   UNL     1      11.567   6.665   5.272  0.00  0.00    -0.293 NA
ATOM      5  N   UNL     1      15.686   8.755   4.981  0.00  0.00    -0.279 N 
ATOM      7  C   UNL     1      13.890   7.393   5.637  0.00  0.00    +0.109 C 
ATOM      8  C   UNL     1      12.425   7.613   6.011  0.00  0.00    +0.109 C 
ATOM      9  C   UNL     1      14.850   8.471   6.134  0.00  0.00    +0.133 C 
ATOM     10  C   UNL     1      13.163   6.644   3.366  0.00  0.00    +0.125 C 
ATOM     11  C   UNL     1      11.713   6.849   3.813  0.00  0.00    +0.104 C 
ATOM     12  C   UNL     1      15.172   8.173   3.805  0.00  0.00    +0.305 C 
ENDROOT
BRANCH   4  13
ATOM     13  C   UNL     1      10.170   6.828   5.669  0.00  0.00    +0.140 C 
BRANCH  13  15
ATOM      6  N   UNL     1      10.142   4.760   6.920  0.00  0.00    -0.258 NA
ATOM     15  C   UNL     1       9.852   6.080   6.931  0.00  0.00    +0.058 A 
ATOM     17  C   UNL     1       9.296   6.743   8.014  0.00  0.00    -0.028 A 
ATOM     20  C   UNL     1       9.019   6.003   9.158  0.00  0.00    +0.006 A 
ATOM     21  C   UNL     1       8.994   8.201   7.979  0.00  0.00    +0.045 C 
ATOM     24  C   UNL     1       9.860   4.073   8.049  0.00  0.00    +0.111 A 
ATOM     25  C   UNL     1       9.304   4.642   9.185  0.00  0.00    +0.020 A 
ENDBRANCH  13  15
ENDBRANCH   4  13
BRANCH   5  14
ATOM     14  C   UNL     1      16.814   9.657   5.055  0.00  0.00    +0.144 C 
BRANCH  14  16
ATOM      1  F   UNL     1      21.684   6.898   5.662  0.00  0.00    -0.205 F 
ATOM     16  C   UNL     1      18.112   8.921   5.217  0.00  0.00    -0.030 A 
ATOM     18  C   UNL     1      18.777   8.941   6.444  0.00  0.00    +0.008 A 
ATOM     19  C   UNL     1      18.655   8.219   4.140  0.00  0.00    +0.008 A 
ATOM     22  C   UNL     1      19.983   8.257   6.593  0.00  0.00    +0.038 A 
ATOM     23  C   UNL     1      19.862   7.536   4.291  0.00  0.00    +0.038 A 
ATOM     26  C   UNL     1      20.525   7.555   5.517  0.00  0.00    +0.123 A 
ENDBRANCH  14  16
ENDBRANCH   5  14
TORSDOF 4
ENDMDL
MODEL 6
REMARK VINA RESULT:      -6.4     21.527     24.294
REMARK  Name = 75537095
REMARK  5 active torsions:
REMARK  status: ('A' for Active; 'I' for Inactive)
REMARK    1  A    between atoms: N_4  and  C_13
REMARK    2  A    between atoms: N_5  and  C_14
REMARK    3  A    between atoms: C_13  and  C_15
REMARK    4  A    between atoms: C_14  and  C_16
REMARK    5  A    between atoms: C_17  and  C_21
REMARK                            x       y       z     vdW  Elec       q    Type
REMARK                         _______ _______ _______ _____ _____    ______ ____
ROOT
ATOM      2  O   UNL     1      -1.633  -9.606  11.921  0.00  0.00    -0.252 OA
ATOM      3  N   UNL     1      -3.316 -10.278  10.425  0.00  0.00    -0.278 N 
ATOM      4  N   UNL     1      -5.684 -10.158   8.912  0.00  0.00    -0.293 NA
ATOM      5  N   UNL     1      -2.559 -11.776  11.918  0.00  0.00    -0.279 N 
ATOM      7  C   UNL     1      -3.988 -11.512  10.074  0.00  0.00    +0.109 C 
ATOM      8  C   UNL     1      -5.482 -11.264   9.870  0.00  0.00    +0.109 C 
ATOM      9  C   UNL     1      -3.644 -12.452  11.227  0.00  0.00    +0.133 C 
ATOM     10  C   UNL     1      -3.560  -9.089   9.635  0.00  0.00    +0.125 C 
ATOM     11  C   UNL     1      -5.063  -8.912   9.406  0.00  0.00    +0.104 C 
ATOM     12  C   UNL     1      -2.402 -10.448  11.474  0.00  0.00    +0.305 C 
ENDROOT
BRANCH   4  13
ATOM     13  C   UNL     1      -7.110  -9.954   8.665  0.00  0.00    +0.140 C 
BRANCH  13  15
ATOM      6  N   UNL     1      -6.813  -9.793   6.271  0.00  0.00    -0.258 NA
ATOM     15  C   UNL     1      -7.360  -9.232   7.372  0.00  0.00    +0.058 A 
ATOM     17  C   UNL     1      -8.109  -8.065   7.358  0.00  0.00    -0.028 A 
ATOM     20  C   UNL     1      -8.309  -7.435   6.135  0.00  0.00    +0.006 A 
ATOM     21  C   UNL     1      -8.693  -7.484   8.599  0.00  0.00    +0.045 C 
ATOM     24  C   UNL     1      -7.028  -9.153   5.100  0.00  0.00    +0.111 A 
ATOM     25  C   UNL     1      -7.761  -7.983   4.980  0.00  0.00    +0.020 A 
ENDBRANCH  13  15
ENDBRANCH   4  13
BRANCH   5  14
ATOM     14  C   UNL     1      -1.857 -12.386  13.025  0.00  0.00    +0.144 C 
BRANCH  14  16
ATOM      1  F   UNL     1      -4.065 -10.906  17.989  0.00  0.00    -0.205 F 
ATOM     16  C   UNL     1      -2.446 -11.992  14.349  0.00  0.00    -0.030 A 
ATOM     18  C   UNL     1      -3.652 -12.553  14.770  0.00  0.00    +0.008 A 
ATOM     19  C   UNL     1      -1.787 -11.064  15.157  0.00  0.00    +0.008 A 
ATOM     22  C   UNL     1      -4.198 -12.186  16.000  0.00  0.00    +0.038 A 
ATOM     23  C   UNL     1      -2.334 -10.697  16.386  0.00  0.00    +0.038 A 
ATOM     26  C   UNL     1      -3.540 -11.258  16.808  0.00  0.00    +0.123 A 
ENDBRANCH  14  16
ENDBRANCH   5  14
TORSDOF 4
ENDMDL
MODEL 7
REMARK VINA RESULT:      -6.4     31.998     35.056
REMARK  Name = 75537095
REMARK  5 active torsions:
REMARK  status: ('A' for Active; 'I' for Inactive)
REMARK    1  A    between atoms: N_4  and  C_13
REMARK    2  A    between atoms: N_5  and  C_14
REMARK    3  A    between atoms: C_13  and  C_15
REMARK    4  A    between atoms: C_14  and  C_16
REMARK    5  A    between atoms: C_17  and  C_21
REMARK                            x       y       z     vdW  Elec       q    Type
REMARK                         _______ _______ _______ _____ _____    ______ ____
ROOT
ATOM      2  O   UNL     1      19.913   8.574  23.358  0.00  0.00    -0.252 OA
ATOM      3  N   UNL     1      18.610   7.825  21.553  0.00  0.00    -0.278 N 
ATOM      4  N   UNL     1      16.313   7.185  20.061  0.00  0.00    -0.293 NA
ATOM      5  N   UNL     1      20.404   6.611  22.146  0.00  0.00    -0.279 N 
ATOM      7  C   UNL     1      18.691   6.783  20.550  0.00  0.00    +0.109 C 
ATOM      8  C   UNL     1      17.321   6.142  20.336  0.00  0.00    +0.109 C 
ATOM      9  C   UNL     1      19.765   5.842  21.092  0.00  0.00    +0.133 C 
ATOM     10  C   UNL     1      17.560   8.818  21.459  0.00  0.00    +0.125 C 
ATOM     11  C   UNL     1      16.217   8.136  21.187  0.00  0.00    +0.104 C 
ATOM     12  C   UNL     1      19.675   7.774  22.463  0.00  0.00    +0.305 C 
ENDROOT
BRANCH   4  13
ATOM     13  C   UNL     1      15.010   6.576  19.795  0.00  0.00    +0.140 C 
BRANCH  13  15
ATOM      6  N   UNL     1      14.612   8.147  18.003  0.00  0.00    -0.258 NA
ATOM     15  C   UNL     1      14.087   7.514  19.075  0.00  0.00    +0.058 A 
ATOM     17  C   UNL     1      12.785   7.688  19.518  0.00  0.00    -0.028 A 
ATOM     20  C   UNL     1      11.971   8.571  18.815  0.00  0.00    +0.006 A 
ATOM     21  C   UNL     1      12.249   6.967  20.706  0.00  0.00    +0.045 C 
ATOM     24  C   UNL     1      13.792   8.997  17.344  0.00  0.00    +0.111 A 
ATOM     25  C   UNL     1      12.476   9.241  17.707  0.00  0.00    +0.020 A 
ENDBRANCH  13  15
ENDBRANCH   4  13
BRANCH   5  14
ATOM     14  C   UNL     1      21.564   6.120  22.858  0.00  0.00    +0.144 C 
BRANCH  14  16
ATOM      1  F   UNL     1      24.536   2.464  19.775  0.00  0.00    -0.205 F 
ATOM     16  C   UNL     1      22.356   5.145  22.036  0.00  0.00    -0.030 A 
ATOM     18  C   UNL     1      22.201   3.773  22.239  0.00  0.00    +0.008 A 
ATOM     19  C   UNL     1      23.248   5.611  21.069  0.00  0.00    +0.008 A 
ATOM     22  C   UNL     1      22.937   2.868  21.475  0.00  0.00    +0.038 A 
ATOM     23  C   UNL     1      23.985   4.705  20.306  0.00  0.00    +0.038 A 
ATOM     26  C   UNL     1      23.829   3.334  20.508  0.00  0.00    +0.123 A 
ENDBRANCH  14  16
ENDBRANCH   5  14
TORSDOF 4
ENDMDL
MODEL 8
REMARK VINA RESULT:      -6.3     19.131     20.472
REMARK  Name = 75537095
REMARK  5 active torsions:
REMARK  status: ('A' for Active; 'I' for Inactive)
REMARK    1  A    between atoms: N_4  and  C_13
REMARK    2  A    between atoms: N_5  and  C_14
REMARK    3  A    between atoms: C_13  and  C_15
REMARK    4  A    between atoms: C_14  and  C_16
REMARK    5  A    between atoms: C_17  and  C_21
REMARK                            x       y       z     vdW  Elec       q    Type
REMARK                         _______ _______ _______ _____ _____    ______ ____
ROOT
ATOM      2  O   UNL     1      -2.598 -10.557  16.186  0.00  0.00    -0.252 OA
ATOM      3  N   UNL     1      -4.755 -11.211  16.847  0.00  0.00    -0.278 N 
ATOM      4  N   UNL     1      -6.858 -11.984  18.548  0.00  0.00    -0.293 NA
ATOM      5  N   UNL     1      -3.863 -12.174  15.025  0.00  0.00    -0.279 N 
ATOM      7  C   UNL     1      -5.818 -12.040  16.317  0.00  0.00    +0.109 C 
ATOM      8  C   UNL     1      -6.454 -12.866  17.434  0.00  0.00    +0.109 C 
ATOM      9  C   UNL     1      -5.130 -12.856  15.226  0.00  0.00    +0.133 C 
ATOM     10  C   UNL     1      -5.001 -10.415  18.032  0.00  0.00    +0.125 C 
ATOM     11  C   UNL     1      -5.691 -11.265  19.100  0.00  0.00    +0.104 C 
ATOM     12  C   UNL     1      -3.612 -11.225  16.036  0.00  0.00    +0.305 C 
ENDROOT
BRANCH   4  13
ATOM     13  C   UNL     1      -7.523 -12.758  19.595  0.00  0.00    +0.140 C 
BRANCH  13  15
ATOM      6  N   UNL     1      -9.103 -10.938  19.762  0.00  0.00    -0.258 NA
ATOM     15  C   UNL     1      -8.919 -12.273  19.853  0.00  0.00    +0.058 A 
ATOM     17  C   UNL     1      -9.925 -13.176  20.164  0.00  0.00    -0.028 A 
ATOM     20  C   UNL     1     -11.201 -12.673  20.396  0.00  0.00    +0.006 A 
ATOM     21  C   UNL     1      -9.674 -14.641  20.253  0.00  0.00    +0.045 C 
ATOM     24  C   UNL     1     -10.356 -10.486  19.993  0.00  0.00    +0.111 A 
ATOM     25  C   UNL     1     -11.429 -11.304  20.311  0.00  0.00    +0.020 A 
ENDBRANCH  13  15
ENDBRANCH   4  13
BRANCH   5  14
ATOM     14  C   UNL     1      -2.938 -12.567  13.985  0.00  0.00    +0.144 C 
BRANCH  14  16
ATOM      1  F   UNL     1      -2.997  -8.974   9.650  0.00  0.00    -0.205 F 
ATOM     16  C   UNL     1      -2.953 -11.609  12.829  0.00  0.00    -0.030 A 
ATOM     18  C   UNL     1      -1.862 -10.769  12.604  0.00  0.00    +0.008 A 
ATOM     19  C   UNL     1      -4.059 -11.558  11.979  0.00  0.00    +0.008 A 
ATOM     22  C   UNL     1      -1.877  -9.880  11.530  0.00  0.00    +0.038 A 
ATOM     23  C   UNL     1      -4.074 -10.668  10.906  0.00  0.00    +0.038 A 
ATOM     26  C   UNL     1      -2.983  -9.829  10.681  0.00  0.00    +0.123 A 
ENDBRANCH  14  16
ENDBRANCH   5  14
TORSDOF 4
ENDMDL
MODEL 9
REMARK VINA RESULT:      -6.3     19.524     20.903
REMARK  Name = 75537095
REMARK  5 active torsions:
REMARK  status: ('A' for Active; 'I' for Inactive)
REMARK    1  A    between atoms: N_4  and  C_13
REMARK    2  A    between atoms: N_5  and  C_14
REMARK    3  A    between atoms: C_13  and  C_15
REMARK    4  A    between atoms: C_14  and  C_16
REMARK    5  A    between atoms: C_17  and  C_21
REMARK                            x       y       z     vdW  Elec       q    Type
REMARK                         _______ _______ _______ _____ _____    ______ ____
ROOT
ATOM      2  O   UNL     1      -3.924 -14.044  14.055  0.00  0.00    -0.252 OA
ATOM      3  N   UNL     1      -4.358 -12.585  15.844  0.00  0.00    -0.278 N 
ATOM      4  N   UNL     1      -5.835 -11.031  17.665  0.00  0.00    -0.293 NA
ATOM      5  N   UNL     1      -2.696 -12.065  14.425  0.00  0.00    -0.279 N 
ATOM      7  C   UNL     1      -3.745 -11.405  16.419  0.00  0.00    +0.109 C 
ATOM      8  C   UNL     1      -4.815 -10.388  16.812  0.00  0.00    +0.109 C 
ATOM      9  C   UNL     1      -2.778 -10.935  15.335  0.00  0.00    +0.133 C 
ATOM     10  C   UNL     1      -5.470 -13.211  16.528  0.00  0.00    +0.125 C 
ATOM     11  C   UNL     1      -6.487 -12.150  16.955  0.00  0.00    +0.104 C 
ATOM     12  C   UNL     1      -3.687 -13.030  14.696  0.00  0.00    +0.305 C 
ENDROOT
BRANCH   4  13
ATOM     13  C   UNL     1      -6.830 -10.051  18.095  0.00  0.00    +0.140 C 
BRANCH  13  15
ATOM      6  N   UNL     1      -7.914 -11.615  19.585  0.00  0.00    -0.258 NA
ATOM     15  C   UNL     1      -8.083 -10.705  18.601  0.00  0.00    +0.058 A 
ATOM     17  C   UNL     1      -9.314 -10.366  18.060  0.00  0.00    -0.028 A 
ATOM     20  C   UNL     1     -10.443 -11.003  18.563  0.00  0.00    +0.006 A 
ATOM     21  C   UNL     1      -9.450  -9.355  16.975  0.00  0.00    +0.045 C 
ATOM     24  C   UNL     1      -9.033 -12.214  20.049  0.00  0.00    +0.111 A 
ATOM     25  C   UNL     1     -10.309 -11.946  19.576  0.00  0.00    +0.020 A 
ENDBRANCH  13  15
ENDBRANCH   4  13
BRANCH   5  14
ATOM     14  C   UNL     1      -1.789 -12.078  13.299  0.00  0.00    +0.144 C 
BRANCH  14  16
ATOM      1  F   UNL     1      -3.599  -8.789   9.102  0.00  0.00    -0.205 F 
ATOM     16  C   UNL     1      -2.271 -11.201  12.179  0.00  0.00    -0.030 A 
ATOM     18  C   UNL     1      -1.601 -10.013  11.885  0.00  0.00    +0.008 A 
ATOM     19  C   UNL     1      -3.391 -11.574  11.434  0.00  0.00    +0.008 A 
ATOM     22  C   UNL     1      -2.050  -9.199  10.846  0.00  0.00    +0.038 A 
ATOM     23  C   UNL     1      -3.839 -10.758  10.395  0.00  0.00    +0.038 A 
ATOM     26  C   UNL     1      -3.169  -9.572  10.101  0.00  0.00    +0.123 A 
ENDBRANCH  14  16
ENDBRANCH   5  14
TORSDOF 4
ENDMDL
MODEL 10
REMARK VINA RESULT:      -6.2     32.266     36.889
REMARK  Name = 75537095
REMARK  5 active torsions:
REMARK  status: ('A' for Active; 'I' for Inactive)
REMARK    1  A    between atoms: N_4  and  C_13
REMARK    2  A    between atoms: N_5  and  C_14
REMARK    3  A    between atoms: C_13  and  C_15
REMARK    4  A    between atoms: C_14  and  C_16
REMARK    5  A    between atoms: C_17  and  C_21
REMARK                            x       y       z     vdW  Elec       q    Type
REMARK                         _______ _______ _______ _____ _____    ______ ____
ROOT
ATOM      2  O   UNL     1      11.731  10.277   6.746  0.00  0.00    -0.252 OA
ATOM      3  N   UNL     1      13.915   9.480   6.409  0.00  0.00    -0.278 N 
ATOM      4  N   UNL     1      16.633   9.498   5.684  0.00  0.00    -0.293 NA
ATOM      5  N   UNL     1      12.198   8.178   5.774  0.00  0.00    -0.279 N 
ATOM      7  C   UNL     1      14.535   8.244   5.980  0.00  0.00    +0.109 C 
ATOM      8  C   UNL     1      15.711   8.534   5.049  0.00  0.00    +0.109 C 
ATOM      9  C   UNL     1      13.387   7.465   5.342  0.00  0.00    +0.133 C 
ATOM     10  C   UNL     1      14.747  10.554   6.912  0.00  0.00    +0.125 C 
ATOM     11  C   UNL     1      15.942  10.770   5.981  0.00  0.00    +0.104 C 
ATOM     12  C   UNL     1      12.515   9.419   6.363  0.00  0.00    +0.305 C 
ENDROOT
BRANCH   4  13
ATOM     13  C   UNL     1      17.792   9.735   4.826  0.00  0.00    +0.140 C 
BRANCH  13  15
ATOM      6  N   UNL     1      19.343   9.096   6.566  0.00  0.00    -0.258 NA
ATOM     15  C   UNL     1      18.991   8.950   5.269  0.00  0.00    +0.058 A 
ATOM     17  C   UNL     1      19.666   8.139   4.369  0.00  0.00    -0.028 A 
ATOM     20  C   UNL     1      20.773   7.434   4.832  0.00  0.00    +0.006 A 
ATOM     21  C   UNL     1      19.241   8.009   2.948  0.00  0.00    +0.045 C 
ATOM     24  C   UNL     1      20.422   8.396   6.980  0.00  0.00    +0.111 A 
ATOM     25  C   UNL     1      21.164   7.559   6.160  0.00  0.00    +0.020 A 
ENDBRANCH  13  15
ENDBRANCH   4  13
BRANCH   5  14
ATOM     14  C   UNL     1      10.866   7.701   5.475  0.00  0.00    +0.144 C 
BRANCH  14  16
ATOM      1  F   UNL     1       9.273   3.576   8.960  0.00  0.00    -0.205 F 
ATOM     16  C   UNL     1      10.441   6.601   6.404  0.00  0.00    -0.030 A 
ATOM     18  C   UNL     1      10.196   5.322   5.904  0.00  0.00    +0.008 A 
ATOM     19  C   UNL     1      10.291   6.858   7.767  0.00  0.00    +0.008 A 
ATOM     22  C   UNL     1       9.802   4.300   6.768  0.00  0.00    +0.038 A 
ATOM     23  C   UNL     1       9.896   5.836   8.630  0.00  0.00    +0.038 A 
ATOM     26  C   UNL     1       9.652   4.557   8.131  0.00  0.00    +0.123 A 
ENDBRANCH  14  16
ENDBRANCH   5  14
TORSDOF 4
ENDMDL
