MODEL 1
REMARK VINA RESULT:      -6.1      0.000      0.000
REMARK  Name = 11912948
REMARK  11 active torsions:
REMARK  status: ('A' for Active; 'I' for Inactive)
REMARK    1  A    between atoms: S_1  and  C_20
REMARK    2  A    between atoms: S_1  and  C_27
REMARK    3  A    between atoms: O_5  and  C_28
REMARK    4  A    between atoms: N_7  and  C_13
REMARK    5  A    between atoms: N_8  and  C_14
REMARK    6  A    between atoms: C_18  and  C_20
REMARK    7  A    between atoms: C_19  and  C_21
REMARK    8  A    between atoms: C_19  and  C_23
REMARK    9  A    between atoms: C_19  and  C_24
REMARK   10  A    between atoms: C_19  and  C_25
REMARK   11  A    between atoms: C_27  and  C_28
REMARK                            x       y       z     vdW  Elec       q    Type
REMARK                         _______ _______ _______ _____ _____    ______ ____
ROOT
ATOM      2  O   UNL     1      21.930   7.366  20.652  0.00  0.00    -0.370 OA
ATOM      3  O   UNL     1      20.393   6.013  23.005  0.00  0.00    -0.370 OA
ATOM     11  C   UNL     1      21.052   5.499  21.836  0.00  0.00    +0.171 C 
ATOM     12  C   UNL     1      20.800   6.482  20.710  0.00  0.00    +0.171 C 
ATOM     13  C   UNL     1      22.550   5.529  22.024  0.00  0.00    +0.130 C 
ATOM     14  C   UNL     1      19.564   7.235  21.148  0.00  0.00    +0.130 C 
ATOM     15  C   UNL     1      22.910   6.945  21.614  0.00  0.00    +0.185 C 
ATOM     16  C   UNL     1      19.694   7.217  22.661  0.00  0.00    +0.185 C 
ENDROOT
BRANCH  13   7
ATOM      7  N   UNL     1      23.179   4.576  21.135  0.00  0.00    -0.306 N 
ATOM      9  N   UNL     1      23.420   3.009  22.832  0.00  0.00    -0.219 NA
ATOM     10  N   UNL     1      24.176   2.551  20.590  0.00  0.00    -0.223 NA
ATOM     17  C   UNL     1      23.611   3.324  21.537  0.00  0.00    +0.216 A 
ATOM     21  C   UNL     1      23.852   1.782  23.189  0.00  0.00    +0.052 A 
ATOM     22  C   UNL     1      24.447   0.894  22.315  0.00  0.00    +0.043 A 
ATOM     26  C   UNL     1      24.584   1.337  21.015  0.00  0.00    +0.116 A 
ATOM     29  H   UNL     1      23.272   4.799  20.151  0.00  0.00    +0.149 HD
BRANCH  21  19
ATOM     19  C   UNL     1      23.660   1.391  24.616  0.00  0.00    +0.005 C 
ATOM     23  C   UNL     1      24.333   2.419  25.577  0.00  0.00    +0.017 C 
ATOM     24  C   UNL     1      24.285  -0.008  24.909  0.00  0.00    +0.017 C 
ATOM     25  C   UNL     1      22.172   1.291  25.089  0.00  0.00    +0.017 C 
ENDBRANCH  21  19
ENDBRANCH  13   7
BRANCH  14   8
ATOM      4  O   UNL     1      17.025   8.448  20.470  0.00  0.00    -0.275 OA
ATOM      8  N   UNL     1      18.363   6.563  20.717  0.00  0.00    -0.307 N 
ATOM     18  C   UNL     1      17.185   7.230  20.412  0.00  0.00    +0.223 C 
ATOM     30  H   UNL     1      18.371   5.547  20.695  0.00  0.00    +0.149 HD
BRANCH  18  20
ATOM     20  C   UNL     1      16.067   6.300  20.005  0.00  0.00    +0.165 C 
BRANCH  20   1
ATOM      1  S   UNL     1      14.484   7.056  20.445  0.00  0.00    -0.140 S 
BRANCH   1  27
ATOM     27  C   UNL     1      13.903   7.451  18.779  0.00  0.00    +0.189 C 
BRANCH  27  28
ATOM      6  O   UNL     1      11.675   7.230  19.675  0.00  0.00    -0.250 OA
ATOM     28  C   UNL     1      12.419   7.226  18.703  0.00  0.00    +0.315 C 
BRANCH  28   5
ATOM      5  O   UNL     1      11.983   7.035  17.432  0.00  0.00    -0.480 OA
ATOM     31  H   UNL     1      11.985   6.085  17.183  0.00  0.00    +0.295 HD
ENDBRANCH  28   5
ENDBRANCH  27  28
ENDBRANCH   1  27
ENDBRANCH  20   1
ENDBRANCH  18  20
ENDBRANCH  14   8
TORSDOF 8
ENDMDL
MODEL 2
REMARK VINA RESULT:      -6.1      3.667     10.006
REMARK  Name = 11912948
REMARK  11 active torsions:
REMARK  status: ('A' for Active; 'I' for Inactive)
REMARK    1  A    between atoms: S_1  and  C_20
REMARK    2  A    between atoms: S_1  and  C_27
REMARK    3  A    between atoms: O_5  and  C_28
REMARK    4  A    between atoms: N_7  and  C_13
REMARK    5  A    between atoms: N_8  and  C_14
REMARK    6  A    between atoms: C_18  and  C_20
REMARK    7  A    between atoms: C_19  and  C_21
REMARK    8  A    between atoms: C_19  and  C_23
REMARK    9  A    between atoms: C_19  and  C_24
REMARK   10  A    between atoms: C_19  and  C_25
REMARK   11  A    between atoms: C_27  and  C_28
REMARK                            x       y       z     vdW  Elec       q    Type
REMARK                         _______ _______ _______ _____ _____    ______ ____
ROOT
ATOM      2  O   UNL     1      19.381   8.626  22.337  0.00  0.00    -0.370 OA
ATOM      3  O   UNL     1      19.580   6.409  20.150  0.00  0.00    -0.370 OA
ATOM     11  C   UNL     1      18.682   6.628  21.251  0.00  0.00    +0.171 C 
ATOM     12  C   UNL     1      19.501   7.196  22.394  0.00  0.00    +0.171 C 
ATOM     13  C   UNL     1      17.702   7.728  20.917  0.00  0.00    +0.130 C 
ATOM     14  C   UNL     1      20.918   6.773  22.076  0.00  0.00    +0.130 C 
ATOM     15  C   UNL     1      18.472   8.983  21.284  0.00  0.00    +0.185 C 
ATOM     16  C   UNL     1      20.915   6.743  20.558  0.00  0.00    +0.185 C 
ENDROOT
BRANCH  13   7
ATOM      7  N   UNL     1      16.521   7.605  21.743  0.00  0.00    -0.306 N 
ATOM      9  N   UNL     1      15.114   8.129  19.971  0.00  0.00    -0.219 NA
ATOM     10  N   UNL     1      14.238   7.652  22.165  0.00  0.00    -0.223 NA
ATOM     17  C   UNL     1      15.235   7.804  21.272  0.00  0.00    +0.216 A 
ATOM     21  C   UNL     1      13.846   8.316  19.547  0.00  0.00    +0.052 A 
ATOM     22  C   UNL     1      12.739   8.190  20.361  0.00  0.00    +0.043 A 
ATOM     26  C   UNL     1      12.998   7.853  21.673  0.00  0.00    +0.116 A 
ATOM     29  H   UNL     1      16.616   7.310  22.707  0.00  0.00    +0.149 HD
BRANCH  21  19
ATOM     19  C   UNL     1      13.666   8.677  18.110  0.00  0.00    +0.005 C 
ATOM     23  C   UNL     1      14.254   7.577  17.174  0.00  0.00    +0.017 C 
ATOM     24  C   UNL     1      14.385  10.020  17.770  0.00  0.00    +0.017 C 
ATOM     25  C   UNL     1      12.184   8.869  17.648  0.00  0.00    +0.017 C 
ENDBRANCH  21  19
ENDBRANCH  13   7
BRANCH  14   8
ATOM      4  O   UNL     1      23.470   5.409  22.087  0.00  0.00    -0.275 OA
ATOM      8  N   UNL     1      21.210   5.472  22.625  0.00  0.00    -0.307 N 
ATOM     18  C   UNL     1      22.471   4.894  22.584  0.00  0.00    +0.223 C 
ATOM     30  H   UNL     1      20.437   4.934  23.006  0.00  0.00    +0.149 HD
BRANCH  18  20
ATOM     20  C   UNL     1      22.512   3.519  23.209  0.00  0.00    +0.165 C 
BRANCH  20   1
ATOM      1  S   UNL     1      24.229   2.954  23.272  0.00  0.00    -0.140 S 
BRANCH   1  27
ATOM     27  C   UNL     1      24.091   1.549  22.142  0.00  0.00    +0.189 C 
BRANCH  27  28
ATOM      6  O   UNL     1      24.988   2.554  20.142  0.00  0.00    -0.250 OA
ATOM     28  C   UNL     1      24.037   2.052  20.727  0.00  0.00    +0.315 C 
BRANCH  28   5
ATOM      5  O   UNL     1      22.819   1.875  20.155  0.00  0.00    -0.480 OA
ATOM     31  H   UNL     1      22.839   1.187  19.455  0.00  0.00    +0.295 HD
ENDBRANCH  28   5
ENDBRANCH  27  28
ENDBRANCH   1  27
ENDBRANCH  20   1
ENDBRANCH  18  20
ENDBRANCH  14   8
TORSDOF 8
ENDMDL
MODEL 3
REMARK VINA RESULT:      -5.9     28.544     31.570
REMARK  Name = 11912948
REMARK  11 active torsions:
REMARK  status: ('A' for Active; 'I' for Inactive)
REMARK    1  A    between atoms: S_1  and  C_20
REMARK    2  A    between atoms: S_1  and  C_27
REMARK    3  A    between atoms: O_5  and  C_28
REMARK    4  A    between atoms: N_7  and  C_13
REMARK    5  A    between atoms: N_8  and  C_14
REMARK    6  A    between atoms: C_18  and  C_20
REMARK    7  A    between atoms: C_19  and  C_21
REMARK    8  A    between atoms: C_19  and  C_23
REMARK    9  A    between atoms: C_19  and  C_24
REMARK   10  A    between atoms: C_19  and  C_25
REMARK   11  A    between atoms: C_27  and  C_28
REMARK                            x       y       z     vdW  Elec       q    Type
REMARK                         _______ _______ _______ _____ _____    ______ ____
ROOT
ATOM      2  O   UNL     1      -6.399 -12.240  18.600  0.00  0.00    -0.370 OA
ATOM      3  O   UNL     1      -7.328 -11.968  15.634  0.00  0.00    -0.370 OA
ATOM     11  C   UNL     1      -6.238 -11.402  16.379  0.00  0.00    +0.171 C 
ATOM     12  C   UNL     1      -6.749 -11.115  17.777  0.00  0.00    +0.171 C 
ATOM     13  C   UNL     1      -5.154 -12.433  16.586  0.00  0.00    +0.130 C 
ATOM     14  C   UNL     1      -8.250 -11.031  17.610  0.00  0.00    +0.130 C 
ATOM     15  C   UNL     1      -5.629 -13.171  17.825  0.00  0.00    +0.185 C 
ATOM     16  C   UNL     1      -8.502 -11.990  16.460  0.00  0.00    +0.185 C 
ENDROOT
BRANCH  13   7
ATOM      7  N   UNL     1      -3.891 -11.778  16.847  0.00  0.00    -0.306 N 
ATOM      9  N   UNL     1      -3.565 -11.304  14.597  0.00  0.00    -0.219 NA
ATOM     10  N   UNL     1      -1.953 -10.640  16.261  0.00  0.00    -0.223 NA
ATOM     17  C   UNL     1      -3.102 -11.217  15.859  0.00  0.00    +0.216 A 
ATOM     21  C   UNL     1      -2.771 -10.746  13.659  0.00  0.00    +0.052 A 
ATOM     22  C   UNL     1      -1.571 -10.125  13.942  0.00  0.00    +0.043 A 
ATOM     26  C   UNL     1      -1.209 -10.103  15.272  0.00  0.00    +0.116 A 
ATOM     29  H   UNL     1      -3.574 -11.670  17.803  0.00  0.00    +0.149 HD
BRANCH  21  19
ATOM     19  C   UNL     1      -3.247 -10.820  12.247  0.00  0.00    +0.005 C 
ATOM     23  C   UNL     1      -3.227 -12.288  11.721  0.00  0.00    +0.017 C 
ATOM     24  C   UNL     1      -2.345  -9.968  11.301  0.00  0.00    +0.017 C 
ATOM     25  C   UNL     1      -4.705 -10.310  12.003  0.00  0.00    +0.017 C 
ENDBRANCH  21  19
ENDBRANCH  13   7
BRANCH  14   8
ATOM      4  O   UNL     1     -10.660  -9.676  18.466  0.00  0.00    -0.275 OA
ATOM      8  N   UNL     1      -8.664  -9.691  17.274  0.00  0.00    -0.307 N 
ATOM     18  C   UNL     1      -9.843  -9.121  17.734  0.00  0.00    +0.223 C 
ATOM     30  H   UNL     1      -8.087  -9.167  16.623  0.00  0.00    +0.149 HD
BRANCH  18  20
ATOM     20  C   UNL     1     -10.057  -7.715  17.225  0.00  0.00    +0.165 C 
BRANCH  20   1
ATOM      1  S   UNL     1     -11.076  -7.779  15.732  0.00  0.00    -0.140 S 
BRANCH   1  27
ATOM     27  C   UNL     1     -11.130  -6.009  15.368  0.00  0.00    +0.189 C 
BRANCH  27  28
ATOM      6  O   UNL     1     -12.651  -6.639  13.606  0.00  0.00    -0.250 OA
ATOM     28  C   UNL     1     -11.961  -5.779  14.138  0.00  0.00    +0.315 C 
BRANCH  28   5
ATOM      5  O   UNL     1     -11.879  -4.503  13.682  0.00  0.00    -0.480 OA
ATOM     31  H   UNL     1     -12.586  -3.934  14.056  0.00  0.00    +0.295 HD
ENDBRANCH  28   5
ENDBRANCH  27  28
ENDBRANCH   1  27
ENDBRANCH  20   1
ENDBRANCH  18  20
ENDBRANCH  14   8
TORSDOF 8
ENDMDL
MODEL 4
REMARK VINA RESULT:      -5.8      9.617     11.796
REMARK  Name = 11912948
REMARK  11 active torsions:
REMARK  status: ('A' for Active; 'I' for Inactive)
REMARK    1  A    between atoms: S_1  and  C_20
REMARK    2  A    between atoms: S_1  and  C_27
REMARK    3  A    between atoms: O_5  and  C_28
REMARK    4  A    between atoms: N_7  and  C_13
REMARK    5  A    between atoms: N_8  and  C_14
REMARK    6  A    between atoms: C_18  and  C_20
REMARK    7  A    between atoms: C_19  and  C_21
REMARK    8  A    between atoms: C_19  and  C_23
REMARK    9  A    between atoms: C_19  and  C_24
REMARK   10  A    between atoms: C_19  and  C_25
REMARK   11  A    between atoms: C_27  and  C_28
REMARK                            x       y       z     vdW  Elec       q    Type
REMARK                         _______ _______ _______ _____ _____    ______ ____
ROOT
ATOM      2  O   UNL     1      13.655   8.511  15.442  0.00  0.00    -0.370 OA
ATOM      3  O   UNL     1      14.606  11.124  16.856  0.00  0.00    -0.370 OA
ATOM     11  C   UNL     1      13.435  10.303  16.991  0.00  0.00    +0.171 C 
ATOM     12  C   UNL     1      13.067   9.811  15.605  0.00  0.00    +0.171 C 
ATOM     13  C   UNL     1      13.765   9.042  17.755  0.00  0.00    +0.130 C 
ATOM     14  C   UNL     1      13.724  10.807  14.676  0.00  0.00    +0.130 C 
ATOM     15  C   UNL     1      14.294   8.124  16.668  0.00  0.00    +0.185 C 
ATOM     16  C   UNL     1      14.950  11.228  15.467  0.00  0.00    +0.185 C 
ENDROOT
BRANCH  13   7
ATOM      7  N   UNL     1      12.563   8.487  18.337  0.00  0.00    -0.306 N 
ATOM      9  N   UNL     1      12.873   9.654  20.321  0.00  0.00    -0.219 NA
ATOM     10  N   UNL     1      10.981   8.195  20.012  0.00  0.00    -0.223 NA
ATOM     17  C   UNL     1      12.120   8.792  19.612  0.00  0.00    +0.216 A 
ATOM     21  C   UNL     1      12.412   9.929  21.559  0.00  0.00    +0.052 A 
ATOM     22  C   UNL     1      11.258   9.383  22.086  0.00  0.00    +0.043 A 
ATOM     26  C   UNL     1      10.577   8.514  21.259  0.00  0.00    +0.116 A 
ATOM     29  H   UNL     1      11.974   7.880  17.780  0.00  0.00    +0.149 HD
BRANCH  21  19
ATOM     19  C   UNL     1      13.216  10.881  22.379  0.00  0.00    +0.005 C 
ATOM     23  C   UNL     1      13.534  12.183  21.581  0.00  0.00    +0.017 C 
ATOM     24  C   UNL     1      14.576  10.248  22.810  0.00  0.00    +0.017 C 
ATOM     25  C   UNL     1      12.540  11.360  23.706  0.00  0.00    +0.017 C 
ENDBRANCH  21  19
ENDBRANCH  13   7
BRANCH  14   8
ATOM      4  O   UNL     1      13.066  11.953  12.101  0.00  0.00    -0.275 OA
ATOM      8  N   UNL     1      12.857  11.929  14.416  0.00  0.00    -0.307 N 
ATOM     18  C   UNL     1      12.599  12.412  13.141  0.00  0.00    +0.223 C 
ATOM     30  H   UNL     1      12.467  12.421  15.214  0.00  0.00    +0.149 HD
BRANCH  18  20
ATOM     20  C   UNL     1      11.674  13.607  13.137  0.00  0.00    +0.165 C 
BRANCH  20   1
ATOM      1  S   UNL     1       9.968  13.029  12.966  0.00  0.00    -0.140 S 
BRANCH   1  27
ATOM     27  C   UNL     1       9.798  13.220  11.176  0.00  0.00    +0.189 C 
BRANCH  27  28
ATOM      6  O   UNL     1       8.633  11.302  10.295  0.00  0.00    -0.250 OA
ATOM     28  C   UNL     1       9.693  11.864  10.539  0.00  0.00    +0.315 C 
BRANCH  28   5
ATOM      5  O   UNL     1      10.905  11.329  10.243  0.00  0.00    -0.480 OA
ATOM     31  H   UNL     1      11.636  11.961  10.415  0.00  0.00    +0.295 HD
ENDBRANCH  28   5
ENDBRANCH  27  28
ENDBRANCH   1  27
ENDBRANCH  20   1
ENDBRANCH  18  20
ENDBRANCH  14   8
TORSDOF 8
ENDMDL
MODEL 5
REMARK VINA RESULT:      -5.8     16.514     19.047
REMARK  Name = 11912948
REMARK  11 active torsions:
REMARK  status: ('A' for Active; 'I' for Inactive)
REMARK    1  A    between atoms: S_1  and  C_20
REMARK    2  A    between atoms: S_1  and  C_27
REMARK    3  A    between atoms: O_5  and  C_28
REMARK    4  A    between atoms: N_7  and  C_13
REMARK    5  A    between atoms: N_8  and  C_14
REMARK    6  A    between atoms: C_18  and  C_20
REMARK    7  A    between atoms: C_19  and  C_21
REMARK    8  A    between atoms: C_19  and  C_23
REMARK    9  A    between atoms: C_19  and  C_24
REMARK   10  A    between atoms: C_19  and  C_25
REMARK   11  A    between atoms: C_27  and  C_28
REMARK                            x       y       z     vdW  Elec       q    Type
REMARK                         _______ _______ _______ _____ _____    ______ ____
ROOT
ATOM      2  O   UNL     1      14.691   9.201   3.300  0.00  0.00    -0.370 OA
ATOM      3  O   UNL     1      14.945   6.994   5.492  0.00  0.00    -0.370 OA
ATOM     11  C   UNL     1      15.536   7.164   4.193  0.00  0.00    +0.171 C 
ATOM     12  C   UNL     1      14.481   7.779   3.295  0.00  0.00    +0.171 C 
ATOM     13  C   UNL     1      16.629   8.205   4.246  0.00  0.00    +0.130 C 
ATOM     14  C   UNL     1      13.174   7.437   3.975  0.00  0.00    +0.130 C 
ATOM     15  C   UNL     1      15.861   9.503   4.075  0.00  0.00    +0.185 C 
ATOM     16  C   UNL     1      13.571   7.404   5.441  0.00  0.00    +0.185 C 
ENDROOT
BRANCH  13   7
ATOM      7  N   UNL     1      17.546   8.017   3.143  0.00  0.00    -0.306 N 
ATOM      9  N   UNL     1      19.374   8.637   4.434  0.00  0.00    -0.219 NA
ATOM     10  N   UNL     1      19.631   8.012   2.122  0.00  0.00    -0.223 NA
ATOM     17  C   UNL     1      18.909   8.232   3.237  0.00  0.00    +0.216 A 
ATOM     21  C   UNL     1      20.707   8.837   4.490  0.00  0.00    +0.052 A 
ATOM     22  C   UNL     1      21.556   8.646   3.419  0.00  0.00    +0.043 A 
ATOM     26  C   UNL     1      20.957   8.230   2.248  0.00  0.00    +0.116 A 
ATOM     29  H   UNL     1      17.197   7.662   2.260  0.00  0.00    +0.149 HD
BRANCH  21  19
ATOM     19  C   UNL     1      21.264   9.287   5.799  0.00  0.00    +0.005 C 
ATOM     23  C   UNL     1      22.823   9.215   5.803  0.00  0.00    +0.017 C 
ATOM     24  C   UNL     1      20.748   8.395   6.971  0.00  0.00    +0.017 C 
ATOM     25  C   UNL     1      20.914  10.755   6.208  0.00  0.00    +0.017 C 
ENDBRANCH  21  19
ENDBRANCH  13   7
BRANCH  14   8
ATOM      4  O   UNL     1      10.422   6.544   3.942  0.00  0.00    -0.275 OA
ATOM      8  N   UNL     1      12.678   6.156   3.538  0.00  0.00    -0.307 N 
ATOM     18  C   UNL     1      11.333   5.813   3.558  0.00  0.00    +0.223 C 
ATOM     30  H   UNL     1      13.358   5.455   3.258  0.00  0.00    +0.149 HD
BRANCH  18  20
ATOM     20  C   UNL     1      11.073   4.409   3.068  0.00  0.00    +0.165 C 
BRANCH  20   1
ATOM      1  S   UNL     1      11.693   4.253   1.375  0.00  0.00    -0.140 S 
BRANCH   1  27
ATOM     27  C   UNL     1      13.045   3.094   1.690  0.00  0.00    +0.189 C 
BRANCH  27  28
ATOM      6  O   UNL     1      14.493   4.952   1.178  0.00  0.00    -0.250 OA
ATOM     28  C   UNL     1      14.353   3.832   1.651  0.00  0.00    +0.315 C 
BRANCH  28   5
ATOM      5  O   UNL     1      15.368   3.129   2.215  0.00  0.00    -0.480 OA
ATOM     31  H   UNL     1      15.046   2.317   2.663  0.00  0.00    +0.295 HD
ENDBRANCH  28   5
ENDBRANCH  27  28
ENDBRANCH   1  27
ENDBRANCH  20   1
ENDBRANCH  18  20
ENDBRANCH  14   8
TORSDOF 8
ENDMDL
MODEL 6
REMARK VINA RESULT:      -5.7     17.777     21.175
REMARK  Name = 11912948
REMARK  11 active torsions:
REMARK  status: ('A' for Active; 'I' for Inactive)
REMARK    1  A    between atoms: S_1  and  C_20
REMARK    2  A    between atoms: S_1  and  C_27
REMARK    3  A    between atoms: O_5  and  C_28
REMARK    4  A    between atoms: N_7  and  C_13
REMARK    5  A    between atoms: N_8  and  C_14
REMARK    6  A    between atoms: C_18  and  C_20
REMARK    7  A    between atoms: C_19  and  C_21
REMARK    8  A    between atoms: C_19  and  C_23
REMARK    9  A    between atoms: C_19  and  C_24
REMARK   10  A    between atoms: C_19  and  C_25
REMARK   11  A    between atoms: C_27  and  C_28
REMARK                            x       y       z     vdW  Elec       q    Type
REMARK                         _______ _______ _______ _____ _____    ______ ____
ROOT
ATOM      2  O   UNL     1      10.511   4.530   4.718  0.00  0.00    -0.370 OA
ATOM      3  O   UNL     1       9.696   7.188   3.303  0.00  0.00    -0.370 OA
ATOM     11  C   UNL     1      10.963   6.604   3.645  0.00  0.00    +0.171 C 
ATOM     12  C   UNL     1      10.794   5.913   4.983  0.00  0.00    +0.171 C 
ATOM     13  C   UNL     1      11.298   5.483   2.690  0.00  0.00    +0.130 C 
ATOM     14  C   UNL     1       9.588   6.589   5.596  0.00  0.00    +0.130 C 
ATOM     15  C   UNL     1      10.577   4.297   3.302  0.00  0.00    +0.185 C 
ATOM     16  C   UNL     1       8.768   6.960   4.373  0.00  0.00    +0.185 C 
ENDROOT
BRANCH  13   7
ATOM      7  N   UNL     1      12.726   5.251   2.681  0.00  0.00    -0.306 N 
ATOM      9  N   UNL     1      12.697   4.578   0.459  0.00  0.00    -0.219 NA
ATOM     10  N   UNL     1      14.749   4.635   1.721  0.00  0.00    -0.223 NA
ATOM     17  C   UNL     1      13.421   4.801   1.572  0.00  0.00    +0.216 A 
ATOM     21  C   UNL     1      13.407   4.140  -0.603  0.00  0.00    +0.052 A 
ATOM     22  C   UNL     1      14.771   3.930  -0.580  0.00  0.00    +0.043 A 
ATOM     26  C   UNL     1      15.395   4.196   0.621  0.00  0.00    +0.116 A 
ATOM     29  H   UNL     1      13.272   5.471   3.506  0.00  0.00    +0.149 HD
BRANCH  21  19
ATOM     19  C   UNL     1      12.644   3.880  -1.859  0.00  0.00    +0.005 C 
ATOM     23  C   UNL     1      13.488   4.250  -3.118  0.00  0.00    +0.017 C 
ATOM     24  C   UNL     1      11.331   4.721  -1.908  0.00  0.00    +0.017 C 
ATOM     25  C   UNL     1      12.198   2.397  -2.078  0.00  0.00    +0.017 C 
ENDBRANCH  21  19
ENDBRANCH  13   7
BRANCH  14   8
ATOM      4  O   UNL     1       8.482   7.500   8.111  0.00  0.00    -0.275 OA
ATOM      8  N   UNL     1       9.971   7.761   6.345  0.00  0.00    -0.307 N 
ATOM     18  C   UNL     1       9.382   8.121   7.548  0.00  0.00    +0.223 C 
ATOM     30  H   UNL     1      10.666   8.378   5.936  0.00  0.00    +0.149 HD
BRANCH  18  20
ATOM     20  C   UNL     1       9.945   9.399   8.124  0.00  0.00    +0.165 C 
BRANCH  20   1
ATOM      1  S   UNL     1      10.729  10.346   6.797  0.00  0.00    -0.140 S 
BRANCH   1  27
ATOM     27  C   UNL     1      12.393  10.462   7.496  0.00  0.00    +0.189 C 
BRANCH  27  28
ATOM      6  O   UNL     1      12.886   8.480   6.216  0.00  0.00    -0.250 OA
ATOM     28  C   UNL     1      13.289   9.467   6.816  0.00  0.00    +0.315 C 
BRANCH  28   5
ATOM      5  O   UNL     1      14.604   9.789   6.923  0.00  0.00    -0.480 OA
ATOM     31  H   UNL     1      14.866   9.957   7.854  0.00  0.00    +0.295 HD
ENDBRANCH  28   5
ENDBRANCH  27  28
ENDBRANCH   1  27
ENDBRANCH  20   1
ENDBRANCH  18  20
ENDBRANCH  14   8
TORSDOF 8
ENDMDL
MODEL 7
REMARK VINA RESULT:      -5.7     29.006     31.469
REMARK  Name = 11912948
REMARK  11 active torsions:
REMARK  status: ('A' for Active; 'I' for Inactive)
REMARK    1  A    between atoms: S_1  and  C_20
REMARK    2  A    between atoms: S_1  and  C_27
REMARK    3  A    between atoms: O_5  and  C_28
REMARK    4  A    between atoms: N_7  and  C_13
REMARK    5  A    between atoms: N_8  and  C_14
REMARK    6  A    between atoms: C_18  and  C_20
REMARK    7  A    between atoms: C_19  and  C_21
REMARK    8  A    between atoms: C_19  and  C_23
REMARK    9  A    between atoms: C_19  and  C_24
REMARK   10  A    between atoms: C_19  and  C_25
REMARK   11  A    between atoms: C_27  and  C_28
REMARK                            x       y       z     vdW  Elec       q    Type
REMARK                         _______ _______ _______ _____ _____    ______ ____
ROOT
ATOM      2  O   UNL     1      -4.993 -10.982  19.560  0.00  0.00    -0.370 OA
ATOM      3  O   UNL     1      -6.810 -12.792  17.784  0.00  0.00    -0.370 OA
ATOM     11  C   UNL     1      -6.003 -11.636  17.508  0.00  0.00    +0.171 C 
ATOM     12  C   UNL     1      -6.115 -10.713  18.705  0.00  0.00    +0.171 C 
ATOM     13  C   UNL     1      -4.541 -12.015  17.469  0.00  0.00    +0.130 C 
ATOM     14  C   UNL     1      -7.402 -11.135  19.376  0.00  0.00    +0.130 C 
ATOM     15  C   UNL     1      -4.143 -11.954  18.932  0.00  0.00    +0.185 C 
ATOM     16  C   UNL     1      -7.468 -12.616  19.047  0.00  0.00    +0.185 C 
ENDROOT
BRANCH  13   7
ATOM      7  N   UNL     1      -3.796 -11.037  16.707  0.00  0.00    -0.306 N 
ATOM      9  N   UNL     1      -3.230 -12.597  15.083  0.00  0.00    -0.219 NA
ATOM     10  N   UNL     1      -2.496 -10.308  14.927  0.00  0.00    -0.223 NA
ATOM     17  C   UNL     1      -3.146 -11.327  15.521  0.00  0.00    +0.216 A 
ATOM     21  C   UNL     1      -2.584 -12.844  13.924  0.00  0.00    +0.052 A 
ATOM     22  C   UNL     1      -1.883 -11.887  13.218  0.00  0.00    +0.043 A 
ATOM     26  C   UNL     1      -1.872 -10.624  13.773  0.00  0.00    +0.116 A 
ATOM     29  H   UNL     1      -3.781 -10.072  17.014  0.00  0.00    +0.149 HD
BRANCH  21  19
ATOM     19  C   UNL     1      -2.652 -14.240  13.401  0.00  0.00    +0.005 C 
ATOM     23  C   UNL     1      -1.235 -14.890  13.343  0.00  0.00    +0.017 C 
ATOM     24  C   UNL     1      -3.246 -14.276  11.959  0.00  0.00    +0.017 C 
ATOM     25  C   UNL     1      -3.529 -15.228  14.239  0.00  0.00    +0.017 C 
ENDBRANCH  21  19
ENDBRANCH  13   7
BRANCH  14   8
ATOM      4  O   UNL     1     -10.089 -11.032  20.447  0.00  0.00    -0.275 OA
ATOM      8  N   UNL     1      -8.533 -10.426  18.830  0.00  0.00    -0.307 N 
ATOM     18  C   UNL     1      -9.791 -10.434  19.415  0.00  0.00    +0.223 C 
ATOM     30  H   UNL     1      -8.409  -9.948  17.942  0.00  0.00    +0.149 HD
BRANCH  18  20
ATOM     20  C   UNL     1     -10.809  -9.631  18.640  0.00  0.00    +0.165 C 
BRANCH  20   1
ATOM      1  S   UNL     1      -9.957  -8.689  17.351  0.00  0.00    -0.140 S 
BRANCH   1  27
ATOM     27  C   UNL     1     -11.408  -8.041  16.489  0.00  0.00    +0.189 C 
BRANCH  27  28
ATOM      6  O   UNL     1     -11.930  -5.817  15.716  0.00  0.00    -0.250 OA
ATOM     28  C   UNL     1     -11.091  -6.682  15.933  0.00  0.00    +0.315 C 
BRANCH  28   5
ATOM      5  O   UNL     1      -9.764  -6.505  15.709  0.00  0.00    -0.480 OA
ATOM     31  H   UNL     1      -9.548  -5.569  15.508  0.00  0.00    +0.295 HD
ENDBRANCH  28   5
ENDBRANCH  27  28
ENDBRANCH   1  27
ENDBRANCH  20   1
ENDBRANCH  18  20
ENDBRANCH  14   8
TORSDOF 8
ENDMDL
MODEL 8
REMARK VINA RESULT:      -5.7     18.610     22.742
REMARK  Name = 11912948
REMARK  11 active torsions:
REMARK  status: ('A' for Active; 'I' for Inactive)
REMARK    1  A    between atoms: S_1  and  C_20
REMARK    2  A    between atoms: S_1  and  C_27
REMARK    3  A    between atoms: O_5  and  C_28
REMARK    4  A    between atoms: N_7  and  C_13
REMARK    5  A    between atoms: N_8  and  C_14
REMARK    6  A    between atoms: C_18  and  C_20
REMARK    7  A    between atoms: C_19  and  C_21
REMARK    8  A    between atoms: C_19  and  C_23
REMARK    9  A    between atoms: C_19  and  C_24
REMARK   10  A    between atoms: C_19  and  C_25
REMARK   11  A    between atoms: C_27  and  C_28
REMARK                            x       y       z     vdW  Elec       q    Type
REMARK                         _______ _______ _______ _____ _____    ______ ____
ROOT
ATOM      2  O   UNL     1      12.735   2.856   1.350  0.00  0.00    -0.370 OA
ATOM      3  O   UNL     1      11.442   5.613   0.668  0.00  0.00    -0.370 OA
ATOM     11  C   UNL     1      12.792   5.198   0.935  0.00  0.00    +0.171 C 
ATOM     12  C   UNL     1      12.731   4.132   2.011  0.00  0.00    +0.171 C 
ATOM     13  C   UNL     1      13.366   4.481  -0.264  0.00  0.00    +0.130 C 
ATOM     14  C   UNL     1      11.401   4.370   2.689  0.00  0.00    +0.130 C 
ATOM     15  C   UNL     1      12.880   3.057  -0.064  0.00  0.00    +0.185 C 
ATOM     16  C   UNL     1      10.553   4.920   1.555  0.00  0.00    +0.185 C 
ENDROOT
BRANCH  13   7
ATOM      7  N   UNL     1      14.811   4.527  -0.223  0.00  0.00    -0.306 N 
ATOM      9  N   UNL     1      14.960   4.835  -2.520  0.00  0.00    -0.219 NA
ATOM     10  N   UNL     1      16.934   4.726  -1.143  0.00  0.00    -0.223 NA
ATOM     17  C   UNL     1      15.603   4.704  -1.344  0.00  0.00    +0.216 A 
ATOM     21  C   UNL     1      15.763   5.006  -3.592  0.00  0.00    +0.052 A 
ATOM     22  C   UNL     1      17.140   5.048  -3.519  0.00  0.00    +0.043 A 
ATOM     26  C   UNL     1      17.676   4.901  -2.256  0.00  0.00    +0.116 A 
ATOM     29  H   UNL     1      15.286   4.480   0.671  0.00  0.00    +0.149 HD
BRANCH  21  19
ATOM     19  C   UNL     1      15.091   5.157  -4.916  0.00  0.00    +0.005 C 
ATOM     23  C   UNL     1      16.017   4.676  -6.075  0.00  0.00    +0.017 C 
ATOM     24  C   UNL     1      14.720   6.646  -5.196  0.00  0.00    +0.017 C 
ATOM     25  C   UNL     1      13.759   4.356  -5.087  0.00  0.00    +0.017 C 
ENDBRANCH  21  19
ENDBRANCH  13   7
BRANCH  14   8
ATOM      4  O   UNL     1       9.722   4.598   5.036  0.00  0.00    -0.275 OA
ATOM      8  N   UNL     1      11.525   5.326   3.762  0.00  0.00    -0.307 N 
ATOM     18  C   UNL     1      10.669   5.361   4.853  0.00  0.00    +0.223 C 
ATOM     30  H   UNL     1      12.240   6.042   3.677  0.00  0.00    +0.149 HD
BRANCH  18  20
ATOM     20  C   UNL     1      10.997   6.467   5.827  0.00  0.00    +0.165 C 
BRANCH  20   1
ATOM      1  S   UNL     1       9.611   6.673   6.971  0.00  0.00    -0.140 S 
BRANCH   1  27
ATOM     27  C   UNL     1      10.387   5.998   8.458  0.00  0.00    +0.189 C 
BRANCH  27  28
ATOM      6  O   UNL     1       8.986   4.407   9.606  0.00  0.00    -0.250 OA
ATOM     28  C   UNL     1       9.821   4.636   8.741  0.00  0.00    +0.315 C 
BRANCH  28   5
ATOM      5  O   UNL     1      10.323   3.680   7.919  0.00  0.00    -0.480 OA
ATOM     31  H   UNL     1      10.562   2.863   8.409  0.00  0.00    +0.295 HD
ENDBRANCH  28   5
ENDBRANCH  27  28
ENDBRANCH   1  27
ENDBRANCH  20   1
ENDBRANCH  18  20
ENDBRANCH  14   8
TORSDOF 8
ENDMDL
MODEL 9
REMARK VINA RESULT:      -5.7     28.560     31.982
REMARK  Name = 11912948
REMARK  11 active torsions:
REMARK  status: ('A' for Active; 'I' for Inactive)
REMARK    1  A    between atoms: S_1  and  C_20
REMARK    2  A    between atoms: S_1  and  C_27
REMARK    3  A    between atoms: O_5  and  C_28
REMARK    4  A    between atoms: N_7  and  C_13
REMARK    5  A    between atoms: N_8  and  C_14
REMARK    6  A    between atoms: C_18  and  C_20
REMARK    7  A    between atoms: C_19  and  C_21
REMARK    8  A    between atoms: C_19  and  C_23
REMARK    9  A    between atoms: C_19  and  C_24
REMARK   10  A    between atoms: C_19  and  C_25
REMARK   11  A    between atoms: C_27  and  C_28
REMARK                            x       y       z     vdW  Elec       q    Type
REMARK                         _______ _______ _______ _____ _____    ______ ____
ROOT
ATOM      2  O   UNL     1      -4.745  -8.873  10.085  0.00  0.00    -0.370 OA
ATOM      3  O   UNL     1      -5.784 -11.813  10.174  0.00  0.00    -0.370 OA
ATOM     11  C   UNL     1      -4.519 -11.207  10.485  0.00  0.00    +0.171 C 
ATOM     12  C   UNL     1      -4.293 -10.095   9.480  0.00  0.00    +0.171 C 
ATOM     13  C   UNL     1      -4.592 -10.494  11.815  0.00  0.00    +0.130 C 
ATOM     14  C   UNL     1      -5.183 -10.466   8.315  0.00  0.00    +0.130 C 
ATOM     15  C   UNL     1      -5.158  -9.138  11.434  0.00  0.00    +0.185 C 
ATOM     16  C   UNL     1      -6.328 -11.192   9.000  0.00  0.00    +0.185 C 
ENDROOT
BRANCH  13   7
ATOM      7  N   UNL     1      -3.265 -10.344  12.370  0.00  0.00    -0.306 N 
ATOM      9  N   UNL     1      -4.025 -10.728  14.531  0.00  0.00    -0.219 NA
ATOM     10  N   UNL     1      -1.697 -10.296  14.082  0.00  0.00    -0.223 NA
ATOM     17  C   UNL     1      -2.983 -10.461  13.720  0.00  0.00    +0.216 A 
ATOM     21  C   UNL     1      -3.714 -10.835  15.840  0.00  0.00    +0.052 A 
ATOM     22  C   UNL     1      -2.435 -10.689  16.338  0.00  0.00    +0.043 A 
ATOM     26  C   UNL     1      -1.457 -10.417  15.404  0.00  0.00    +0.116 A 
ATOM     29  H   UNL     1      -2.479 -10.195  11.749  0.00  0.00    +0.149 HD
BRANCH  21  19
ATOM     19  C   UNL     1      -4.838 -11.131  16.775  0.00  0.00    +0.005 C 
ATOM     23  C   UNL     1      -4.313 -11.422  18.214  0.00  0.00    +0.017 C 
ATOM     24  C   UNL     1      -5.649 -12.380  16.307  0.00  0.00    +0.017 C 
ATOM     25  C   UNL     1      -5.892  -9.987  16.939  0.00  0.00    +0.017 C 
ENDBRANCH  21  19
ENDBRANCH  13   7
BRANCH  14   8
ATOM      4  O   UNL     1      -5.736 -10.800   5.493  0.00  0.00    -0.275 OA
ATOM      8  N   UNL     1      -4.496 -11.330   7.387  0.00  0.00    -0.307 N 
ATOM     18  C   UNL     1      -4.832 -11.426   6.044  0.00  0.00    +0.223 C 
ATOM     30  H   UNL     1      -3.770 -11.938   7.755  0.00  0.00    +0.149 HD
BRANCH  18  20
ATOM     20  C   UNL     1      -3.975 -12.413   5.289  0.00  0.00    +0.165 C 
BRANCH  20   1
ATOM      1  S   UNL     1      -4.589 -12.547   3.592  0.00  0.00    -0.140 S 
BRANCH   1  27
ATOM     27  C   UNL     1      -2.999 -12.697   2.743  0.00  0.00    +0.189 C 
BRANCH  27  28
ATOM      6  O   UNL     1      -4.335 -12.922   0.749  0.00  0.00    -0.250 OA
ATOM     28  C   UNL     1      -3.238 -12.981   1.287  0.00  0.00    +0.315 C 
BRANCH  28   5
ATOM      5  O   UNL     1      -2.097 -13.297   0.622  0.00  0.00    -0.480 OA
ATOM     31  H   UNL     1      -1.311 -12.858   1.013  0.00  0.00    +0.295 HD
ENDBRANCH  28   5
ENDBRANCH  27  28
ENDBRANCH   1  27
ENDBRANCH  20   1
ENDBRANCH  18  20
ENDBRANCH  14   8
TORSDOF 8
ENDMDL
MODEL 10
REMARK VINA RESULT:      -5.7      2.562      3.838
REMARK  Name = 11912948
REMARK  11 active torsions:
REMARK  status: ('A' for Active; 'I' for Inactive)
REMARK    1  A    between atoms: S_1  and  C_20
REMARK    2  A    between atoms: S_1  and  C_27
REMARK    3  A    between atoms: O_5  and  C_28
REMARK    4  A    between atoms: N_7  and  C_13
REMARK    5  A    between atoms: N_8  and  C_14
REMARK    6  A    between atoms: C_18  and  C_20
REMARK    7  A    between atoms: C_19  and  C_21
REMARK    8  A    between atoms: C_19  and  C_23
REMARK    9  A    between atoms: C_19  and  C_24
REMARK   10  A    between atoms: C_19  and  C_25
REMARK   11  A    between atoms: C_27  and  C_28
REMARK                            x       y       z     vdW  Elec       q    Type
REMARK                         _______ _______ _______ _____ _____    ______ ____
ROOT
ATOM      2  O   UNL     1      18.777   7.737  22.453  0.00  0.00    -0.370 OA
ATOM      3  O   UNL     1      17.859   5.904  20.101  0.00  0.00    -0.370 OA
ATOM     11  C   UNL     1      18.813   6.973  20.200  0.00  0.00    +0.171 C 
ATOM     12  C   UNL     1      18.236   8.005  21.149  0.00  0.00    +0.171 C 
ATOM     13  C   UNL     1      20.067   6.494  20.892  0.00  0.00    +0.130 C 
ATOM     14  C   UNL     1      16.749   7.732  21.129  0.00  0.00    +0.130 C 
ATOM     15  C   UNL     1      19.719   6.657  22.361  0.00  0.00    +0.185 C 
ATOM     16  C   UNL     1      16.698   6.236  20.876  0.00  0.00    +0.185 C 
ENDROOT
BRANCH  13   7
ATOM      7  N   UNL     1      21.182   7.348  20.544  0.00  0.00    -0.306 N 
ATOM      9  N   UNL     1      22.698   5.597  20.720  0.00  0.00    -0.219 NA
ATOM     10  N   UNL     1      23.416   7.818  20.121  0.00  0.00    -0.223 NA
ATOM     17  C   UNL     1      22.489   6.902  20.458  0.00  0.00    +0.216 A 
ATOM     21  C   UNL     1      23.983   5.197  20.627  0.00  0.00    +0.052 A 
ATOM     22  C   UNL     1      25.025   6.037  20.290  0.00  0.00    +0.043 A 
ATOM     26  C   UNL     1      24.679   7.350  20.046  0.00  0.00    +0.116 A 
ATOM     29  H   UNL     1      21.010   8.315  20.297  0.00  0.00    +0.149 HD
BRANCH  21  19
ATOM     19  C   UNL     1      24.260   3.758  20.910  0.00  0.00    +0.005 C 
ATOM     23  C   UNL     1      22.957   3.003  21.315  0.00  0.00    +0.017 C 
ATOM     24  C   UNL     1      25.282   3.597  22.078  0.00  0.00    +0.017 C 
ATOM     25  C   UNL     1      24.859   2.944  19.716  0.00  0.00    +0.017 C 
ENDBRANCH  21  19
ENDBRANCH  13   7
BRANCH  14   8
ATOM      4  O   UNL     1      14.266   9.211  21.294  0.00  0.00    -0.275 OA
ATOM      8  N   UNL     1      16.098   8.465  20.072  0.00  0.00    -0.307 N 
ATOM     18  C   UNL     1      14.902   9.148  20.243  0.00  0.00    +0.223 C 
ATOM     30  H   UNL     1      16.511   8.425  19.144  0.00  0.00    +0.149 HD
BRANCH  18  20
ATOM     20  C   UNL     1      14.418   9.819  18.980  0.00  0.00    +0.165 C 
BRANCH  20   1
ATOM      1  S   UNL     1      14.060   8.550  17.741  0.00  0.00    -0.140 S 
BRANCH   1  27
ATOM     27  C   UNL     1      12.529   9.246  17.078  0.00  0.00    +0.189 C 
BRANCH  27  28
ATOM      6  O   UNL     1      10.996   8.415  18.742  0.00  0.00    -0.250 OA
ATOM     28  C   UNL     1      11.361   8.443  17.574  0.00  0.00    +0.315 C 
BRANCH  28   5
ATOM      5  O   UNL     1      10.736   7.759  16.582  0.00  0.00    -0.480 OA
ATOM     31  H   UNL     1      10.872   6.790  16.663  0.00  0.00    +0.295 HD
ENDBRANCH  28   5
ENDBRANCH  27  28
ENDBRANCH   1  27
ENDBRANCH  20   1
ENDBRANCH  18  20
ENDBRANCH  14   8
TORSDOF 8
ENDMDL
