MODEL 1
REMARK VINA RESULT:      -8.1      0.000      0.000
REMARK  Name = 11911750
REMARK  4 active torsions:
REMARK  status: ('A' for Active; 'I' for Inactive)
REMARK    1  A    between atoms: C_16  and  C_19
REMARK    2  A    between atoms: C_17  and  C_20
REMARK    3  A    between atoms: C_23  and  C_27
REMARK    4  A    between atoms: C_26  and  C_30
REMARK                            x       y       z     vdW  Elec       q    Type
REMARK                         _______ _______ _______ _____ _____    ______ ____
ROOT
ATOM      2  O   UNL     1      15.313   6.029  21.181  0.00  0.00    -0.267 OA
ATOM      3  O   UNL     1      11.664   7.314  17.752  0.00  0.00    -0.270 OA
ATOM      4  N   UNL     1      11.700   8.968  19.406  0.00  0.00    -0.297 N 
ATOM      5  N   UNL     1      14.115   8.029  21.235  0.00  0.00    -0.311 N 
ATOM      7  C   UNL     1      11.605   8.113  21.741  0.00  0.00    +0.027 C 
ATOM      8  C   UNL     1      12.826  10.193  21.249  0.00  0.00    +0.054 C 
ATOM      9  C   UNL     1      11.901   9.516  22.259  0.00  0.00    +0.018 C 
ATOM     10  C   UNL     1      10.922   8.182  20.363  0.00  0.00    +0.113 C 
ATOM     11  C   UNL     1      12.915   7.317  21.697  0.00  0.00    +0.130 C 
ATOM     12  C   UNL     1      12.115  10.297  19.885  0.00  0.00    +0.117 C 
ATOM     13  C   UNL     1      14.121   9.418  21.092  0.00  0.00    +0.027 A 
ATOM     14  C   UNL     1      15.259  10.059  20.781  0.00  0.00    +0.022 A 
ATOM     15  C   UNL     1      15.277   7.254  21.044  0.00  0.00    +0.259 A 
ATOM     16  C   UNL     1      12.008   8.423  18.157  0.00  0.00    +0.247 C 
ATOM     17  C   UNL     1      16.531   7.997  20.666  0.00  0.00    +0.040 A 
ATOM     18  C   UNL     1      16.477   9.333  20.565  0.00  0.00    +0.015 A 
ENDROOT
BRANCH  16  19
ATOM     19  C   UNL     1      12.829   9.222  17.243  0.00  0.00    +0.037 A 
ATOM     21  C   UNL     1      14.114   9.604  17.619  0.00  0.00    +0.014 A 
ATOM     22  C   UNL     1      12.320   9.593  16.000  0.00  0.00    +0.014 A 
ATOM     24  C   UNL     1      14.896  10.363  16.747  0.00  0.00    +0.019 A 
ATOM     25  C   UNL     1      13.102  10.353  15.129  0.00  0.00    +0.019 A 
ATOM     26  C   UNL     1      14.389  10.737  15.503  0.00  0.00    +0.052 A 
BRANCH  26  30
ATOM      6  N   UNL     1      15.841  12.150  13.886  0.00  0.00    -0.191 NA
ATOM     30  C   UNL     1      15.190  11.516  14.611  0.00  0.00    +0.099 C 
ENDBRANCH  26  30
ENDBRANCH  16  19
BRANCH  17  20
ATOM     20  C   UNL     1      17.755   7.273  20.433  0.00  0.00    +0.014 C 
ATOM     23  C   UNL     1      18.899   7.554  21.067  0.00  0.00    +0.008 C 
BRANCH  23  27
ATOM      1 CL   UNL     1      24.068   4.703  20.204  0.00  0.00    -0.084 Cl
ATOM     27  C   UNL     1      20.175   6.849  20.854  0.00  0.00    -0.025 A 
ATOM     28  C   UNL     1      21.348   7.582  20.760  0.00  0.00    +0.009 A 
ATOM     29  C   UNL     1      20.180   5.468  20.752  0.00  0.00    +0.009 A 
ATOM     31  C   UNL     1      22.557   6.916  20.557  0.00  0.00    +0.020 A 
ATOM     32  C   UNL     1      21.388   4.801  20.551  0.00  0.00    +0.020 A 
ATOM     33  C   UNL     1      22.577   5.526  20.453  0.00  0.00    +0.041 A 
ENDBRANCH  23  27
ENDBRANCH  17  20
TORSDOF 4
ENDMDL
MODEL 2
REMARK VINA RESULT:      -7.8      2.159      2.606
REMARK  Name = 11911750
REMARK  4 active torsions:
REMARK  status: ('A' for Active; 'I' for Inactive)
REMARK    1  A    between atoms: C_16  and  C_19
REMARK    2  A    between atoms: C_17  and  C_20
REMARK    3  A    between atoms: C_23  and  C_27
REMARK    4  A    between atoms: C_26  and  C_30
REMARK                            x       y       z     vdW  Elec       q    Type
REMARK                         _______ _______ _______ _____ _____    ______ ____
ROOT
ATOM      2  O   UNL     1      15.728   5.967  19.380  0.00  0.00    -0.267 OA
ATOM      3  O   UNL     1      12.986   9.767  17.198  0.00  0.00    -0.270 OA
ATOM      4  N   UNL     1      12.399   9.675  19.461  0.00  0.00    -0.297 N 
ATOM      5  N   UNL     1      14.340   7.420  20.562  0.00  0.00    -0.311 N 
ATOM      7  C   UNL     1      11.792   7.409  20.292  0.00  0.00    +0.027 C 
ATOM      8  C   UNL     1      12.856   9.025  21.813  0.00  0.00    +0.054 C 
ATOM      9  C   UNL     1      11.781   7.944  21.720  0.00  0.00    +0.018 C 
ATOM     10  C   UNL     1      11.492   8.541  19.292  0.00  0.00    +0.113 C 
ATOM     11  C   UNL     1      13.150   6.747  20.024  0.00  0.00    +0.130 C 
ATOM     12  C   UNL     1      12.521  10.174  20.840  0.00  0.00    +0.117 C 
ATOM     13  C   UNL     1      14.226   8.462  21.485  0.00  0.00    +0.027 A 
ATOM     14  C   UNL     1      15.325   8.984  22.051  0.00  0.00    +0.022 A 
ATOM     15  C   UNL     1      15.591   6.898  20.177  0.00  0.00    +0.259 A 
ATOM     16  C   UNL     1      13.083  10.179  18.353  0.00  0.00    +0.247 C 
ATOM     17  C   UNL     1      16.808   7.524  20.804  0.00  0.00    +0.040 A 
ATOM     18  C   UNL     1      16.632   8.506  21.700  0.00  0.00    +0.015 A 
ENDROOT
BRANCH  16  19
ATOM     19  C   UNL     1      14.020  11.286  18.569  0.00  0.00    +0.037 A 
ATOM     21  C   UNL     1      15.336  11.019  18.939  0.00  0.00    +0.014 A 
ATOM     22  C   UNL     1      13.589  12.600  18.401  0.00  0.00    +0.014 A 
ATOM     24  C   UNL     1      16.227  12.073  19.142  0.00  0.00    +0.019 A 
ATOM     25  C   UNL     1      14.481  13.654  18.606  0.00  0.00    +0.019 A 
ATOM     26  C   UNL     1      15.799  13.390  18.976  0.00  0.00    +0.052 A 
BRANCH  26  30
ATOM      6  N   UNL     1      17.454  15.347  19.359  0.00  0.00    -0.191 NA
ATOM     30  C   UNL     1      16.712  14.469  19.187  0.00  0.00    +0.099 C 
ENDBRANCH  26  30
ENDBRANCH  16  19
BRANCH  17  20
ATOM     20  C   UNL     1      18.124   7.059  20.446  0.00  0.00    +0.014 C 
ATOM     23  C   UNL     1      19.040   6.698  21.352  0.00  0.00    +0.008 C 
BRANCH  23  27
ATOM      1 CL   UNL     1      24.544   4.786  20.070  0.00  0.00    -0.084 Cl
ATOM     27  C   UNL     1      20.399   6.226  21.034  0.00  0.00    -0.025 A 
ATOM     28  C   UNL     1      20.662   4.865  21.029  0.00  0.00    +0.009 A 
ATOM     29  C   UNL     1      21.390   7.151  20.749  0.00  0.00    +0.009 A 
ATOM     31  C   UNL     1      21.949   4.418  20.730  0.00  0.00    +0.020 A 
ATOM     32  C   UNL     1      22.677   6.705  20.449  0.00  0.00    +0.020 A 
ATOM     33  C   UNL     1      22.956   5.337  20.440  0.00  0.00    +0.041 A 
ENDBRANCH  23  27
ENDBRANCH  17  20
TORSDOF 4
ENDMDL
MODEL 3
REMARK VINA RESULT:      -7.6     22.035     25.294
REMARK  Name = 11911750
REMARK  4 active torsions:
REMARK  status: ('A' for Active; 'I' for Inactive)
REMARK    1  A    between atoms: C_16  and  C_19
REMARK    2  A    between atoms: C_17  and  C_20
REMARK    3  A    between atoms: C_23  and  C_27
REMARK    4  A    between atoms: C_26  and  C_30
REMARK                            x       y       z     vdW  Elec       q    Type
REMARK                         _______ _______ _______ _____ _____    ______ ____
ROOT
ATOM      2  O   UNL     1       9.569  -9.626  31.763  0.00  0.00    -0.267 OA
ATOM      3  O   UNL     1       8.554  -9.409  36.827  0.00  0.00    -0.270 OA
ATOM      4  N   UNL     1       8.163  -7.283  35.932  0.00  0.00    -0.297 N 
ATOM      5  N   UNL     1       8.677  -7.759  32.837  0.00  0.00    -0.311 N 
ATOM      7  C   UNL     1      10.015  -6.382  34.534  0.00  0.00    +0.027 C 
ATOM      8  C   UNL     1       7.686  -5.769  34.022  0.00  0.00    +0.054 C 
ATOM      9  C   UNL     1       9.115  -5.232  34.096  0.00  0.00    +0.018 C 
ATOM     10  C   UNL     1       9.578  -6.912  35.912  0.00  0.00    +0.113 C 
ATOM     11  C   UNL     1       9.979  -7.474  33.457  0.00  0.00    +0.130 C 
ATOM     12  C   UNL     1       7.244  -6.256  35.417  0.00  0.00    +0.117 C 
ATOM     13  C   UNL     1       7.585  -6.910  33.027  0.00  0.00    +0.027 A 
ATOM     14  C   UNL     1       6.440  -7.126  32.360  0.00  0.00    +0.022 A 
ATOM     15  C   UNL     1       8.619  -8.868  31.969  0.00  0.00    +0.259 A 
ATOM     16  C   UNL     1       7.790  -8.547  36.396  0.00  0.00    +0.247 C 
ATOM     17  C   UNL     1       7.313  -9.102  31.258  0.00  0.00    +0.040 A 
ATOM     18  C   UNL     1       6.308  -8.240  31.466  0.00  0.00    +0.015 A 
ENDROOT
BRANCH  16  19
ATOM     19  C   UNL     1       6.368  -8.901  36.357  0.00  0.00    +0.037 A 
ATOM     21  C   UNL     1       5.814  -9.415  35.187  0.00  0.00    +0.014 A 
ATOM     22  C   UNL     1       5.579  -8.724  37.490  0.00  0.00    +0.014 A 
ATOM     24  C   UNL     1       4.461  -9.754  35.150  0.00  0.00    +0.019 A 
ATOM     25  C   UNL     1       4.225  -9.062  37.453  0.00  0.00    +0.019 A 
ATOM     26  C   UNL     1       3.668  -9.576  36.284  0.00  0.00    +0.052 A 
BRANCH  26  30
ATOM      6  N   UNL     1       1.154 -10.202  36.214  0.00  0.00    -0.191 NA
ATOM     30  C   UNL     1       2.281  -9.921  36.245  0.00  0.00    +0.099 C 
ENDBRANCH  26  30
ENDBRANCH  16  19
BRANCH  17  20
ATOM     20  C   UNL     1       7.168 -10.228  30.370  0.00  0.00    +0.014 C 
ATOM     23  C   UNL     1       6.628 -11.391  30.752  0.00  0.00    +0.008 C 
BRANCH  23  27
ATOM      1 CL   UNL     1       5.980 -16.172  27.243  0.00  0.00    -0.084 Cl
ATOM     27  C   UNL     1       6.468 -12.572  29.885  0.00  0.00    -0.025 A 
ATOM     28  C   UNL     1       5.293 -13.304  29.944  0.00  0.00    +0.009 A 
ATOM     29  C   UNL     1       7.496 -12.929  29.027  0.00  0.00    +0.009 A 
ATOM     31  C   UNL     1       5.141 -14.422  29.125  0.00  0.00    +0.020 A 
ATOM     32  C   UNL     1       7.345 -14.046  28.207  0.00  0.00    +0.020 A 
ATOM     33  C   UNL     1       6.167 -14.793  28.255  0.00  0.00    +0.041 A 
ENDBRANCH  23  27
ENDBRANCH  17  20
TORSDOF 4
ENDMDL
MODEL 4
REMARK VINA RESULT:      -7.6     26.399     29.451
REMARK  Name = 11911750
REMARK  4 active torsions:
REMARK  status: ('A' for Active; 'I' for Inactive)
REMARK    1  A    between atoms: C_16  and  C_19
REMARK    2  A    between atoms: C_17  and  C_20
REMARK    3  A    between atoms: C_23  and  C_27
REMARK    4  A    between atoms: C_26  and  C_30
REMARK                            x       y       z     vdW  Elec       q    Type
REMARK                         _______ _______ _______ _____ _____    ______ ____
ROOT
ATOM      2  O   UNL     1     -11.989  10.129  20.806  0.00  0.00    -0.267 OA
ATOM      3  O   UNL     1     -14.464  12.048  16.693  0.00  0.00    -0.270 OA
ATOM      4  N   UNL     1     -12.277  11.541  16.035  0.00  0.00    -0.297 N 
ATOM      5  N   UNL     1     -11.076  10.232  18.663  0.00  0.00    -0.311 N 
ATOM      7  C   UNL     1     -10.500  12.452  17.520  0.00  0.00    +0.027 C 
ATOM      8  C   UNL     1     -10.129  10.330  16.331  0.00  0.00    +0.054 C 
ATOM      9  C   UNL     1      -9.460  11.631  16.768  0.00  0.00    +0.018 C 
ATOM     10  C   UNL     1     -11.705  12.757  16.612  0.00  0.00    +0.113 C 
ATOM     11  C   UNL     1     -10.911  11.687  18.785  0.00  0.00    +0.130 C 
ATOM     12  C   UNL     1     -11.306  10.645  15.385  0.00  0.00    +0.117 C 
ATOM     13  C   UNL     1     -10.633   9.547  17.529  0.00  0.00    +0.027 A 
ATOM     14  C   UNL     1     -10.688   8.207  17.487  0.00  0.00    +0.022 A 
ATOM     15  C   UNL     1     -11.607   9.559  19.782  0.00  0.00    +0.259 A 
ATOM     16  C   UNL     1     -13.648  11.303  16.152  0.00  0.00    +0.247 C 
ATOM     17  C   UNL     1     -11.684   8.058  19.694  0.00  0.00    +0.040 A 
ATOM     18  C   UNL     1     -11.224   7.457  18.587  0.00  0.00    +0.015 A 
ENDROOT
BRANCH  16  19
ATOM     19  C   UNL     1     -14.177  10.051  15.603  0.00  0.00    +0.037 A 
ATOM     21  C   UNL     1     -14.648  10.013  14.292  0.00  0.00    +0.014 A 
ATOM     22  C   UNL     1     -14.206   8.905  16.394  0.00  0.00    +0.014 A 
ATOM     24  C   UNL     1     -15.150   8.821  13.770  0.00  0.00    +0.019 A 
ATOM     25  C   UNL     1     -14.709   7.713  15.872  0.00  0.00    +0.019 A 
ATOM     26  C   UNL     1     -15.181   7.672  14.560  0.00  0.00    +0.052 A 
BRANCH  26  30
ATOM      6  N   UNL     1     -16.118   5.459  13.590  0.00  0.00    -0.191 NA
ATOM     30  C   UNL     1     -15.698   6.451  14.025  0.00  0.00    +0.099 C 
ENDBRANCH  26  30
ENDBRANCH  16  19
BRANCH  17  20
ATOM     20  C   UNL     1     -12.235   7.299  20.789  0.00  0.00    +0.014 C 
ATOM     23  C   UNL     1     -13.522   6.937  20.849  0.00  0.00    +0.008 C 
BRANCH  23  27
ATOM      1 CL   UNL     1     -15.992   3.843  25.310  0.00  0.00    -0.084 Cl
ATOM     27  C   UNL     1     -14.132   6.172  21.950  0.00  0.00    -0.025 A 
ATOM     28  C   UNL     1     -15.380   6.544  22.425  0.00  0.00    +0.009 A 
ATOM     29  C   UNL     1     -13.447   5.097  22.491  0.00  0.00    +0.009 A 
ATOM     31  C   UNL     1     -15.958   5.821  23.469  0.00  0.00    +0.020 A 
ATOM     32  C   UNL     1     -14.024   4.373  23.534  0.00  0.00    +0.020 A 
ATOM     33  C   UNL     1     -15.280   4.735  24.023  0.00  0.00    +0.041 A 
ENDBRANCH  23  27
ENDBRANCH  17  20
TORSDOF 4
ENDMDL
MODEL 5
REMARK VINA RESULT:      -7.4     13.011     15.218
REMARK  Name = 11911750
REMARK  4 active torsions:
REMARK  status: ('A' for Active; 'I' for Inactive)
REMARK    1  A    between atoms: C_16  and  C_19
REMARK    2  A    between atoms: C_17  and  C_20
REMARK    3  A    between atoms: C_23  and  C_27
REMARK    4  A    between atoms: C_26  and  C_30
REMARK                            x       y       z     vdW  Elec       q    Type
REMARK                         _______ _______ _______ _____ _____    ______ ____
ROOT
ATOM      2  O   UNL     1      13.772   6.203   7.665  0.00  0.00    -0.267 OA
ATOM      3  O   UNL     1      10.543   3.911   4.343  0.00  0.00    -0.270 OA
ATOM      4  N   UNL     1       9.600   5.964   4.949  0.00  0.00    -0.297 N 
ATOM      5  N   UNL     1      11.848   7.206   6.811  0.00  0.00    -0.311 N 
ATOM      7  C   UNL     1       9.493   6.384   7.400  0.00  0.00    +0.027 C 
ATOM      8  C   UNL     1       9.780   8.272   5.847  0.00  0.00    +0.054 C 
ATOM      9  C   UNL     1       9.077   7.825   7.128  0.00  0.00    +0.018 C 
ATOM     10  C   UNL     1       9.084   5.475   6.226  0.00  0.00    +0.113 C 
ATOM     11  C   UNL     1      11.006   6.348   7.656  0.00  0.00    +0.130 C 
ATOM     12  C   UNL     1       9.327   7.384   4.671  0.00  0.00    +0.117 C 
ATOM     13  C   UNL     1      11.287   8.192   5.997  0.00  0.00    +0.027 A 
ATOM     14  C   UNL     1      12.080   9.040   5.323  0.00  0.00    +0.022 A 
ATOM     15  C   UNL     1      13.243   7.050   6.941  0.00  0.00    +0.259 A 
ATOM     16  C   UNL     1      10.312   5.097   4.117  0.00  0.00    +0.247 C 
ATOM     17  C   UNL     1      14.106   7.995   6.150  0.00  0.00    +0.040 A 
ATOM     18  C   UNL     1      13.509   8.934   5.403  0.00  0.00    +0.015 A 
ENDROOT
BRANCH  16  19
ATOM     19  C   UNL     1      10.855   5.636   2.866  0.00  0.00    +0.037 A 
ATOM     21  C   UNL     1      12.097   6.266   2.864  0.00  0.00    +0.014 A 
ATOM     22  C   UNL     1      10.126   5.513   1.685  0.00  0.00    +0.014 A 
ATOM     24  C   UNL     1      12.614   6.777   1.673  0.00  0.00    +0.019 A 
ATOM     25  C   UNL     1      10.643   6.025   0.494  0.00  0.00    +0.019 A 
ATOM     26  C   UNL     1      11.886   6.657   0.489  0.00  0.00    +0.052 A 
BRANCH  26  30
ATOM      6  N   UNL     1      12.845   7.610  -1.722  0.00  0.00    -0.191 NA
ATOM     30  C   UNL     1      12.415   7.182  -0.730  0.00  0.00    +0.099 C 
ENDBRANCH  26  30
ENDBRANCH  16  19
BRANCH  17  20
ATOM     20  C   UNL     1      15.542   7.885   6.214  0.00  0.00    +0.014 C 
ATOM     23  C   UNL     1      16.360   8.542   5.383  0.00  0.00    +0.008 C 
BRANCH  23  27
ATOM      1 CL   UNL     1      22.314   8.179   5.464  0.00  0.00    -0.084 Cl
ATOM     27  C   UNL     1      17.830   8.453   5.403  0.00  0.00    -0.025 A 
ATOM     28  C   UNL     1      18.504   8.078   4.251  0.00  0.00    +0.009 A 
ATOM     29  C   UNL     1      18.513   8.745   6.573  0.00  0.00    +0.009 A 
ATOM     31  C   UNL     1      19.896   7.993   4.270  0.00  0.00    +0.020 A 
ATOM     32  C   UNL     1      19.904   8.661   6.592  0.00  0.00    +0.020 A 
ATOM     33  C   UNL     1      20.596   8.284   5.440  0.00  0.00    +0.041 A 
ENDBRANCH  23  27
ENDBRANCH  17  20
TORSDOF 4
ENDMDL
MODEL 6
REMARK VINA RESULT:      -7.3     17.655     22.431
REMARK  Name = 11911750
REMARK  4 active torsions:
REMARK  status: ('A' for Active; 'I' for Inactive)
REMARK    1  A    between atoms: C_16  and  C_19
REMARK    2  A    between atoms: C_17  and  C_20
REMARK    3  A    between atoms: C_23  and  C_27
REMARK    4  A    between atoms: C_26  and  C_30
REMARK                            x       y       z     vdW  Elec       q    Type
REMARK                         _______ _______ _______ _____ _____    ______ ____
ROOT
ATOM      2  O   UNL     1      10.441   3.326  -2.254  0.00  0.00    -0.267 OA
ATOM      3  O   UNL     1      11.240   3.108   2.849  0.00  0.00    -0.270 OA
ATOM      4  N   UNL     1      12.821   4.575   1.943  0.00  0.00    -0.297 N 
ATOM      5  N   UNL     1      11.983   4.653  -1.116  0.00  0.00    -0.311 N 
ATOM      7  C   UNL     1      14.080   3.681  -0.009  0.00  0.00    +0.027 C 
ATOM      8  C   UNL     1      13.618   6.094   0.148  0.00  0.00    +0.054 C 
ATOM      9  C   UNL     1      14.675   5.064  -0.249  0.00  0.00    +0.018 C 
ATOM     10  C   UNL     1      13.704   3.508   1.474  0.00  0.00    +0.113 C 
ATOM     11  C   UNL     1      12.871   3.496  -0.935  0.00  0.00    +0.130 C 
ATOM     12  C   UNL     1      13.284   5.941   1.645  0.00  0.00    +0.117 C 
ATOM     13  C   UNL     1      12.356   5.926  -0.678  0.00  0.00    +0.027 A 
ATOM     14  C   UNL     1      11.583   6.987  -0.955  0.00  0.00    +0.022 A 
ATOM     15  C   UNL     1      10.792   4.431  -1.836  0.00  0.00    +0.259 A 
ATOM     16  C   UNL     1      11.631   4.246   2.597  0.00  0.00    +0.247 C 
ATOM     17  C   UNL     1       9.930   5.636  -2.105  0.00  0.00    +0.040 A 
ATOM     18  C   UNL     1      10.353   6.834  -1.677  0.00  0.00    +0.015 A 
ENDROOT
BRANCH  16  19
ATOM     19  C   UNL     1      10.749   5.342   3.010  0.00  0.00    +0.037 A 
ATOM     21  C   UNL     1      10.605   5.643   4.363  0.00  0.00    +0.014 A 
ATOM     22  C   UNL     1      10.060   6.077   2.048  0.00  0.00    +0.014 A 
ATOM     24  C   UNL     1       9.766   6.687   4.755  0.00  0.00    +0.019 A 
ATOM     25  C   UNL     1       9.221   7.120   2.442  0.00  0.00    +0.019 A 
ATOM     26  C   UNL     1       9.074   7.424   3.795  0.00  0.00    +0.052 A 
BRANCH  26  30
ATOM      6  N   UNL     1       7.514   9.359   4.526  0.00  0.00    -0.191 NA
ATOM     30  C   UNL     1       8.213   8.492   4.198  0.00  0.00    +0.099 C 
ENDBRANCH  26  30
ENDBRANCH  16  19
BRANCH  17  20
ATOM     20  C   UNL     1       8.686   5.487  -2.817  0.00  0.00    +0.014 C 
ATOM     23  C   UNL     1       7.757   6.449  -2.869  0.00  0.00    +0.008 C 
BRANCH  23  27
ATOM      1 CL   UNL     1       2.537   6.003  -5.722  0.00  0.00    -0.084 Cl
ATOM     27  C   UNL     1       6.469   6.339  -3.574  0.00  0.00    -0.025 A 
ATOM     28  C   UNL     1       5.324   6.850  -2.981  0.00  0.00    +0.009 A 
ATOM     29  C   UNL     1       6.423   5.728  -4.816  0.00  0.00    +0.009 A 
ATOM     31  C   UNL     1       4.103   6.745  -3.648  0.00  0.00    +0.020 A 
ATOM     32  C   UNL     1       5.204   5.623  -5.484  0.00  0.00    +0.020 A 
ATOM     33  C   UNL     1       4.043   6.132  -4.899  0.00  0.00    +0.041 A 
ENDBRANCH  23  27
ENDBRANCH  17  20
TORSDOF 4
ENDMDL
MODEL 7
REMARK VINA RESULT:      -7.2     31.709     33.234
REMARK  Name = 11911750
REMARK  4 active torsions:
REMARK  status: ('A' for Active; 'I' for Inactive)
REMARK    1  A    between atoms: C_16  and  C_19
REMARK    2  A    between atoms: C_17  and  C_20
REMARK    3  A    between atoms: C_23  and  C_27
REMARK    4  A    between atoms: C_26  and  C_30
REMARK                            x       y       z     vdW  Elec       q    Type
REMARK                         _______ _______ _______ _____ _____    ______ ____
ROOT
ATOM      2  O   UNL     1     -12.374  -7.621   9.420  0.00  0.00    -0.267 OA
ATOM      3  O   UNL     1     -16.637  -5.017  10.750  0.00  0.00    -0.270 OA
ATOM      4  N   UNL     1     -14.885  -4.249  12.097  0.00  0.00    -0.297 N 
ATOM      5  N   UNL     1     -12.405  -5.861  10.948  0.00  0.00    -0.311 N 
ATOM      7  C   UNL     1     -13.571  -6.037  13.223  0.00  0.00    +0.027 C 
ATOM      8  C   UNL     1     -12.467  -3.935  12.571  0.00  0.00    +0.054 C 
ATOM      9  C   UNL     1     -12.549  -4.996  13.667  0.00  0.00    +0.018 C 
ATOM     10  C   UNL     1     -14.949  -5.383  13.017  0.00  0.00    +0.113 C 
ATOM     11  C   UNL     1     -13.058  -6.718  11.948  0.00  0.00    +0.130 C 
ATOM     12  C   UNL     1     -13.842  -3.256  12.405  0.00  0.00    +0.117 C 
ATOM     13  C   UNL     1     -12.038  -4.548  11.251  0.00  0.00    +0.027 A 
ATOM     14  C   UNL     1     -11.340  -3.821  10.364  0.00  0.00    +0.022 A 
ATOM     15  C   UNL     1     -12.083  -6.460   9.714  0.00  0.00    +0.259 A 
ATOM     16  C   UNL     1     -15.764  -4.191  11.013  0.00  0.00    +0.247 C 
ATOM     17  C   UNL     1     -11.326  -5.611   8.727  0.00  0.00    +0.040 A 
ATOM     18  C   UNL     1     -10.984  -4.365   9.085  0.00  0.00    +0.015 A 
ENDROOT
BRANCH  16  19
ATOM     19  C   UNL     1     -15.638  -3.063  10.085  0.00  0.00    +0.037 A 
ATOM     21  C   UNL     1     -16.377  -1.903  10.300  0.00  0.00    +0.014 A 
ATOM     22  C   UNL     1     -14.778  -3.158   8.993  0.00  0.00    +0.014 A 
ATOM     24  C   UNL     1     -16.256  -0.829   9.417  0.00  0.00    +0.019 A 
ATOM     25  C   UNL     1     -14.658  -2.084   8.109  0.00  0.00    +0.019 A 
ATOM     26  C   UNL     1     -15.396  -0.921   8.323  0.00  0.00    +0.052 A 
BRANCH  26  30
ATOM      6  N   UNL     1     -15.174   1.073   6.681  0.00  0.00    -0.191 NA
ATOM     30  C   UNL     1     -15.274   0.179   7.417  0.00  0.00    +0.099 C 
ENDBRANCH  26  30
ENDBRANCH  16  19
BRANCH  17  20
ATOM     20  C   UNL     1     -10.978  -6.146   7.435  0.00  0.00    +0.014 C 
ATOM     23  C   UNL     1      -9.773  -6.657   7.159  0.00  0.00    +0.008 C 
BRANCH  23  27
ATOM      1 CL   UNL     1      -8.136  -8.879   1.871  0.00  0.00    -0.084 Cl
ATOM     27  C   UNL     1      -9.368  -7.205   5.853  0.00  0.00    -0.025 A 
ATOM     28  C   UNL     1     -10.252  -7.145   4.788  0.00  0.00    +0.009 A 
ATOM     29  C   UNL     1      -8.111  -7.771   5.714  0.00  0.00    +0.009 A 
ATOM     31  C   UNL     1      -9.870  -7.665   3.551  0.00  0.00    +0.020 A 
ATOM     32  C   UNL     1      -7.728  -8.290   4.478  0.00  0.00    +0.020 A 
ATOM     33  C   UNL     1      -8.608  -8.238   3.396  0.00  0.00    +0.041 A 
ENDBRANCH  23  27
ENDBRANCH  17  20
TORSDOF 4
ENDMDL
MODEL 8
REMARK VINA RESULT:      -7.1     11.381     14.121
REMARK  Name = 11911750
REMARK  4 active torsions:
REMARK  status: ('A' for Active; 'I' for Inactive)
REMARK    1  A    between atoms: C_16  and  C_19
REMARK    2  A    between atoms: C_17  and  C_20
REMARK    3  A    between atoms: C_23  and  C_27
REMARK    4  A    between atoms: C_26  and  C_30
REMARK                            x       y       z     vdW  Elec       q    Type
REMARK                         _______ _______ _______ _____ _____    ______ ____
ROOT
ATOM      2  O   UNL     1      12.920   7.499   3.460  0.00  0.00    -0.267 OA
ATOM      3  O   UNL     1       9.145  10.493   5.333  0.00  0.00    -0.270 OA
ATOM      4  N   UNL     1       8.945   8.387   6.333  0.00  0.00    -0.297 N 
ATOM      5  N   UNL     1      11.458   6.850   5.156  0.00  0.00    -0.311 N 
ATOM      7  C   UNL     1       8.957   6.471   4.745  0.00  0.00    +0.027 C 
ATOM      8  C   UNL     1       9.883   6.190   7.008  0.00  0.00    +0.054 C 
ATOM      9  C   UNL     1       9.055   5.507   5.921  0.00  0.00    +0.018 C 
ATOM     10  C   UNL     1       8.279   7.782   5.180  0.00  0.00    +0.113 C 
ATOM     11  C   UNL     1      10.365   6.709   4.184  0.00  0.00    +0.130 C 
ATOM     12  C   UNL     1       9.171   7.478   7.468  0.00  0.00    +0.117 C 
ATOM     13  C   UNL     1      11.273   6.528   6.503  0.00  0.00    +0.027 A 
ATOM     14  C   UNL     1      12.314   6.553   7.350  0.00  0.00    +0.022 A 
ATOM     15  C   UNL     1      12.716   7.227   4.645  0.00  0.00    +0.259 A 
ATOM     16  C   UNL     1       9.331   9.729   6.278  0.00  0.00    +0.247 C 
ATOM     17  C   UNL     1      13.858   7.276   5.626  0.00  0.00    +0.040 A 
ATOM     18  C   UNL     1      13.621   6.935   6.900  0.00  0.00    +0.015 A 
ENDROOT
BRANCH  16  19
ATOM     19  C   UNL     1      10.039  10.287   7.434  0.00  0.00    +0.037 A 
ATOM     21  C   UNL     1      11.431  10.307   7.451  0.00  0.00    +0.014 A 
ATOM     22  C   UNL     1       9.315  10.798   8.509  0.00  0.00    +0.014 A 
ATOM     24  C   UNL     1      12.104  10.841   8.551  0.00  0.00    +0.019 A 
ATOM     25  C   UNL     1       9.988  11.331   9.609  0.00  0.00    +0.019 A 
ATOM     26  C   UNL     1      11.382  11.352   9.629  0.00  0.00    +0.052 A 
BRANCH  26  30
ATOM      6  N   UNL     1      12.633  12.339  11.673  0.00  0.00    -0.191 NA
ATOM     30  C   UNL     1      12.072  11.896  10.756  0.00  0.00    +0.099 C 
ENDBRANCH  26  30
ENDBRANCH  16  19
BRANCH  17  20
ATOM     20  C   UNL     1      15.171   7.674   5.183  0.00  0.00    +0.014 C 
ATOM     23  C   UNL     1      16.021   8.362   5.954  0.00  0.00    +0.008 C 
BRANCH  23  27
ATOM      1 CL   UNL     1      21.472  10.126   4.291  0.00  0.00    -0.084 Cl
ATOM     27  C   UNL     1      17.366   8.799   5.543  0.00  0.00    -0.025 A 
ATOM     28  C   UNL     1      18.013   8.130   4.516  0.00  0.00    +0.009 A 
ATOM     29  C   UNL     1      17.961   9.868   6.192  0.00  0.00    +0.009 A 
ATOM     31  C   UNL     1      19.288   8.541   4.127  0.00  0.00    +0.020 A 
ATOM     32  C   UNL     1      19.235  10.281   5.803  0.00  0.00    +0.020 A 
ATOM     33  C   UNL     1      19.899   9.617   4.771  0.00  0.00    +0.041 A 
ENDBRANCH  23  27
ENDBRANCH  17  20
TORSDOF 4
ENDMDL
MODEL 9
REMARK VINA RESULT:      -7.1     28.771     30.484
REMARK  Name = 11911750
REMARK  4 active torsions:
REMARK  status: ('A' for Active; 'I' for Inactive)
REMARK    1  A    between atoms: C_16  and  C_19
REMARK    2  A    between atoms: C_17  and  C_20
REMARK    3  A    between atoms: C_23  and  C_27
REMARK    4  A    between atoms: C_26  and  C_30
REMARK                            x       y       z     vdW  Elec       q    Type
REMARK                         _______ _______ _______ _____ _____    ______ ____
ROOT
ATOM      2  O   UNL     1      -5.667 -13.440  14.333  0.00  0.00    -0.267 OA
ATOM      3  O   UNL     1      -9.585 -12.586  17.595  0.00  0.00    -0.270 OA
ATOM      4  N   UNL     1      -7.700 -11.491  18.445  0.00  0.00    -0.297 N 
ATOM      5  N   UNL     1      -5.542 -12.025  16.181  0.00  0.00    -0.311 N 
ATOM      7  C   UNL     1      -5.651 -12.897  18.588  0.00  0.00    +0.027 C 
ATOM      8  C   UNL     1      -5.449 -10.480  18.168  0.00  0.00    +0.054 C 
ATOM      9  C   UNL     1      -4.832 -11.656  18.924  0.00  0.00    +0.018 C 
ATOM     10  C   UNL     1      -7.117 -12.705  19.016  0.00  0.00    +0.113 C 
ATOM     11  C   UNL     1      -5.521 -13.183  17.087  0.00  0.00    +0.130 C 
ATOM     12  C   UNL     1      -6.902 -10.269  18.637  0.00  0.00    +0.117 C 
ATOM     13  C   UNL     1      -5.426 -10.722  16.671  0.00  0.00    +0.027 A 
ATOM     14  C   UNL     1      -5.331  -9.689  15.820  0.00  0.00    +0.022 A 
ATOM     15  C   UNL     1      -5.584 -12.302  14.800  0.00  0.00    +0.259 A 
ATOM     16  C   UNL     1      -8.914 -11.568  17.759  0.00  0.00    +0.247 C 
ATOM     17  C   UNL     1      -5.507 -11.121  13.870  0.00  0.00    +0.040 A 
ATOM     18  C   UNL     1      -5.375  -9.897  14.400  0.00  0.00    +0.015 A 
ENDROOT
BRANCH  16  19
ATOM     19  C   UNL     1      -9.444 -10.339  17.159  0.00  0.00    +0.037 A 
ATOM     21  C   UNL     1     -10.313  -9.530  17.888  0.00  0.00    +0.014 A 
ATOM     22  C   UNL     1      -9.073  -9.986  15.863  0.00  0.00    +0.014 A 
ATOM     24  C   UNL     1     -10.815  -8.360  17.317  0.00  0.00    +0.019 A 
ATOM     25  C   UNL     1      -9.576  -8.816  15.292  0.00  0.00    +0.019 A 
ATOM     26  C   UNL     1     -10.446  -8.004  16.020  0.00  0.00    +0.052 A 
BRANCH  26  30
ATOM      6  N   UNL     1     -11.383  -5.833  14.959  0.00  0.00    -0.191 NA
ATOM     30  C   UNL     1     -10.963  -6.807  15.434  0.00  0.00    +0.099 C 
ENDBRANCH  26  30
ENDBRANCH  16  19
BRANCH  17  20
ATOM     20  C   UNL     1      -5.565 -11.321  12.444  0.00  0.00    +0.014 C 
ATOM     23  C   UNL     1      -4.674 -10.792  11.598  0.00  0.00    +0.008 C 
BRANCH  23  27
ATOM      1 CL   UNL     1      -4.767 -11.474   5.672  0.00  0.00    -0.084 Cl
ATOM     27  C   UNL     1      -4.698 -10.960  10.134  0.00  0.00    -0.025 A 
ATOM     28  C   UNL     1      -4.375 -12.192   9.587  0.00  0.00    +0.009 A 
ATOM     29  C   UNL     1      -5.041  -9.884   9.332  0.00  0.00    +0.009 A 
ATOM     31  C   UNL     1      -4.396 -12.352   8.202  0.00  0.00    +0.020 A 
ATOM     32  C   UNL     1      -5.063 -10.043   7.947  0.00  0.00    +0.020 A 
ATOM     33  C   UNL     1      -4.740 -11.278   7.381  0.00  0.00    +0.041 A 
ENDBRANCH  23  27
ENDBRANCH  17  20
TORSDOF 4
ENDMDL
MODEL 10
REMARK VINA RESULT:      -7.0     27.922     31.499
REMARK  Name = 11911750
REMARK  4 active torsions:
REMARK  status: ('A' for Active; 'I' for Inactive)
REMARK    1  A    between atoms: C_16  and  C_19
REMARK    2  A    between atoms: C_17  and  C_20
REMARK    3  A    between atoms: C_23  and  C_27
REMARK    4  A    between atoms: C_26  and  C_30
REMARK                            x       y       z     vdW  Elec       q    Type
REMARK                         _______ _______ _______ _____ _____    ______ ____
ROOT
ATOM      2  O   UNL     1     -10.380  -9.024  17.751  0.00  0.00    -0.267 OA
ATOM      3  O   UNL     1      -5.625 -10.208  19.398  0.00  0.00    -0.270 OA
ATOM      4  N   UNL     1      -6.656 -12.193  18.714  0.00  0.00    -0.297 N 
ATOM      5  N   UNL     1      -9.437 -11.151  17.599  0.00  0.00    -0.311 N 
ATOM      7  C   UNL     1      -8.923 -12.576  19.666  0.00  0.00    +0.027 C 
ATOM      8  C   UNL     1      -8.379 -13.430  17.423  0.00  0.00    +0.054 C 
ATOM      9  C   UNL     1      -9.112 -13.758  18.722  0.00  0.00    +0.018 C 
ATOM     10  C   UNL     1      -7.427 -12.346  19.947  0.00  0.00    +0.113 C 
ATOM     11  C   UNL     1      -9.591 -11.340  19.049  0.00  0.00    +0.130 C 
ATOM     12  C   UNL     1      -6.875 -13.247  17.710  0.00  0.00    +0.117 C 
ATOM     13  C   UNL     1      -8.934 -12.170  16.787  0.00  0.00    +0.027 A 
ATOM     14  C   UNL     1      -8.911 -12.018  15.453  0.00  0.00    +0.022 A 
ATOM     15  C   UNL     1      -9.912  -9.936  17.066  0.00  0.00    +0.259 A 
ATOM     16  C   UNL     1      -5.812 -11.090  18.563  0.00  0.00    +0.247 C 
ATOM     17  C   UNL     1      -9.845  -9.782  15.569  0.00  0.00    +0.040 A 
ATOM     18  C   UNL     1      -9.372 -10.804  14.842  0.00  0.00    +0.015 A 
ENDROOT
BRANCH  16  19
ATOM     19  C   UNL     1      -5.091 -10.946  17.294  0.00  0.00    +0.037 A 
ATOM     21  C   UNL     1      -3.769 -11.371  17.196  0.00  0.00    +0.014 A 
ATOM     22  C   UNL     1      -5.733 -10.384  16.193  0.00  0.00    +0.014 A 
ATOM     24  C   UNL     1      -3.084 -11.235  15.988  0.00  0.00    +0.019 A 
ATOM     25  C   UNL     1      -5.048 -10.247  14.985  0.00  0.00    +0.019 A 
ATOM     26  C   UNL     1      -3.724 -10.672  14.884  0.00  0.00    +0.052 A 
BRANCH  26  30
ATOM      6  N   UNL     1      -2.449 -10.415  12.642  0.00  0.00    -0.191 NA
ATOM     30  C   UNL     1      -3.021 -10.531  13.647  0.00  0.00    +0.099 C 
ENDBRANCH  26  30
ENDBRANCH  16  19
BRANCH  17  20
ATOM     20  C   UNL     1     -10.292  -8.560  14.950  0.00  0.00    +0.014 C 
ATOM     23  C   UNL     1     -11.520  -8.411  14.440  0.00  0.00    +0.008 C 
BRANCH  23  27
ATOM      1 CL   UNL     1     -13.538  -3.455  11.802  0.00  0.00    -0.084 Cl
ATOM     27  C   UNL     1     -12.019  -7.187  13.789  0.00  0.00    -0.025 A 
ATOM     28  C   UNL     1     -12.472  -7.250  12.481  0.00  0.00    +0.009 A 
ATOM     29  C   UNL     1     -12.026  -5.995  14.496  0.00  0.00    +0.009 A 
ATOM     31  C   UNL     1     -12.943  -6.091  11.863  0.00  0.00    +0.020 A 
ATOM     32  C   UNL     1     -12.498  -4.837  13.880  0.00  0.00    +0.020 A 
ATOM     33  C   UNL     1     -12.956  -4.885  12.563  0.00  0.00    +0.041 A 
ENDBRANCH  23  27
ENDBRANCH  17  20
TORSDOF 4
ENDMDL
