REMARK  Name = 26742953
REMARK  10 active torsions:
REMARK  status: ('A' for Active; 'I' for Inactive)
REMARK    1  A    between atoms: N_4  and  C_18
REMARK    2  A    between atoms: C_6  and  C_12
REMARK    3  A    between atoms: C_7  and  C_10
REMARK    4  A    between atoms: C_10  and  C_13
REMARK    5  A    between atoms: C_12  and  C_14
REMARK    6  A    between atoms: C_16  and  C_17
REMARK    7  A    between atoms: C_17  and  C_19
REMARK    8  A    between atoms: C_18  and  C_20
REMARK    9  A    between atoms: C_19  and  C_21
REMARK   10  A    between atoms: C_21  and  C_22
REMARK                            x       y       z     vdW  Elec       q    Type
REMARK                         _______ _______ _______ _____ _____    ______ ____
ROOT
ATOM      3  N   UNL     1       5.410  -1.286  -0.467  0.00  0.00    -0.316 NA
ATOM      6  C   UNL     1       2.564  -0.517  -0.569  0.00  0.00    +0.004 C 
ATOM      7  C   UNL     1       3.591   0.197   0.342  0.00  0.00    +0.012 C 
ATOM      8  C   UNL     1       3.305  -1.161  -1.752  0.00  0.00    +0.019 C 
ATOM      9  C   UNL     1       4.757  -0.732   0.720  0.00  0.00    +0.085 C 
ATOM     11  C   UNL     1       4.474  -2.035  -1.302  0.00  0.00    +0.081 C 
ATOM     28  H   UNL     1       6.170  -1.901  -0.177  0.00  0.00    +0.122 HD
ENDROOT
BRANCH   7  10
ATOM     10  C   UNL     1       2.960   0.803   1.597  0.00  0.00    +0.064 C 
BRANCH  10  13
ATOM      1  O   UNL     1       0.981   3.692   0.761  0.00  0.00    -0.359 OA
ATOM      5  N   UNL     1       2.186   3.075   1.071  0.00  0.00    -0.083 NA
ATOM     13  C   UNL     1       1.881   1.786   1.245  0.00  0.00    +0.084 A 
ATOM     15  C   UNL     1       0.511   1.533   1.059  0.00  0.00    +0.071 A 
ATOM     16  C   UNL     1      -0.010   2.763   0.757  0.00  0.00    +0.138 A 
BRANCH  16  17
ATOM     17  C   UNL     1      -1.360   3.247   0.445  0.00  0.00    +0.077 C 
BRANCH  17  19
ATOM     19  C   UNL     1      -1.802   2.918  -0.999  0.00  0.00    +0.007 C 
BRANCH  19  21
ATOM     21  C   UNL     1      -3.191   3.466  -1.327  0.00  0.00    -0.003 C 
ATOM     22  C   UNL     1      -3.584   3.164  -2.764  0.00  0.00    +0.004 C 
ENDBRANCH  19  21
ENDBRANCH  17  19
ENDBRANCH  16  17
ENDBRANCH  10  13
ENDBRANCH   7  10
BRANCH   6  12
ATOM     12  C   UNL     1       1.697  -1.551   0.160  0.00  0.00    +0.099 C 
BRANCH  12  14
ATOM      2  O   UNL     1       0.102  -1.310  -1.644  0.00  0.00    -0.276 OA
ATOM      4  N   UNL     1      -0.343  -2.803   0.080  0.00  0.00    -0.311 N 
ATOM     14  C   UNL     1       0.414  -1.851  -0.587  0.00  0.00    +0.214 C 
ATOM     29  H   UNL     1      -0.004  -3.178   0.962  0.00  0.00    +0.149 HD
BRANCH   4  18
ATOM     18  C   UNL     1      -1.618  -3.278  -0.405  0.00  0.00    +0.139 C 
BRANCH  18  20
ATOM     20  C   UNL     1      -2.760  -2.453   0.114  0.00  0.00    -0.030 A 
ATOM     23  C   UNL     1      -3.382  -2.800   1.313  0.00  0.00    +0.005 A 
ATOM     24  C   UNL     1      -3.198  -1.340  -0.603  0.00  0.00    +0.005 A 
ATOM     25  C   UNL     1      -4.443  -2.034   1.796  0.00  0.00    +0.000 A 
ATOM     26  C   UNL     1      -4.259  -0.573  -0.120  0.00  0.00    +0.000 A 
ATOM     27  C   UNL     1      -4.882  -0.920   1.079  0.00  0.00    +0.000 A 
ENDBRANCH  18  20
ENDBRANCH   4  18
ENDBRANCH  12  14
ENDBRANCH   6  12
TORSDOF 9
