MODEL 1
REMARK VINA RESULT:      -7.0      0.000      0.000
REMARK  Name = 51136623
REMARK  10 active torsions:
REMARK  status: ('A' for Active; 'I' for Inactive)
REMARK    1  A    between atoms: O_2  and  C_20
REMARK    2  A    between atoms: O_5  and  C_26
REMARK    3  A    between atoms: O_5  and  C_33
REMARK    4  A    between atoms: O_6  and  C_27
REMARK    5  A    between atoms: O_6  and  C_34
REMARK    6  A    between atoms: N_9  and  C_28
REMARK    7  A    between atoms: C_10  and  C_14
REMARK    8  A    between atoms: C_11  and  C_16
REMARK    9  A    between atoms: C_14  and  C_17
REMARK   10  A    between atoms: C_16  and  C_20
REMARK                            x       y       z     vdW  Elec       q    Type
REMARK                         _______ _______ _______ _____ _____    ______ ____
ROOT
ATOM      3  O   UNL     1      10.502   8.553  21.513  0.00  0.00    -0.252 OA
ATOM      7  N   UNL     1      12.666   7.758  21.662  0.00  0.00    -0.285 N 
ATOM      9  N   UNL     1      11.999   9.643  22.911  0.00  0.00    -0.269 N 
ATOM     10  C   UNL     1      15.070   7.922  21.077  0.00  0.00    +0.016 C 
ATOM     11  C   UNL     1      14.846   6.824  20.003  0.00  0.00    +0.006 C 
ATOM     12  C   UNL     1      13.384   6.783  19.522  0.00  0.00    +0.023 C 
ATOM     13  C   UNL     1      14.034   7.759  22.202  0.00  0.00    +0.113 C 
ATOM     15  C   UNL     1      12.410   6.688  20.697  0.00  0.00    +0.109 C 
ATOM     18  C   UNL     1      11.629   8.649  22.006  0.00  0.00    +0.306 C 
ATOM     36  H   UNL     1      12.737   9.443  23.575  0.00  0.00    +0.156 HD
ENDROOT
BRANCH   9  28
ATOM      1  F   UNL     1       9.917  14.768  23.316  0.00  0.00    -0.205 F 
ATOM     28  C   UNL     1      11.466  10.953  23.014  0.00  0.00    +0.035 A 
ATOM     29  C   UNL     1      10.987  11.416  24.240  0.00  0.00    +0.026 A 
ATOM     30  C   UNL     1      11.422  11.778  21.891  0.00  0.00    +0.026 A 
ATOM     31  C   UNL     1      10.464  12.704  24.341  0.00  0.00    +0.040 A 
ATOM     32  C   UNL     1      10.898  13.067  21.993  0.00  0.00    +0.040 A 
ATOM     35  C   UNL     1      10.419  13.530  23.218  0.00  0.00    +0.124 A 
ENDBRANCH   9  28
BRANCH  10  14
ATOM     14  C   UNL     1      15.040   9.351  20.525  0.00  0.00    +0.061 C 
BRANCH  14  17
ATOM      8  N   UNL     1      14.878  11.169  22.085  0.00  0.00    -0.287 NA
ATOM     17  C   UNL     1      15.655  10.302  21.524  0.00  0.00    +0.044 C 
ATOM     19  C   UNL     1      17.109  10.202  21.806  0.00  0.00    +0.003 A 
ATOM     21  C   UNL     1      17.711  11.309  22.415  0.00  0.00    -0.033 A 
ATOM     22  C   UNL     1      16.867  12.510  22.725  0.00  0.00    +0.059 C 
ATOM     23  C   UNL     1      15.462  12.053  23.099  0.00  0.00    +0.146 C 
ATOM     24  C   UNL     1      17.866   9.076  21.477  0.00  0.00    +0.059 A 
ATOM     25  C   UNL     1      19.085  11.295  22.671  0.00  0.00    +0.053 A 
ATOM     26  C   UNL     1      19.234   9.064  21.750  0.00  0.00    +0.162 A 
ATOM     27  C   UNL     1      19.843  10.171  22.342  0.00  0.00    +0.162 A 
BRANCH  26   5
ATOM      5  O   UNL     1      19.970   7.963  21.430  0.00  0.00    -0.491 OA
ATOM     33  C   UNL     1      19.977   6.893  22.375  0.00  0.00    +0.277 C 
ENDBRANCH  26   5
BRANCH  27   6
ATOM      6  O   UNL     1      21.180  10.166  22.605  0.00  0.00    -0.491 OA
ATOM     34  C   UNL     1      21.574   9.938  23.956  0.00  0.00    +0.277 C 
ENDBRANCH  27   6
ENDBRANCH  14  17
ENDBRANCH  10  14
BRANCH  11  16
ATOM     16  C   UNL     1      15.801   6.944  18.816  0.00  0.00    +0.124 C 
BRANCH  16  20
ATOM      4  O   UNL     1      17.757   5.952  19.879  0.00  0.00    -0.251 OA
ATOM     20  C   UNL     1      16.969   6.006  18.946  0.00  0.00    +0.305 C 
BRANCH  20   2
ATOM      2  O   UNL     1      17.037   5.203  17.854  0.00  0.00    -0.481 OA
ATOM     37  H   UNL     1      16.707   5.654  17.047  0.00  0.00    +0.295 HD
ENDBRANCH  20   2
ENDBRANCH  16  20
ENDBRANCH  11  16
TORSDOF 8
ENDMDL
MODEL 2
REMARK VINA RESULT:      -6.6     28.125     30.892
REMARK  Name = 51136623
REMARK  10 active torsions:
REMARK  status: ('A' for Active; 'I' for Inactive)
REMARK    1  A    between atoms: O_2  and  C_20
REMARK    2  A    between atoms: O_5  and  C_26
REMARK    3  A    between atoms: O_5  and  C_33
REMARK    4  A    between atoms: O_6  and  C_27
REMARK    5  A    between atoms: O_6  and  C_34
REMARK    6  A    between atoms: N_9  and  C_28
REMARK    7  A    between atoms: C_10  and  C_14
REMARK    8  A    between atoms: C_11  and  C_16
REMARK    9  A    between atoms: C_14  and  C_17
REMARK   10  A    between atoms: C_16  and  C_20
REMARK                            x       y       z     vdW  Elec       q    Type
REMARK                         _______ _______ _______ _____ _____    ______ ____
ROOT
ATOM      3  O   UNL     1      -7.754 -10.233  13.448  0.00  0.00    -0.252 OA
ATOM      7  N   UNL     1      -6.743  -9.852  15.491  0.00  0.00    -0.285 N 
ATOM      9  N   UNL     1      -5.447 -10.007  13.527  0.00  0.00    -0.269 N 
ATOM     10  C   UNL     1      -5.447 -10.666  17.441  0.00  0.00    +0.016 C 
ATOM     11  C   UNL     1      -6.778 -10.777  18.233  0.00  0.00    +0.006 C 
ATOM     12  C   UNL     1      -7.987 -10.962  17.297  0.00  0.00    +0.023 C 
ATOM     13  C   UNL     1      -5.584  -9.586  16.356  0.00  0.00    +0.113 C 
ATOM     15  C   UNL     1      -8.020  -9.893  16.205  0.00  0.00    +0.109 C 
ATOM     18  C   UNL     1      -6.721 -10.036  14.093  0.00  0.00    +0.306 C 
ATOM     36  H   UNL     1      -4.730  -9.450  13.977  0.00  0.00    +0.156 HD
ENDROOT
BRANCH   9  28
ATOM      1  F   UNL     1      -3.718 -12.697   8.996  0.00  0.00    -0.205 F 
ATOM     28  C   UNL     1      -5.005 -10.694  12.370  0.00  0.00    +0.035 A 
ATOM     29  C   UNL     1      -5.500 -11.967  12.083  0.00  0.00    +0.026 A 
ATOM     30  C   UNL     1      -4.076 -10.099  11.517  0.00  0.00    +0.026 A 
ATOM     31  C   UNL     1      -5.065 -12.644  10.944  0.00  0.00    +0.040 A 
ATOM     32  C   UNL     1      -3.641 -10.776  10.377  0.00  0.00    +0.040 A 
ATOM     35  C   UNL     1      -4.135 -12.048  10.090  0.00  0.00    +0.124 A 
ENDBRANCH   9  28
BRANCH  10  14
ATOM     14  C   UNL     1      -4.976 -11.988  16.825  0.00  0.00    +0.061 C 
BRANCH  14  17
ATOM      8  N   UNL     1      -2.904 -10.812  16.523  0.00  0.00    -0.287 NA
ATOM     17  C   UNL     1      -3.655 -11.785  16.122  0.00  0.00    +0.044 C 
ATOM     19  C   UNL     1      -3.287 -12.698  15.011  0.00  0.00    +0.003 A 
ATOM     21  C   UNL     1      -2.277 -12.263  14.145  0.00  0.00    -0.033 A 
ATOM     22  C   UNL     1      -1.651 -10.921  14.382  0.00  0.00    +0.059 C 
ATOM     23  C   UNL     1      -1.595 -10.651  15.881  0.00  0.00    +0.146 C 
ATOM     24  C   UNL     1      -3.914 -13.930  14.807  0.00  0.00    +0.059 A 
ATOM     25  C   UNL     1      -1.913 -13.059  13.054  0.00  0.00    +0.053 A 
ATOM     26  C   UNL     1      -3.533 -14.723  13.725  0.00  0.00    +0.162 A 
ATOM     27  C   UNL     1      -2.538 -14.289  12.849  0.00  0.00    +0.162 A 
BRANCH  26   5
ATOM      5  O   UNL     1      -4.144 -15.926  13.531  0.00  0.00    -0.491 OA
ATOM     33  C   UNL     1      -3.873 -16.951  14.486  0.00  0.00    +0.277 C 
ENDBRANCH  26   5
BRANCH  27   6
ATOM      6  O   UNL     1      -2.167 -15.058  11.787  0.00  0.00    -0.491 OA
ATOM     34  C   UNL     1      -1.116 -15.998  12.004  0.00  0.00    +0.277 C 
ENDBRANCH  27   6
ENDBRANCH  14  17
ENDBRANCH  10  14
BRANCH  11  16
ATOM     16  C   UNL     1      -6.751 -11.869  19.302  0.00  0.00    +0.124 C 
BRANCH  16  20
ATOM      4  O   UNL     1      -9.009 -11.487  20.134  0.00  0.00    -0.251 OA
ATOM     20  C   UNL     1      -8.137 -12.248  19.743  0.00  0.00    +0.305 C 
BRANCH  20   2
ATOM      2  O   UNL     1      -8.296 -13.593  19.648  0.00  0.00    -0.481 OA
ATOM     37  H   UNL     1      -7.488 -14.077  19.922  0.00  0.00    +0.295 HD
ENDBRANCH  20   2
ENDBRANCH  16  20
ENDBRANCH  11  16
TORSDOF 8
ENDMDL
MODEL 3
REMARK VINA RESULT:      -6.6      4.221      5.955
REMARK  Name = 51136623
REMARK  10 active torsions:
REMARK  status: ('A' for Active; 'I' for Inactive)
REMARK    1  A    between atoms: O_2  and  C_20
REMARK    2  A    between atoms: O_5  and  C_26
REMARK    3  A    between atoms: O_5  and  C_33
REMARK    4  A    between atoms: O_6  and  C_27
REMARK    5  A    between atoms: O_6  and  C_34
REMARK    6  A    between atoms: N_9  and  C_28
REMARK    7  A    between atoms: C_10  and  C_14
REMARK    8  A    between atoms: C_11  and  C_16
REMARK    9  A    between atoms: C_14  and  C_17
REMARK   10  A    between atoms: C_16  and  C_20
REMARK                            x       y       z     vdW  Elec       q    Type
REMARK                         _______ _______ _______ _____ _____    ______ ____
ROOT
ATOM      3  O   UNL     1      13.436   9.992  14.938  0.00  0.00    -0.252 OA
ATOM      7  N   UNL     1      12.822   9.982  17.166  0.00  0.00    -0.285 N 
ATOM      9  N   UNL     1      14.421  11.524  16.374  0.00  0.00    -0.269 N 
ATOM     10  C   UNL     1      13.288   9.399  19.530  0.00  0.00    +0.016 C 
ATOM     11  C   UNL     1      12.358   8.167  19.371  0.00  0.00    +0.006 C 
ATOM     12  C   UNL     1      12.263   7.706  17.905  0.00  0.00    +0.023 C 
ATOM     13  C   UNL     1      12.859  10.497  18.543  0.00  0.00    +0.113 C 
ATOM     15  C   UNL     1      11.899   8.863  16.976  0.00  0.00    +0.109 C 
ATOM     18  C   UNL     1      13.552  10.478  16.066  0.00  0.00    +0.306 C 
ATOM     36  H   UNL     1      14.185  12.138  17.145  0.00  0.00    +0.156 HD
ENDROOT
BRANCH   9  28
ATOM      1  F   UNL     1      19.214  12.763  13.874  0.00  0.00    -0.205 F 
ATOM     28  C   UNL     1      15.645  11.841  15.735  0.00  0.00    +0.035 A 
ATOM     29  C   UNL     1      16.710  12.351  16.481  0.00  0.00    +0.026 A 
ATOM     30  C   UNL     1      15.788  11.644  14.362  0.00  0.00    +0.026 A 
ATOM     31  C   UNL     1      17.914  12.662  15.852  0.00  0.00    +0.040 A 
ATOM     32  C   UNL     1      16.993  11.956  13.734  0.00  0.00    +0.040 A 
ATOM     35  C   UNL     1      18.056  12.465  14.478  0.00  0.00    +0.124 A 
ENDBRANCH   9  28
BRANCH  10  14
ATOM     14  C   UNL     1      14.778   9.082  19.363  0.00  0.00    +0.061 C 
BRANCH  14  17
ATOM      8  N   UNL     1      15.067  10.647  21.160  0.00  0.00    -0.287 NA
ATOM     17  C   UNL     1      15.555   9.625  20.538  0.00  0.00    +0.044 C 
ATOM     19  C   UNL     1      16.832   8.970  20.917  0.00  0.00    +0.003 A 
ATOM     21  C   UNL     1      17.702   9.707  21.731  0.00  0.00    -0.033 A 
ATOM     22  C   UNL     1      17.300  11.090  22.149  0.00  0.00    +0.059 C 
ATOM     23  C   UNL     1      15.789  11.138  22.338  0.00  0.00    +0.146 C 
ATOM     24  C   UNL     1      17.182   7.690  20.483  0.00  0.00    +0.059 A 
ATOM     25  C   UNL     1      18.939   9.163  22.089  0.00  0.00    +0.053 A 
ATOM     26  C   UNL     1      18.412   7.149  20.858  0.00  0.00    +0.162 A 
ATOM     27  C   UNL     1      19.290   7.885  21.656  0.00  0.00    +0.162 A 
BRANCH  26   5
ATOM      5  O   UNL     1      18.750   5.898  20.436  0.00  0.00    -0.491 OA
ATOM     33  C   UNL     1      18.127   5.430  19.241  0.00  0.00    +0.277 C 
ENDBRANCH  26   5
BRANCH  27   6
ATOM      6  O   UNL     1      20.495   7.363  22.020  0.00  0.00    -0.491 OA
ATOM     34  C   UNL     1      20.559   6.694  23.278  0.00  0.00    +0.277 C 
ENDBRANCH  27   6
ENDBRANCH  14  17
ENDBRANCH  10  14
BRANCH  11  16
ATOM     16  C   UNL     1      12.746   7.001  20.280  0.00  0.00    +0.124 C 
BRANCH  16  20
ATOM      4  O   UNL     1      11.166   7.271  22.115  0.00  0.00    -0.251 OA
ATOM     20  C   UNL     1      11.618   6.609  21.194  0.00  0.00    +0.305 C 
BRANCH  20   2
ATOM      2  O   UNL     1      11.154   5.381  20.848  0.00  0.00    -0.481 OA
ATOM     37  H   UNL     1      11.736   4.664  21.180  0.00  0.00    +0.295 HD
ENDBRANCH  20   2
ENDBRANCH  16  20
ENDBRANCH  11  16
TORSDOF 8
ENDMDL
MODEL 4
REMARK VINA RESULT:      -6.5     16.179     18.754
REMARK  Name = 51136623
REMARK  10 active torsions:
REMARK  status: ('A' for Active; 'I' for Inactive)
REMARK    1  A    between atoms: O_2  and  C_20
REMARK    2  A    between atoms: O_5  and  C_26
REMARK    3  A    between atoms: O_5  and  C_33
REMARK    4  A    between atoms: O_6  and  C_27
REMARK    5  A    between atoms: O_6  and  C_34
REMARK    6  A    between atoms: N_9  and  C_28
REMARK    7  A    between atoms: C_10  and  C_14
REMARK    8  A    between atoms: C_11  and  C_16
REMARK    9  A    between atoms: C_14  and  C_17
REMARK   10  A    between atoms: C_16  and  C_20
REMARK                            x       y       z     vdW  Elec       q    Type
REMARK                         _______ _______ _______ _____ _____    ______ ____
ROOT
ATOM      3  O   UNL     1       9.659   9.234   0.634  0.00  0.00    -0.252 OA
ATOM      7  N   UNL     1      10.272   7.047   1.059  0.00  0.00    -0.285 N 
ATOM      9  N   UNL     1       8.751   8.157   2.477  0.00  0.00    -0.269 N 
ATOM     10  C   UNL     1      11.591   5.388   2.345  0.00  0.00    +0.016 C 
ATOM     11  C   UNL     1      12.606   5.339   1.171  0.00  0.00    +0.006 C 
ATOM     12  C   UNL     1      12.589   6.639   0.346  0.00  0.00    +0.023 C 
ATOM     13  C   UNL     1      10.205   5.783   1.809  0.00  0.00    +0.113 C 
ATOM     15  C   UNL     1      11.172   7.005  -0.095  0.00  0.00    +0.109 C 
ATOM     18  C   UNL     1       9.551   8.227   1.338  0.00  0.00    +0.306 C 
ATOM     36  H   UNL     1       8.377   7.257   2.752  0.00  0.00    +0.156 HD
ENDROOT
BRANCH   9  28
ATOM      1  F   UNL     1       7.350  12.320   5.865  0.00  0.00    -0.205 F 
ATOM     28  C   UNL     1       8.394   9.221   3.342  0.00  0.00    +0.035 A 
ATOM     29  C   UNL     1       7.048   9.514   3.569  0.00  0.00    +0.026 A 
ATOM     30  C   UNL     1       9.385   9.975   3.968  0.00  0.00    +0.026 A 
ATOM     31  C   UNL     1       6.696  10.560   4.420  0.00  0.00    +0.040 A 
ATOM     32  C   UNL     1       9.033  11.023   4.820  0.00  0.00    +0.040 A 
ATOM     35  C   UNL     1       7.689  11.315   5.046  0.00  0.00    +0.124 A 
ENDBRANCH   9  28
BRANCH  10  14
ATOM     14  C   UNL     1      12.006   6.314   3.492  0.00  0.00    +0.061 C 
BRANCH  14  17
ATOM      8  N   UNL     1      10.474   4.961   4.751  0.00  0.00    -0.287 NA
ATOM     17  C   UNL     1      11.118   6.080   4.690  0.00  0.00    +0.044 C 
ATOM     19  C   UNL     1      11.019   7.138   5.727  0.00  0.00    +0.003 A 
ATOM     21  C   UNL     1       9.924   7.069   6.597  0.00  0.00    -0.033 A 
ATOM     22  C   UNL     1       8.931   5.959   6.420  0.00  0.00    +0.059 C 
ATOM     23  C   UNL     1       9.658   4.707   5.943  0.00  0.00    +0.146 C 
ATOM     24  C   UNL     1      11.950   8.173   5.840  0.00  0.00    +0.059 A 
ATOM     25  C   UNL     1       9.751   8.059   7.569  0.00  0.00    +0.053 A 
ATOM     26  C   UNL     1      11.778   9.147   6.823  0.00  0.00    +0.162 A 
ATOM     27  C   UNL     1      10.681   9.092   7.684  0.00  0.00    +0.162 A 
BRANCH  26   5
ATOM      5  O   UNL     1      12.690  10.154   6.934  0.00  0.00    -0.491 OA
ATOM     33  C   UNL     1      13.991   9.908   6.403  0.00  0.00    +0.277 C 
ENDBRANCH  26   5
BRANCH  27   6
ATOM      6  O   UNL     1      10.505  10.046   8.641  0.00  0.00    -0.491 OA
ATOM     34  C   UNL     1       9.475  11.008   8.416  0.00  0.00    +0.277 C 
ENDBRANCH  27   6
ENDBRANCH  14  17
ENDBRANCH  10  14
BRANCH  11  16
ATOM     16  C   UNL     1      14.028   5.005   1.622  0.00  0.00    +0.124 C 
BRANCH  16  20
ATOM      4  O   UNL     1      13.467   2.647   1.367  0.00  0.00    -0.251 OA
ATOM     20  C   UNL     1      14.244   3.520   1.721  0.00  0.00    +0.305 C 
BRANCH  20   2
ATOM      2  O   UNL     1      15.457   3.270   2.277  0.00  0.00    -0.481 OA
ATOM     37  H   UNL     1      16.063   4.038   2.194  0.00  0.00    +0.295 HD
ENDBRANCH  20   2
ENDBRANCH  16  20
ENDBRANCH  11  16
TORSDOF 8
ENDMDL
MODEL 5
REMARK VINA RESULT:      -6.4     28.152     30.954
REMARK  Name = 51136623
REMARK  10 active torsions:
REMARK  status: ('A' for Active; 'I' for Inactive)
REMARK    1  A    between atoms: O_2  and  C_20
REMARK    2  A    between atoms: O_5  and  C_26
REMARK    3  A    between atoms: O_5  and  C_33
REMARK    4  A    between atoms: O_6  and  C_27
REMARK    5  A    between atoms: O_6  and  C_34
REMARK    6  A    between atoms: N_9  and  C_28
REMARK    7  A    between atoms: C_10  and  C_14
REMARK    8  A    between atoms: C_11  and  C_16
REMARK    9  A    between atoms: C_14  and  C_17
REMARK   10  A    between atoms: C_16  and  C_20
REMARK                            x       y       z     vdW  Elec       q    Type
REMARK                         _______ _______ _______ _____ _____    ______ ____
ROOT
ATOM      3  O   UNL     1      -7.480 -11.629  20.086  0.00  0.00    -0.252 OA
ATOM      7  N   UNL     1      -6.181 -10.491  18.551  0.00  0.00    -0.285 N 
ATOM      9  N   UNL     1      -8.524 -10.230  18.559  0.00  0.00    -0.269 N 
ATOM     10  C   UNL     1      -5.295 -10.226  16.250  0.00  0.00    +0.016 C 
ATOM     11  C   UNL     1      -3.976 -10.896  16.720  0.00  0.00    +0.006 C 
ATOM     12  C   UNL     1      -4.202 -11.813  17.936  0.00  0.00    +0.023 C 
ATOM     13  C   UNL     1      -5.977  -9.541  17.446  0.00  0.00    +0.113 C 
ATOM     15  C   UNL     1      -4.943 -11.086  19.057  0.00  0.00    +0.109 C 
ATOM     18  C   UNL     1      -7.413 -10.835  19.145  0.00  0.00    +0.306 C 
ATOM     36  H   UNL     1      -8.407  -9.324  18.120  0.00  0.00    +0.156 HD
ENDROOT
BRANCH   9  28
ATOM      1  F   UNL     1     -13.682 -12.245  18.252  0.00  0.00    -0.205 F 
ATOM     28  C   UNL     1      -9.842 -10.746  18.481  0.00  0.00    +0.035 A 
ATOM     29  C   UNL     1     -10.900 -10.047  19.065  0.00  0.00    +0.026 A 
ATOM     30  C   UNL     1     -10.082 -11.949  17.820  0.00  0.00    +0.026 A 
ATOM     31  C   UNL     1     -12.196 -10.554  18.988  0.00  0.00    +0.040 A 
ATOM     32  C   UNL     1     -11.380 -12.456  17.743  0.00  0.00    +0.040 A 
ATOM     35  C   UNL     1     -12.437 -11.759  18.327  0.00  0.00    +0.124 A 
ENDBRANCH   9  28
BRANCH  10  14
ATOM     14  C   UNL     1      -6.268 -11.183  15.554  0.00  0.00    +0.061 C 
BRANCH  14  17
ATOM      8  N   UNL     1      -8.388 -10.117  15.184  0.00  0.00    -0.287 NA
ATOM     17  C   UNL     1      -7.228 -10.401  14.689  0.00  0.00    +0.044 C 
ATOM     19  C   UNL     1      -6.802 -10.006  13.323  0.00  0.00    +0.003 A 
ATOM     21  C   UNL     1      -7.814  -9.640  12.428  0.00  0.00    -0.033 A 
ATOM     22  C   UNL     1      -9.240  -9.684  12.893  0.00  0.00    +0.059 C 
ATOM     23  C   UNL     1      -9.298  -9.307  14.368  0.00  0.00    +0.146 C 
ATOM     24  C   UNL     1      -5.465 -10.005  12.920  0.00  0.00    +0.059 A 
ATOM     25  C   UNL     1      -7.483  -9.297  11.113  0.00  0.00    +0.053 A 
ATOM     26  C   UNL     1      -5.142  -9.645  11.611  0.00  0.00    +0.162 A 
ATOM     27  C   UNL     1      -6.148  -9.295  10.709  0.00  0.00    +0.162 A 
BRANCH  26   5
ATOM      5  O   UNL     1      -3.837  -9.642  11.222  0.00  0.00    -0.491 OA
ATOM     33  C   UNL     1      -3.245 -10.909  10.935  0.00  0.00    +0.277 C 
ENDBRANCH  26   5
BRANCH  27   6
ATOM      6  O   UNL     1      -5.838  -8.950   9.428  0.00  0.00    -0.491 OA
ATOM     34  C   UNL     1      -5.989  -9.959   8.431  0.00  0.00    +0.277 C 
ENDBRANCH  27   6
ENDBRANCH  14  17
ENDBRANCH  10  14
BRANCH  11  16
ATOM     16  C   UNL     1      -3.256 -11.649  15.602  0.00  0.00    +0.124 C 
BRANCH  16  20
ATOM      4  O   UNL     1      -1.797 -10.358  14.138  0.00  0.00    -0.251 OA
ATOM     20  C   UNL     1      -1.990 -10.951  15.188  0.00  0.00    +0.305 C 
BRANCH  20   2
ATOM      2  O   UNL     1      -1.058 -11.071  16.169  0.00  0.00    -0.481 OA
ATOM     37  H   UNL     1      -0.146 -10.971  15.821  0.00  0.00    +0.295 HD
ENDBRANCH  20   2
ENDBRANCH  16  20
ENDBRANCH  11  16
TORSDOF 8
ENDMDL
MODEL 6
REMARK VINA RESULT:      -6.4      4.565      7.232
REMARK  Name = 51136623
REMARK  10 active torsions:
REMARK  status: ('A' for Active; 'I' for Inactive)
REMARK    1  A    between atoms: O_2  and  C_20
REMARK    2  A    between atoms: O_5  and  C_26
REMARK    3  A    between atoms: O_5  and  C_33
REMARK    4  A    between atoms: O_6  and  C_27
REMARK    5  A    between atoms: O_6  and  C_34
REMARK    6  A    between atoms: N_9  and  C_28
REMARK    7  A    between atoms: C_10  and  C_14
REMARK    8  A    between atoms: C_11  and  C_16
REMARK    9  A    between atoms: C_14  and  C_17
REMARK   10  A    between atoms: C_16  and  C_20
REMARK                            x       y       z     vdW  Elec       q    Type
REMARK                         _______ _______ _______ _____ _____    ______ ____
ROOT
ATOM      3  O   UNL     1      14.720   9.099  14.880  0.00  0.00    -0.252 OA
ATOM      7  N   UNL     1      13.453   8.911  16.804  0.00  0.00    -0.285 N 
ATOM      9  N   UNL     1      13.290  10.835  15.449  0.00  0.00    -0.269 N 
ATOM     10  C   UNL     1      13.035   9.495  19.177  0.00  0.00    +0.016 C 
ATOM     11  C   UNL     1      13.673   8.139  19.584  0.00  0.00    +0.006 C 
ATOM     12  C   UNL     1      14.659   7.627  18.518  0.00  0.00    +0.023 C 
ATOM     13  C   UNL     1      12.441   9.378  17.763  0.00  0.00    +0.113 C 
ATOM     15  C   UNL     1      14.020   7.602  17.129  0.00  0.00    +0.109 C 
ATOM     18  C   UNL     1      13.877   9.584  15.639  0.00  0.00    +0.306 C 
ATOM     36  H   UNL     1      12.360  10.994  15.817  0.00  0.00    +0.156 HD
ENDROOT
BRANCH   9  28
ATOM      1  F   UNL     1      15.506  15.235  12.902  0.00  0.00    -0.205 F 
ATOM     28  C   UNL     1      13.856  11.960  14.798  0.00  0.00    +0.035 A 
ATOM     29  C   UNL     1      14.823  12.728  15.448  0.00  0.00    +0.026 A 
ATOM     30  C   UNL     1      13.447  12.298  13.509  0.00  0.00    +0.026 A 
ATOM     31  C   UNL     1      15.380  13.834  14.807  0.00  0.00    +0.040 A 
ATOM     32  C   UNL     1      14.004  13.406  12.869  0.00  0.00    +0.040 A 
ATOM     35  C   UNL     1      14.970  14.173  13.517  0.00  0.00    +0.124 A 
ENDBRANCH   9  28
BRANCH  10  14
ATOM     14  C   UNL     1      13.996  10.686  19.258  0.00  0.00    +0.061 C 
BRANCH  14  17
ATOM      8  N   UNL     1      13.337  12.948  18.796  0.00  0.00    -0.287 NA
ATOM     17  C   UNL     1      13.231  11.941  19.600  0.00  0.00    +0.044 C 
ATOM     19  C   UNL     1      12.406  11.964  20.834  0.00  0.00    +0.003 A 
ATOM     21  C   UNL     1      12.035  13.222  21.322  0.00  0.00    -0.033 A 
ATOM     22  C   UNL     1      12.498  14.446  20.588  0.00  0.00    +0.059 C 
ATOM     23  C   UNL     1      12.548  14.147  19.095  0.00  0.00    +0.146 C 
ATOM     24  C   UNL     1      12.018  10.801  21.504  0.00  0.00    +0.059 A 
ATOM     25  C   UNL     1      11.292  13.313  22.503  0.00  0.00    +0.053 A 
ATOM     26  C   UNL     1      11.264  10.901  22.673  0.00  0.00    +0.162 A 
ATOM     27  C   UNL     1      10.904  12.153  23.173  0.00  0.00    +0.162 A 
BRANCH  26   5
ATOM      5  O   UNL     1      10.885   9.765  23.323  0.00  0.00    -0.491 OA
ATOM     33  C   UNL     1      10.934   8.548  22.580  0.00  0.00    +0.277 C 
ENDBRANCH  26   5
BRANCH  27   6
ATOM      6  O   UNL     1      10.174  12.256  24.319  0.00  0.00    -0.491 OA
ATOM     34  C   UNL     1      10.825  12.823  25.454  0.00  0.00    +0.277 C 
ENDBRANCH  27   6
ENDBRANCH  14  17
ENDBRANCH  10  14
BRANCH  11  16
ATOM     16  C   UNL     1      14.338   8.179  20.959  0.00  0.00    +0.124 C 
BRANCH  16  20
ATOM      4  O   UNL     1      16.661   7.443  21.020  0.00  0.00    -0.251 OA
ATOM     20  C   UNL     1      15.467   7.189  21.059  0.00  0.00    +0.305 C 
BRANCH  20   2
ATOM      2  O   UNL     1      14.965   5.936  21.202  0.00  0.00    -0.481 OA
ATOM     37  H   UNL     1      14.823   5.498  20.336  0.00  0.00    +0.295 HD
ENDBRANCH  20   2
ENDBRANCH  16  20
ENDBRANCH  11  16
TORSDOF 8
ENDMDL
MODEL 7
REMARK VINA RESULT:      -6.4     17.307     20.012
REMARK  Name = 51136623
REMARK  10 active torsions:
REMARK  status: ('A' for Active; 'I' for Inactive)
REMARK    1  A    between atoms: O_2  and  C_20
REMARK    2  A    between atoms: O_5  and  C_26
REMARK    3  A    between atoms: O_5  and  C_33
REMARK    4  A    between atoms: O_6  and  C_27
REMARK    5  A    between atoms: O_6  and  C_34
REMARK    6  A    between atoms: N_9  and  C_28
REMARK    7  A    between atoms: C_10  and  C_14
REMARK    8  A    between atoms: C_11  and  C_16
REMARK    9  A    between atoms: C_14  and  C_17
REMARK   10  A    between atoms: C_16  and  C_20
REMARK                            x       y       z     vdW  Elec       q    Type
REMARK                         _______ _______ _______ _____ _____    ______ ____
ROOT
ATOM      3  O   UNL     1      10.506   3.647   0.930  0.00  0.00    -0.252 OA
ATOM      7  N   UNL     1      12.814   3.624   1.046  0.00  0.00    -0.285 N 
ATOM      9  N   UNL     1      11.537   4.479   2.834  0.00  0.00    -0.269 N 
ATOM     10  C   UNL     1      14.992   4.800   0.907  0.00  0.00    +0.016 C 
ATOM     11  C   UNL     1      15.158   4.245  -0.533  0.00  0.00    +0.006 C 
ATOM     12  C   UNL     1      13.800   3.929  -1.185  0.00  0.00    +0.023 C 
ATOM     13  C   UNL     1      14.100   3.850   1.723  0.00  0.00    +0.113 C 
ATOM     15  C   UNL     1      12.942   3.037  -0.289  0.00  0.00    +0.109 C 
ATOM     18  C   UNL     1      11.532   3.893   1.569  0.00  0.00    +0.306 C 
ATOM     36  H   UNL     1      12.308   4.276   3.459  0.00  0.00    +0.156 HD
ENDROOT
BRANCH   9  28
ATOM      1  F   UNL     1       7.772   7.963   4.943  0.00  0.00    -0.205 F 
ATOM     28  C   UNL     1      10.574   5.369   3.372  0.00  0.00    +0.035 A 
ATOM     29  C   UNL     1      10.093   5.175   4.668  0.00  0.00    +0.026 A 
ATOM     30  C   UNL     1      10.109   6.439   2.609  0.00  0.00    +0.026 A 
ATOM     31  C   UNL     1       9.146   6.051   5.198  0.00  0.00    +0.040 A 
ATOM     32  C   UNL     1       9.162   7.315   3.139  0.00  0.00    +0.040 A 
ATOM     35  C   UNL     1       8.681   7.122   4.434  0.00  0.00    +0.124 A 
ENDBRANCH   9  28
BRANCH  10  14
ATOM     14  C   UNL     1      14.446   6.231   0.966  0.00  0.00    +0.061 C 
BRANCH  14  17
ATOM      8  N   UNL     1      16.571   7.335   1.145  0.00  0.00    -0.287 NA
ATOM     17  C   UNL     1      15.421   7.123   1.696  0.00  0.00    +0.044 C 
ATOM     19  C   UNL     1      15.020   7.704   3.002  0.00  0.00    +0.003 A 
ATOM     21  C   UNL     1      16.049   8.189   3.819  0.00  0.00    -0.033 A 
ATOM     22  C   UNL     1      17.465   8.079   3.338  0.00  0.00    +0.059 C 
ATOM     23  C   UNL     1      17.495   8.249   1.824  0.00  0.00    +0.146 C 
ATOM     24  C   UNL     1      13.691   7.763   3.426  0.00  0.00    +0.059 A 
ATOM     25  C   UNL     1      15.741   8.711   5.079  0.00  0.00    +0.053 A 
ATOM     26  C   UNL     1      13.392   8.300   4.678  0.00  0.00    +0.162 A 
ATOM     27  C   UNL     1      14.414   8.770   5.504  0.00  0.00    +0.162 A 
BRANCH  26   5
ATOM      5  O   UNL     1      12.094   8.359   5.088  0.00  0.00    -0.491 OA
ATOM     33  C   UNL     1      11.369   9.546   4.769  0.00  0.00    +0.277 C 
ENDBRANCH  26   5
BRANCH  27   6
ATOM      6  O   UNL     1      14.128   9.290   6.731  0.00  0.00    -0.491 OA
ATOM     34  C   UNL     1      14.201  10.708   6.867  0.00  0.00    +0.277 C 
ENDBRANCH  27   6
ENDBRANCH  14  17
ENDBRANCH  10  14
BRANCH  11  16
ATOM     16  C   UNL     1      15.990   5.157  -1.435  0.00  0.00    +0.124 C 
BRANCH  16  20
ATOM      4  O   UNL     1      17.864   4.702  -2.925  0.00  0.00    -0.251 OA
ATOM     20  C   UNL     1      17.257   4.485  -1.887  0.00  0.00    +0.305 C 
BRANCH  20   2
ATOM      2  O   UNL     1      17.649   3.574  -0.960  0.00  0.00    -0.481 OA
ATOM     37  H   UNL     1      17.644   2.661  -1.320  0.00  0.00    +0.295 HD
ENDBRANCH  20   2
ENDBRANCH  16  20
ENDBRANCH  11  16
TORSDOF 8
ENDMDL
MODEL 8
REMARK VINA RESULT:      -6.4     28.839     30.908
REMARK  Name = 51136623
REMARK  10 active torsions:
REMARK  status: ('A' for Active; 'I' for Inactive)
REMARK    1  A    between atoms: O_2  and  C_20
REMARK    2  A    between atoms: O_5  and  C_26
REMARK    3  A    between atoms: O_5  and  C_33
REMARK    4  A    between atoms: O_6  and  C_27
REMARK    5  A    between atoms: O_6  and  C_34
REMARK    6  A    between atoms: N_9  and  C_28
REMARK    7  A    between atoms: C_10  and  C_14
REMARK    8  A    between atoms: C_11  and  C_16
REMARK    9  A    between atoms: C_14  and  C_17
REMARK   10  A    between atoms: C_16  and  C_20
REMARK                            x       y       z     vdW  Elec       q    Type
REMARK                         _______ _______ _______ _____ _____    ______ ____
ROOT
ATOM      3  O   UNL     1      -8.281 -10.542  18.098  0.00  0.00    -0.252 OA
ATOM      7  N   UNL     1      -6.187 -10.289  17.153  0.00  0.00    -0.285 N 
ATOM      9  N   UNL     1      -7.931  -8.797  16.611  0.00  0.00    -0.269 N 
ATOM     10  C   UNL     1      -4.645 -10.541  15.229  0.00  0.00    +0.016 C 
ATOM     11  C   UNL     1      -4.077 -11.821  15.898  0.00  0.00    +0.006 C 
ATOM     12  C   UNL     1      -5.100 -12.472  16.848  0.00  0.00    +0.023 C 
ATOM     13  C   UNL     1      -5.199  -9.599  16.309  0.00  0.00    +0.113 C 
ATOM     15  C   UNL     1      -5.657 -11.461  17.849  0.00  0.00    +0.109 C 
ATOM     18  C   UNL     1      -7.532  -9.909  17.350  0.00  0.00    +0.306 C 
ATOM     36  H   UNL     1      -7.237  -8.098  16.372  0.00  0.00    +0.156 HD
ENDROOT
BRANCH   9  28
ATOM      1  F   UNL     1     -13.012  -7.692  14.679  0.00  0.00    -0.205 F 
ATOM     28  C   UNL     1      -9.229  -8.514  16.117  0.00  0.00    +0.035 A 
ATOM     29  C   UNL     1      -9.653  -9.071  14.909  0.00  0.00    +0.026 A 
ATOM     30  C   UNL     1     -10.083  -7.680  16.838  0.00  0.00    +0.026 A 
ATOM     31  C   UNL     1     -10.930  -8.793  14.424  0.00  0.00    +0.040 A 
ATOM     32  C   UNL     1     -11.361  -7.402  16.352  0.00  0.00    +0.040 A 
ATOM     35  C   UNL     1     -11.785  -7.958  15.145  0.00  0.00    +0.124 A 
ENDBRANCH   9  28
BRANCH  10  14
ATOM     14  C   UNL     1      -5.708 -10.814  14.159  0.00  0.00    +0.061 C 
BRANCH  14  17
ATOM      8  N   UNL     1      -3.944 -10.407  12.582  0.00  0.00    -0.287 NA
ATOM     17  C   UNL     1      -5.214 -10.345  12.812  0.00  0.00    +0.044 C 
ATOM     19  C   UNL     1      -6.200  -9.834  11.826  0.00  0.00    +0.003 A 
ATOM     21  C   UNL     1      -5.696  -9.063  10.772  0.00  0.00    -0.033 A 
ATOM     22  C   UNL     1      -4.221  -8.796  10.714  0.00  0.00    +0.059 C 
ATOM     23  C   UNL     1      -3.470 -10.008  11.253  0.00  0.00    +0.146 C 
ATOM     24  C   UNL     1      -7.570 -10.081  11.931  0.00  0.00    +0.059 A 
ATOM     25  C   UNL     1      -6.577  -8.517   9.833  0.00  0.00    +0.053 A 
ATOM     26  C   UNL     1      -8.440  -9.546  10.981  0.00  0.00    +0.162 A 
ATOM     27  C   UNL     1      -7.945  -8.764   9.936  0.00  0.00    +0.162 A 
BRANCH  26   5
ATOM      5  O   UNL     1      -9.776  -9.791  11.084  0.00  0.00    -0.491 OA
ATOM     33  C   UNL     1     -10.164 -11.112  11.459  0.00  0.00    +0.277 C 
ENDBRANCH  26   5
BRANCH  27   6
ATOM      6  O   UNL     1      -8.792  -8.233   9.010  0.00  0.00    -0.491 OA
ATOM     34  C   UNL     1      -8.267  -7.211   8.164  0.00  0.00    +0.277 C 
ENDBRANCH  27   6
ENDBRANCH  14  17
ENDBRANCH  10  14
BRANCH  11  16
ATOM     16  C   UNL     1      -3.551 -12.842  14.890  0.00  0.00    +0.124 C 
BRANCH  16  20
ATOM      4  O   UNL     1      -1.351 -11.795  14.926  0.00  0.00    -0.251 OA
ATOM     20  C   UNL     1      -2.208 -12.443  14.345  0.00  0.00    +0.305 C 
BRANCH  20   2
ATOM      2  O   UNL     1      -2.069 -12.914  13.079  0.00  0.00    -0.481 OA
ATOM     37  H   UNL     1      -2.133 -12.196  12.413  0.00  0.00    +0.295 HD
ENDBRANCH  20   2
ENDBRANCH  16  20
ENDBRANCH  11  16
TORSDOF 8
ENDMDL
MODEL 9
REMARK VINA RESULT:      -6.2      2.803      5.334
REMARK  Name = 51136623
REMARK  10 active torsions:
REMARK  status: ('A' for Active; 'I' for Inactive)
REMARK    1  A    between atoms: O_2  and  C_20
REMARK    2  A    between atoms: O_5  and  C_26
REMARK    3  A    between atoms: O_5  and  C_33
REMARK    4  A    between atoms: O_6  and  C_27
REMARK    5  A    between atoms: O_6  and  C_34
REMARK    6  A    between atoms: N_9  and  C_28
REMARK    7  A    between atoms: C_10  and  C_14
REMARK    8  A    between atoms: C_11  and  C_16
REMARK    9  A    between atoms: C_14  and  C_17
REMARK   10  A    between atoms: C_16  and  C_20
REMARK                            x       y       z     vdW  Elec       q    Type
REMARK                         _______ _______ _______ _____ _____    ______ ____
ROOT
ATOM      3  O   UNL     1      13.900  13.930  21.959  0.00  0.00    -0.252 OA
ATOM      7  N   UNL     1      13.679  11.665  22.357  0.00  0.00    -0.285 N 
ATOM      9  N   UNL     1      15.816  12.655  22.247  0.00  0.00    -0.269 N 
ATOM     10  C   UNL     1      13.781   9.316  21.570  0.00  0.00    +0.016 C 
ATOM     11  C   UNL     1      12.236   9.338  21.419  0.00  0.00    +0.006 C 
ATOM     12  C   UNL     1      11.702  10.767  21.205  0.00  0.00    +0.023 C 
ATOM     13  C   UNL     1      14.206  10.323  22.651  0.00  0.00    +0.113 C 
ATOM     15  C   UNL     1      12.219  11.725  22.278  0.00  0.00    +0.109 C 
ATOM     18  C   UNL     1      14.436  12.842  22.181  0.00  0.00    +0.306 C 
ATOM     36  H   UNL     1      16.176  11.902  22.822  0.00  0.00    +0.156 HD
ENDROOT
BRANCH   9  28
ATOM      1  F   UNL     1      19.733  15.578  19.625  0.00  0.00    -0.205 F 
ATOM     28  C   UNL     1      16.818  13.402  21.578  0.00  0.00    +0.035 A 
ATOM     29  C   UNL     1      17.057  13.186  20.219  0.00  0.00    +0.026 A 
ATOM     30  C   UNL     1      17.562  14.353  22.274  0.00  0.00    +0.026 A 
ATOM     31  C   UNL     1      18.042  13.921  19.561  0.00  0.00    +0.040 A 
ATOM     32  C   UNL     1      18.548  15.087  21.615  0.00  0.00    +0.040 A 
ATOM     35  C   UNL     1      18.788  14.872  20.258  0.00  0.00    +0.124 A 
ENDBRANCH   9  28
BRANCH  10  14
ATOM     14  C   UNL     1      14.539   9.579  20.265  0.00  0.00    +0.061 C 
BRANCH  14  17
ATOM      8  N   UNL     1      15.059   7.448  19.288  0.00  0.00    -0.287 NA
ATOM     17  C   UNL     1      15.495   8.444  19.987  0.00  0.00    +0.044 C 
ATOM     19  C   UNL     1      16.875   8.520  20.531  0.00  0.00    +0.003 A 
ATOM     21  C   UNL     1      17.594   7.321  20.595  0.00  0.00    -0.033 A 
ATOM     22  C   UNL     1      16.933   6.056  20.133  0.00  0.00    +0.059 C 
ATOM     23  C   UNL     1      16.004   6.373  18.967  0.00  0.00    +0.146 C 
ATOM     24  C   UNL     1      17.445   9.714  20.977  0.00  0.00    +0.059 A 
ATOM     25  C   UNL     1      18.884   7.317  21.135  0.00  0.00    +0.053 A 
ATOM     26  C   UNL     1      18.738   9.704  21.500  0.00  0.00    +0.162 A 
ATOM     27  C   UNL     1      19.455   8.509  21.581  0.00  0.00    +0.162 A 
BRANCH  26   5
ATOM      5  O   UNL     1      19.294  10.870  21.932  0.00  0.00    -0.491 OA
ATOM     33  C   UNL     1      19.139  11.186  23.315  0.00  0.00    +0.277 C 
ENDBRANCH  26   5
BRANCH  27   6
ATOM      6  O   UNL     1      20.716   8.493  22.097  0.00  0.00    -0.491 OA
ATOM     34  C   UNL     1      21.349   7.221  22.223  0.00  0.00    +0.277 C 
ENDBRANCH  27   6
ENDBRANCH  14  17
ENDBRANCH  10  14
BRANCH  11  16
ATOM     16  C   UNL     1      11.727   8.403  20.323  0.00  0.00    +0.124 C 
BRANCH  16  20
ATOM      4  O   UNL     1      11.369   6.528  21.838  0.00  0.00    -0.251 OA
ATOM     20  C   UNL     1      11.752   6.965  20.764  0.00  0.00    +0.305 C 
BRANCH  20   2
ATOM      2  O   UNL     1      12.276   6.193  19.778  0.00  0.00    -0.481 OA
ATOM     37  H   UNL     1      11.614   5.567  19.414  0.00  0.00    +0.295 HD
ENDBRANCH  20   2
ENDBRANCH  16  20
ENDBRANCH  11  16
TORSDOF 8
ENDMDL
MODEL 10
REMARK VINA RESULT:      -6.2     28.777     30.969
REMARK  Name = 51136623
REMARK  10 active torsions:
REMARK  status: ('A' for Active; 'I' for Inactive)
REMARK    1  A    between atoms: O_2  and  C_20
REMARK    2  A    between atoms: O_5  and  C_26
REMARK    3  A    between atoms: O_5  and  C_33
REMARK    4  A    between atoms: O_6  and  C_27
REMARK    5  A    between atoms: O_6  and  C_34
REMARK    6  A    between atoms: N_9  and  C_28
REMARK    7  A    between atoms: C_10  and  C_14
REMARK    8  A    between atoms: C_11  and  C_16
REMARK    9  A    between atoms: C_14  and  C_17
REMARK   10  A    between atoms: C_16  and  C_20
REMARK                            x       y       z     vdW  Elec       q    Type
REMARK                         _______ _______ _______ _____ _____    ______ ____
ROOT
ATOM      3  O   UNL     1     -10.440 -10.662  14.997  0.00  0.00    -0.252 OA
ATOM      7  N   UNL     1      -9.483 -11.009  12.923  0.00  0.00    -0.285 N 
ATOM      9  N   UNL     1      -8.305 -11.562  14.890  0.00  0.00    -0.269 N 
ATOM     10  C   UNL     1      -7.902 -10.335  11.137  0.00  0.00    +0.016 C 
ATOM     11  C   UNL     1      -9.095  -9.704  10.369  0.00  0.00    +0.006 C 
ATOM     12  C   UNL     1     -10.241  -9.309  11.319  0.00  0.00    +0.023 C 
ATOM     13  C   UNL     1      -8.412 -11.477  12.030  0.00  0.00    +0.113 C 
ATOM     15  C   UNL     1     -10.649 -10.473  12.221  0.00  0.00    +0.109 C 
ATOM     18  C   UNL     1      -9.481 -11.060  14.333  0.00  0.00    +0.306 C 
ATOM     36  H   UNL     1      -7.764 -12.233  14.357  0.00  0.00    +0.156 HD
ENDROOT
BRANCH   9  28
ATOM      1  F   UNL     1      -6.093 -10.258  19.806  0.00  0.00    -0.205 F 
ATOM     28  C   UNL     1      -7.739 -11.229  16.146  0.00  0.00    +0.035 A 
ATOM     29  C   UNL     1      -7.477  -9.895  16.461  0.00  0.00    +0.026 A 
ATOM     30  C   UNL     1      -7.445 -12.233  17.067  0.00  0.00    +0.026 A 
ATOM     31  C   UNL     1      -6.920  -9.567  17.697  0.00  0.00    +0.040 A 
ATOM     32  C   UNL     1      -6.889 -11.906  18.303  0.00  0.00    +0.040 A 
ATOM     35  C   UNL     1      -6.626 -10.573  18.618  0.00  0.00    +0.124 A 
ENDBRANCH   9  28
BRANCH  10  14
ATOM     14  C   UNL     1      -7.090  -9.331  11.962  0.00  0.00    +0.061 C 
BRANCH  14  17
ATOM      8  N   UNL     1      -5.347  -8.663  10.452  0.00  0.00    -0.287 NA
ATOM     17  C   UNL     1      -5.650  -9.340  11.511  0.00  0.00    +0.044 C 
ATOM     19  C   UNL     1      -4.659 -10.122  12.292  0.00  0.00    +0.003 A 
ATOM     21  C   UNL     1      -3.451 -10.427  11.654  0.00  0.00    -0.033 A 
ATOM     22  C   UNL     1      -3.244  -9.964  10.242  0.00  0.00    +0.059 C 
ATOM     23  C   UNL     1      -3.938  -8.622  10.047  0.00  0.00    +0.146 C 
ATOM     24  C   UNL     1      -4.901 -10.559  13.596  0.00  0.00    +0.059 A 
ATOM     25  C   UNL     1      -2.492 -11.197  12.320  0.00  0.00    +0.053 A 
ATOM     26  C   UNL     1      -3.933 -11.313  14.259  0.00  0.00    +0.162 A 
ATOM     27  C   UNL     1      -2.733 -11.634  13.623  0.00  0.00    +0.162 A 
BRANCH  26   5
ATOM      5  O   UNL     1      -4.171 -11.736  15.533  0.00  0.00    -0.491 OA
ATOM     33  C   UNL     1      -3.660 -10.924  16.589  0.00  0.00    +0.277 C 
ENDBRANCH  26   5
BRANCH  27   6
ATOM      6  O   UNL     1      -1.787 -12.376  14.264  0.00  0.00    -0.491 OA
ATOM     34  C   UNL     1      -1.589 -13.711  13.802  0.00  0.00    +0.277 C 
ENDBRANCH  27   6
ENDBRANCH  14  17
ENDBRANCH  10  14
BRANCH  11  16
ATOM     16  C   UNL     1      -8.687  -8.520   9.494  0.00  0.00    +0.124 C 
BRANCH  16  20
ATOM      4  O   UNL     1      -8.511  -9.841   7.453  0.00  0.00    -0.251 OA
ATOM     20  C   UNL     1      -8.077  -8.973   8.196  0.00  0.00    +0.305 C 
BRANCH  20   2
ATOM      2  O   UNL     1      -6.944  -8.267   7.951  0.00  0.00    -0.481 OA
ATOM     37  H   UNL     1      -7.032  -7.328   8.221  0.00  0.00    +0.295 HD
ENDBRANCH  20   2
ENDBRANCH  16  20
ENDBRANCH  11  16
TORSDOF 8
ENDMDL
