REMARK  Name = 7144135
REMARK  4 active torsions:
REMARK  status: ('A' for Active; 'I' for Inactive)
REMARK    1  A    between atoms: S_2  and  C_20
REMARK    2  A    between atoms: S_2  and  C_26
REMARK    3  A    between atoms: C_14  and  C_19
REMARK    4  A    between atoms: C_16  and  C_20
REMARK                            x       y       z     vdW  Elec       q    Type
REMARK                         _______ _______ _______ _____ _____    ______ ____
ROOT
ATOM      3  O   UNL     1      -2.511   2.736   2.146  0.00  0.00    -0.268 OA
ATOM      4  O   UNL     1      -3.763  -1.778  -0.262  0.00  0.00    -0.275 OA
ATOM      5  N   UNL     1      -1.966  -0.784  -1.347  0.00  0.00    -0.300 N 
ATOM      6  N   UNL     1      -1.286   1.800   0.383  0.00  0.00    -0.311 N 
ATOM      7  C   UNL     1      -2.269   1.606  -1.978  0.00  0.00    +0.027 C 
ATOM      8  C   UNL     1      -0.012   0.750  -1.513  0.00  0.00    +0.054 C 
ATOM      9  C   UNL     1      -0.818   1.668  -2.430  0.00  0.00    +0.018 C 
ATOM     10  C   UNL     1      -2.808   0.170  -2.069  0.00  0.00    +0.113 C 
ATOM     11  C   UNL     1      -2.358   2.161  -0.555  0.00  0.00    +0.130 C 
ATOM     12  C   UNL     1      -0.532  -0.697  -1.651  0.00  0.00    +0.117 C 
ATOM     13  C   UNL     1      -0.087   1.202  -0.052  0.00  0.00    +0.034 A 
ATOM     14  C   UNL     1       0.936   1.024   0.823  0.00  0.00    +0.002 A 
ATOM     15  C   UNL     1      -1.490   2.198   1.716  0.00  0.00    +0.252 A 
ATOM     16  C   UNL     1      -2.554  -1.725  -0.502  0.00  0.00    +0.225 C 
ATOM     17  C   UNL     1       0.761   1.419   2.208  0.00  0.00    +0.015 A 
ATOM     18  C   UNL     1      -0.372   1.959   2.656  0.00  0.00    +0.071 A 
ENDROOT
BRANCH  14  19
ATOM      1 CL   UNL     1       6.133  -1.424  -0.852  0.00  0.00    -0.084 Cl
ATOM     19  C   UNL     1       2.221   0.419   0.409  0.00  0.00    -0.016 A 
ATOM     21  C   UNL     1       2.387  -0.961   0.474  0.00  0.00    +0.010 A 
ATOM     22  C   UNL     1       3.255   1.234  -0.043  0.00  0.00    +0.010 A 
ATOM     23  C   UNL     1       3.599  -1.532   0.083  0.00  0.00    +0.020 A 
ATOM     24  C   UNL     1       4.466   0.663  -0.433  0.00  0.00    +0.020 A 
ATOM     25  C   UNL     1       4.638  -0.720  -0.370  0.00  0.00    +0.041 A 
ENDBRANCH  14  19
BRANCH  16  20
ATOM     20  C   UNL     1      -1.629  -2.720   0.150  0.00  0.00    +0.164 C 
BRANCH  20   2
ATOM      2  S   UNL     1      -2.628  -3.802   1.183  0.00  0.00    -0.155 S 
ATOM     26  C   UNL     1      -1.313  -4.865   1.828  0.00  0.00    +0.085 C 
ENDBRANCH  20   2
ENDBRANCH  16  20
TORSDOF 3
