MODEL 1
REMARK VINA RESULT:      -7.5      0.000      0.000
REMARK  Name = 75536692
REMARK  9 active torsions:
REMARK  status: ('A' for Active; 'I' for Inactive)
REMARK    1  A    between atoms: S_1  and  N_7
REMARK    2  A    between atoms: S_1  and  C_16
REMARK    3  A    between atoms: O_3  and  C_10
REMARK    4  A    between atoms: N_6  and  C_9
REMARK    5  A    between atoms: N_6  and  C_14
REMARK    6  A    between atoms: N_7  and  C_13
REMARK    7  A    between atoms: C_11  and  C_13
REMARK    8  A    between atoms: C_14  and  C_15
REMARK    9  A    between atoms: C_21  and  C_27
REMARK                            x       y       z     vdW  Elec       q    Type
REMARK                         _______ _______ _______ _____ _____    ______ ____
ROOT
ATOM      2  O   UNL     1      10.561   8.491  19.938  0.00  0.00    -0.371 OA
ATOM      9  C   UNL     1      12.432   7.205  19.242  0.00  0.00    +0.111 C 
ATOM     10  C   UNL     1      12.373   7.211  20.758  0.00  0.00    +0.164 C 
ATOM     11  C   UNL     1      10.914   7.581  20.993  0.00  0.00    +0.164 C 
ATOM     12  C   UNL     1      11.553   8.397  18.901  0.00  0.00    +0.181 C 
ENDROOT
BRANCH  10   3
ATOM      3  O   UNL     1      12.695   5.955  21.323  0.00  0.00    -0.388 OA
ATOM     29  H   UNL     1      11.890   5.410  21.337  0.00  0.00    +0.210 HD
ENDBRANCH  10   3
BRANCH   9   6
ATOM      6  N   UNL     1      13.780   7.325  18.710  0.00  0.00    -0.305 NA
ATOM     28  H   UNL     1      13.736   7.766  17.791  0.00  0.00    +0.123 HD
BRANCH   6  14
ATOM     14  C   UNL     1      14.619   8.136  19.584  0.00  0.00    +0.116 C 
BRANCH  14  15
ATOM     15  C   UNL     1      15.963   7.498  19.819  0.00  0.00    -0.032 A 
ATOM     17  C   UNL     1      16.829   8.026  20.776  0.00  0.00    +0.023 A 
ATOM     18  C   UNL     1      16.340   6.377  19.080  0.00  0.00    +0.005 A 
ATOM     21  C   UNL     1      18.073   7.434  20.993  0.00  0.00    +0.052 A 
ATOM     22  C   UNL     1      17.584   5.784  19.298  0.00  0.00    +0.002 A 
ATOM     23  C   UNL     1      18.451   6.312  20.254  0.00  0.00    +0.019 A 
BRANCH  21  27
ATOM      8  N   UNL     1      19.684   8.413  22.770  0.00  0.00    -0.191 NA
ATOM     27  C   UNL     1      18.961   7.975  21.974  0.00  0.00    +0.099 C 
ENDBRANCH  21  27
ENDBRANCH  14  15
ENDBRANCH   6  14
ENDBRANCH   9   6
BRANCH  11  13
ATOM     13  C   UNL     1      10.670   8.237  22.340  0.00  0.00    +0.140 C 
BRANCH  13   7
ATOM      7  N   UNL     1      10.411   9.678  22.149  0.00  0.00    -0.187 NA
ATOM     30  H   UNL     1       9.558   9.912  21.626  0.00  0.00    +0.148 HD
BRANCH   7   1
ATOM      1  S   UNL     1      11.705  10.781  22.125  0.00  0.00    +0.058 S 
ATOM      4  O   UNL     1      11.797  11.386  20.809  0.00  0.00    -0.153 OA
ATOM      5  O   UNL     1      12.869  10.156  22.721  0.00  0.00    -0.153 OA
BRANCH   1  16
ATOM     16  C   UNL     1      11.147  12.020  23.256  0.00  0.00    +0.105 A 
ATOM     19  C   UNL     1      10.644  13.228  22.776  0.00  0.00    +0.028 A 
ATOM     20  C   UNL     1      11.214  11.788  24.631  0.00  0.00    +0.028 A 
ATOM     24  C   UNL     1      10.206  14.205  23.670  0.00  0.00    +0.002 A 
ATOM     25  C   UNL     1      10.777  12.766  25.524  0.00  0.00    +0.002 A 
ATOM     26  C   UNL     1      10.272  13.974  25.044  0.00  0.00    +0.000 A 
ENDBRANCH   1  16
ENDBRANCH   7   1
ENDBRANCH  13   7
ENDBRANCH  11  13
TORSDOF 9
ENDMDL
MODEL 2
REMARK VINA RESULT:      -7.1      2.162      2.904
REMARK  Name = 75536692
REMARK  9 active torsions:
REMARK  status: ('A' for Active; 'I' for Inactive)
REMARK    1  A    between atoms: S_1  and  N_7
REMARK    2  A    between atoms: S_1  and  C_16
REMARK    3  A    between atoms: O_3  and  C_10
REMARK    4  A    between atoms: N_6  and  C_9
REMARK    5  A    between atoms: N_6  and  C_14
REMARK    6  A    between atoms: N_7  and  C_13
REMARK    7  A    between atoms: C_11  and  C_13
REMARK    8  A    between atoms: C_14  and  C_15
REMARK    9  A    between atoms: C_21  and  C_27
REMARK                            x       y       z     vdW  Elec       q    Type
REMARK                         _______ _______ _______ _____ _____    ______ ____
ROOT
ATOM      2  O   UNL     1      12.044   8.894  20.291  0.00  0.00    -0.371 OA
ATOM      9  C   UNL     1      13.252   6.849  20.309  0.00  0.00    +0.111 C 
ATOM     10  C   UNL     1      12.254   6.844  21.452  0.00  0.00    +0.164 C 
ATOM     11  C   UNL     1      11.265   7.903  20.982  0.00  0.00    +0.164 C 
ATOM     12  C   UNL     1      13.332   8.332  19.985  0.00  0.00    +0.181 C 
ENDROOT
BRANCH  10   3
ATOM      3  O   UNL     1      11.634   5.585  21.629  0.00  0.00    -0.388 OA
ATOM     29  H   UNL     1      10.684   5.684  21.446  0.00  0.00    +0.210 HD
ENDBRANCH  10   3
BRANCH   9   6
ATOM      6  N   UNL     1      14.542   6.275  20.657  0.00  0.00    -0.305 NA
ATOM     28  H   UNL     1      14.450   5.261  20.714  0.00  0.00    +0.123 HD
BRANCH   6  14
ATOM     14  C   UNL     1      15.550   6.603  19.655  0.00  0.00    +0.116 C 
BRANCH  14  15
ATOM     15  C   UNL     1      16.855   7.010  20.287  0.00  0.00    -0.032 A 
ATOM     17  C   UNL     1      17.980   6.198  20.152  0.00  0.00    +0.023 A 
ATOM     18  C   UNL     1      16.938   8.203  21.006  0.00  0.00    +0.005 A 
ATOM     21  C   UNL     1      19.189   6.577  20.736  0.00  0.00    +0.052 A 
ATOM     22  C   UNL     1      18.146   8.582  21.590  0.00  0.00    +0.002 A 
ATOM     23  C   UNL     1      19.272   7.770  21.455  0.00  0.00    +0.019 A 
BRANCH  21  27
ATOM      8  N   UNL     1      21.280   5.070  20.484  0.00  0.00    -0.191 NA
ATOM     27  C   UNL     1      20.342   5.745  20.598  0.00  0.00    +0.099 C 
ENDBRANCH  21  27
ENDBRANCH  14  15
ENDBRANCH   6  14
ENDBRANCH   9   6
BRANCH  11  13
ATOM     13  C   UNL     1      10.499   8.555  22.119  0.00  0.00    +0.140 C 
BRANCH  13   7
ATOM      7  N   UNL     1      11.445   9.229  23.031  0.00  0.00    -0.187 NA
ATOM     30  H   UNL     1      11.800   8.657  23.808  0.00  0.00    +0.148 HD
BRANCH   7   1
ATOM      1  S   UNL     1      11.378  10.917  23.232  0.00  0.00    +0.058 S 
ATOM      4  O   UNL     1      10.653  11.228  24.449  0.00  0.00    -0.153 OA
ATOM      5  O   UNL     1      10.987  11.526  21.976  0.00  0.00    -0.153 OA
BRANCH   1  16
ATOM     16  C   UNL     1      13.080  11.318  23.493  0.00  0.00    +0.105 A 
ATOM     19  C   UNL     1      13.462  12.034  24.627  0.00  0.00    +0.028 A 
ATOM     20  C   UNL     1      14.040  10.920  22.562  0.00  0.00    +0.028 A 
ATOM     24  C   UNL     1      14.805  12.352  24.831  0.00  0.00    +0.002 A 
ATOM     25  C   UNL     1      15.382  11.239  22.765  0.00  0.00    +0.002 A 
ATOM     26  C   UNL     1      15.765  11.954  23.900  0.00  0.00    +0.000 A 
ENDBRANCH   1  16
ENDBRANCH   7   1
ENDBRANCH  13   7
ENDBRANCH  11  13
TORSDOF 9
ENDMDL
MODEL 3
REMARK VINA RESULT:      -6.8     27.279     30.215
REMARK  Name = 75536692
REMARK  9 active torsions:
REMARK  status: ('A' for Active; 'I' for Inactive)
REMARK    1  A    between atoms: S_1  and  N_7
REMARK    2  A    between atoms: S_1  and  C_16
REMARK    3  A    between atoms: O_3  and  C_10
REMARK    4  A    between atoms: N_6  and  C_9
REMARK    5  A    between atoms: N_6  and  C_14
REMARK    6  A    between atoms: N_7  and  C_13
REMARK    7  A    between atoms: C_11  and  C_13
REMARK    8  A    between atoms: C_14  and  C_15
REMARK    9  A    between atoms: C_21  and  C_27
REMARK                            x       y       z     vdW  Elec       q    Type
REMARK                         _______ _______ _______ _____ _____    ______ ____
ROOT
ATOM      2  O   UNL     1     -17.473   3.337  27.358  0.00  0.00    -0.371 OA
ATOM      9  C   UNL     1     -16.840   2.632  25.180  0.00  0.00    +0.111 C 
ATOM     10  C   UNL     1     -16.549   1.516  26.167  0.00  0.00    +0.164 C 
ATOM     11  C   UNL     1     -17.462   1.901  27.323  0.00  0.00    +0.164 C 
ATOM     12  C   UNL     1     -16.960   3.830  26.108  0.00  0.00    +0.181 C 
ENDROOT
BRANCH  10   3
ATOM      3  O   UNL     1     -16.863   0.236  25.651  0.00  0.00    -0.388 OA
ATOM     29  H   UNL     1     -16.492  -0.434  26.250  0.00  0.00    +0.210 HD
ENDBRANCH  10   3
BRANCH   9   6
ATOM      6  N   UNL     1     -15.811   2.800  24.168  0.00  0.00    -0.305 NA
ATOM     28  H   UNL     1     -16.249   2.808  23.246  0.00  0.00    +0.123 HD
BRANCH   6  14
ATOM     14  C   UNL     1     -15.087   4.051  24.358  0.00  0.00    +0.116 C 
BRANCH  14  15
ATOM     15  C   UNL     1     -15.031   4.864  23.091  0.00  0.00    -0.032 A 
ATOM     17  C   UNL     1     -13.820   5.406  22.661  0.00  0.00    +0.023 A 
ATOM     18  C   UNL     1     -16.192   5.072  22.346  0.00  0.00    +0.005 A 
ATOM     21  C   UNL     1     -13.770   6.157  21.487  0.00  0.00    +0.052 A 
ATOM     22  C   UNL     1     -16.141   5.824  21.172  0.00  0.00    +0.002 A 
ATOM     23  C   UNL     1     -14.930   6.367  20.742  0.00  0.00    +0.019 A 
BRANCH  21  27
ATOM      8  N   UNL     1     -11.521   7.164  20.690  0.00  0.00    -0.191 NA
ATOM     27  C   UNL     1     -12.529   6.713  21.047  0.00  0.00    +0.099 C 
ENDBRANCH  21  27
ENDBRANCH  14  15
ENDBRANCH   6  14
ENDBRANCH   9   6
BRANCH  11  13
ATOM     13  C   UNL     1     -16.995   1.359  28.662  0.00  0.00    +0.140 C 
BRANCH  13   7
ATOM      7  N   UNL     1     -15.732   0.615  28.482  0.00  0.00    -0.187 NA
ATOM     30  H   UNL     1     -15.547   0.275  27.530  0.00  0.00    +0.148 HD
BRANCH   7   1
ATOM      1  S   UNL     1     -15.046  -0.227  29.791  0.00  0.00    +0.058 S 
ATOM      4  O   UNL     1     -13.876  -0.954  29.335  0.00  0.00    -0.153 OA
ATOM      5  O   UNL     1     -16.097  -0.918  30.512  0.00  0.00    -0.153 OA
BRANCH   1  16
ATOM     16  C   UNL     1     -14.495   1.097  30.825  0.00  0.00    +0.105 A 
ATOM     19  C   UNL     1     -13.718   2.124  30.289  0.00  0.00    +0.028 A 
ATOM     20  C   UNL     1     -14.838   1.113  32.177  0.00  0.00    +0.028 A 
ATOM     24  C   UNL     1     -13.283   3.167  31.107  0.00  0.00    +0.002 A 
ATOM     25  C   UNL     1     -14.402   2.156  32.994  0.00  0.00    +0.002 A 
ATOM     26  C   UNL     1     -13.625   3.183  32.459  0.00  0.00    +0.000 A 
ENDBRANCH   1  16
ENDBRANCH   7   1
ENDBRANCH  13   7
ENDBRANCH  11  13
TORSDOF 9
ENDMDL
MODEL 4
REMARK VINA RESULT:      -6.8      3.076      6.941
REMARK  Name = 75536692
REMARK  9 active torsions:
REMARK  status: ('A' for Active; 'I' for Inactive)
REMARK    1  A    between atoms: S_1  and  N_7
REMARK    2  A    between atoms: S_1  and  C_16
REMARK    3  A    between atoms: O_3  and  C_10
REMARK    4  A    between atoms: N_6  and  C_9
REMARK    5  A    between atoms: N_6  and  C_14
REMARK    6  A    between atoms: N_7  and  C_13
REMARK    7  A    between atoms: C_11  and  C_13
REMARK    8  A    between atoms: C_14  and  C_15
REMARK    9  A    between atoms: C_21  and  C_27
REMARK                            x       y       z     vdW  Elec       q    Type
REMARK                         _______ _______ _______ _____ _____    ______ ____
ROOT
ATOM      2  O   UNL     1      13.776  13.683  24.080  0.00  0.00    -0.371 OA
ATOM      9  C   UNL     1      12.631  11.889  25.134  0.00  0.00    +0.111 C 
ATOM     10  C   UNL     1      14.084  11.499  24.933  0.00  0.00    +0.164 C 
ATOM     11  C   UNL     1      14.735  12.866  24.772  0.00  0.00    +0.164 C 
ATOM     12  C   UNL     1      12.490  13.042  24.154  0.00  0.00    +0.181 C 
ENDROOT
BRANCH  10   3
ATOM      3  O   UNL     1      14.615  10.788  26.034  0.00  0.00    -0.388 OA
ATOM     29  H   UNL     1      13.971  10.823  26.762  0.00  0.00    +0.210 HD
ENDBRANCH  10   3
BRANCH   9   6
ATOM      6  N   UNL     1      11.694  10.808  24.874  0.00  0.00    -0.305 NA
ATOM     28  H   UNL     1      11.108  10.671  25.698  0.00  0.00    +0.123 HD
BRANCH   6  14
ATOM     14  C   UNL     1      10.841  11.116  23.733  0.00  0.00    +0.116 C 
BRANCH  14  15
ATOM     15  C   UNL     1      11.158  10.245  22.545  0.00  0.00    -0.032 A 
ATOM     17  C   UNL     1      10.982   8.864  22.624  0.00  0.00    +0.023 A 
ATOM     18  C   UNL     1      11.626  10.822  21.365  0.00  0.00    +0.005 A 
ATOM     21  C   UNL     1      11.275   8.060  21.523  0.00  0.00    +0.052 A 
ATOM     22  C   UNL     1      11.919  10.018  20.264  0.00  0.00    +0.002 A 
ATOM     23  C   UNL     1      11.744   8.636  20.342  0.00  0.00    +0.019 A 
BRANCH  21  27
ATOM      8  N   UNL     1      10.947   5.495  21.668  0.00  0.00    -0.191 NA
ATOM     27  C   UNL     1      11.095   6.644  21.603  0.00  0.00    +0.099 C 
ENDBRANCH  21  27
ENDBRANCH  14  15
ENDBRANCH   6  14
ENDBRANCH   9   6
BRANCH  11  13
ATOM     13  C   UNL     1      16.033  12.823  23.987  0.00  0.00    +0.140 C 
BRANCH  13   7
ATOM      7  N   UNL     1      16.131  11.541  23.261  0.00  0.00    -0.187 NA
ATOM     30  H   UNL     1      16.714  10.821  23.704  0.00  0.00    +0.148 HD
BRANCH   7   1
ATOM      1  S   UNL     1      15.942  11.503  21.571  0.00  0.00    +0.058 S 
ATOM      4  O   UNL     1      17.213  11.797  20.937  0.00  0.00    -0.153 OA
ATOM      5  O   UNL     1      14.757  12.258  21.212  0.00  0.00    -0.153 OA
BRANCH   1  16
ATOM     16  C   UNL     1      15.573   9.797  21.287  0.00  0.00    +0.105 A 
ATOM     19  C   UNL     1      15.815   9.230  20.036  0.00  0.00    +0.028 A 
ATOM     20  C   UNL     1      15.036   9.020  22.314  0.00  0.00    +0.028 A 
ATOM     24  C   UNL     1      15.521   7.884  19.812  0.00  0.00    +0.002 A 
ATOM     25  C   UNL     1      14.742   7.675  22.090  0.00  0.00    +0.002 A 
ATOM     26  C   UNL     1      14.985   7.108  20.839  0.00  0.00    +0.000 A 
ENDBRANCH   1  16
ENDBRANCH   7   1
ENDBRANCH  13   7
ENDBRANCH  11  13
TORSDOF 9
ENDMDL
MODEL 5
REMARK VINA RESULT:      -6.7     25.539     28.382
REMARK  Name = 75536692
REMARK  9 active torsions:
REMARK  status: ('A' for Active; 'I' for Inactive)
REMARK    1  A    between atoms: S_1  and  N_7
REMARK    2  A    between atoms: S_1  and  C_16
REMARK    3  A    between atoms: O_3  and  C_10
REMARK    4  A    between atoms: N_6  and  C_9
REMARK    5  A    between atoms: N_6  and  C_14
REMARK    6  A    between atoms: N_7  and  C_13
REMARK    7  A    between atoms: C_11  and  C_13
REMARK    8  A    between atoms: C_14  and  C_15
REMARK    9  A    between atoms: C_21  and  C_27
REMARK                            x       y       z     vdW  Elec       q    Type
REMARK                         _______ _______ _______ _____ _____    ______ ____
ROOT
ATOM      2  O   UNL     1     -16.074   5.286  22.203  0.00  0.00    -0.371 OA
ATOM      9  C   UNL     1     -13.888   5.887  21.495  0.00  0.00    +0.111 C 
ATOM     10  C   UNL     1     -13.806   5.252  22.871  0.00  0.00    +0.164 C 
ATOM     11  C   UNL     1     -15.120   4.484  22.919  0.00  0.00    +0.164 C 
ATOM     12  C   UNL     1     -15.360   6.261  21.424  0.00  0.00    +0.181 C 
ENDROOT
BRANCH  10   3
ATOM      3  O   UNL     1     -12.689   4.395  23.011  0.00  0.00    -0.388 OA
ATOM     29  H   UNL     1     -12.365   4.460  23.925  0.00  0.00    +0.210 HD
ENDBRANCH  10   3
BRANCH   9   6
ATOM      6  N   UNL     1     -13.005   7.028  21.324  0.00  0.00    -0.305 NA
ATOM     28  H   UNL     1     -12.752   7.393  22.243  0.00  0.00    +0.123 HD
BRANCH   6  14
ATOM     14  C   UNL     1     -11.789   6.650  20.615  0.00  0.00    +0.116 C 
BRANCH  14  15
ATOM     15  C   UNL     1     -11.316   7.743  19.692  0.00  0.00    -0.032 A 
ATOM     17  C   UNL     1     -11.191   7.498  18.325  0.00  0.00    +0.023 A 
ATOM     18  C   UNL     1     -11.005   9.002  20.207  0.00  0.00    +0.005 A 
ATOM     21  C   UNL     1     -10.754   8.511  17.472  0.00  0.00    +0.052 A 
ATOM     22  C   UNL     1     -10.567  10.015  19.354  0.00  0.00    +0.002 A 
ATOM     23  C   UNL     1     -10.442   9.770  17.986  0.00  0.00    +0.019 A 
BRANCH  21  27
ATOM      8  N   UNL     1     -10.522   8.057  14.933  0.00  0.00    -0.191 NA
ATOM     27  C   UNL     1     -10.626   8.261  16.071  0.00  0.00    +0.099 C 
ENDBRANCH  21  27
ENDBRANCH  14  15
ENDBRANCH   6  14
ENDBRANCH   9   6
BRANCH  11  13
ATOM     13  C   UNL     1     -15.617   4.234  24.331  0.00  0.00    +0.140 C 
BRANCH  13   7
ATOM      7  N   UNL     1     -15.559   2.789  24.628  0.00  0.00    -0.187 NA
ATOM     30  H   UNL     1     -14.947   2.233  24.018  0.00  0.00    +0.148 HD
BRANCH   7   1
ATOM      1  S   UNL     1     -16.880   2.017  25.371  0.00  0.00    +0.058 S 
ATOM      4  O   UNL     1     -16.885   0.613  25.005  0.00  0.00    -0.153 OA
ATOM      5  O   UNL     1     -18.068   2.825  25.177  0.00  0.00    -0.153 OA
BRANCH   1  16
ATOM     16  C   UNL     1     -16.451   2.133  27.083  0.00  0.00    +0.105 A 
ATOM     19  C   UNL     1     -16.094   3.364  27.631  0.00  0.00    +0.028 A 
ATOM     20  C   UNL     1     -16.468   0.990  27.884  0.00  0.00    +0.028 A 
ATOM     24  C   UNL     1     -15.754   3.454  28.981  0.00  0.00    +0.002 A 
ATOM     25  C   UNL     1     -16.127   1.080  29.233  0.00  0.00    +0.002 A 
ATOM     26  C   UNL     1     -15.771   2.312  29.782  0.00  0.00    +0.000 A 
ENDBRANCH   1  16
ENDBRANCH   7   1
ENDBRANCH  13   7
ENDBRANCH  11  13
TORSDOF 9
ENDMDL
MODEL 6
REMARK VINA RESULT:      -6.6      3.254      7.167
REMARK  Name = 75536692
REMARK  9 active torsions:
REMARK  status: ('A' for Active; 'I' for Inactive)
REMARK    1  A    between atoms: S_1  and  N_7
REMARK    2  A    between atoms: S_1  and  C_16
REMARK    3  A    between atoms: O_3  and  C_10
REMARK    4  A    between atoms: N_6  and  C_9
REMARK    5  A    between atoms: N_6  and  C_14
REMARK    6  A    between atoms: N_7  and  C_13
REMARK    7  A    between atoms: C_11  and  C_13
REMARK    8  A    between atoms: C_14  and  C_15
REMARK    9  A    between atoms: C_21  and  C_27
REMARK                            x       y       z     vdW  Elec       q    Type
REMARK                         _______ _______ _______ _____ _____    ______ ____
ROOT
ATOM      2  O   UNL     1      15.625  13.677  22.814  0.00  0.00    -0.371 OA
ATOM      9  C   UNL     1      13.690  12.645  23.727  0.00  0.00    +0.111 C 
ATOM     10  C   UNL     1      14.867  11.698  23.864  0.00  0.00    +0.164 C 
ATOM     11  C   UNL     1      16.038  12.665  23.748  0.00  0.00    +0.164 C 
ATOM     12  C   UNL     1      14.197  13.603  22.661  0.00  0.00    +0.181 C 
ENDROOT
BRANCH  10   3
ATOM      3  O   UNL     1      14.873  11.010  25.100  0.00  0.00    -0.388 OA
ATOM     29  H   UNL     1      13.954  10.913  25.401  0.00  0.00    +0.210 HD
ENDBRANCH  10   3
BRANCH   9   6
ATOM      6  N   UNL     1      12.450  11.986  23.352  0.00  0.00    -0.305 NA
ATOM     28  H   UNL     1      11.663  12.549  23.677  0.00  0.00    +0.123 HD
BRANCH   6  14
ATOM     14  C   UNL     1      12.354  11.831  21.906  0.00  0.00    +0.116 C 
BRANCH  14  15
ATOM     15  C   UNL     1      11.799  10.484  21.523  0.00  0.00    -0.032 A 
ATOM     17  C   UNL     1      11.960  10.006  20.222  0.00  0.00    +0.023 A 
ATOM     18  C   UNL     1      11.126   9.713  22.471  0.00  0.00    +0.005 A 
ATOM     21  C   UNL     1      11.447   8.758  19.869  0.00  0.00    +0.052 A 
ATOM     22  C   UNL     1      10.613   8.465  22.117  0.00  0.00    +0.002 A 
ATOM     23  C   UNL     1      10.773   7.987  20.817  0.00  0.00    +0.019 A 
BRANCH  21  27
ATOM      8  N   UNL     1      11.747   7.870  17.455  0.00  0.00    -0.191 NA
ATOM     27  C   UNL     1      11.612   8.268  18.537  0.00  0.00    +0.099 C 
ENDBRANCH  21  27
ENDBRANCH  14  15
ENDBRANCH   6  14
ENDBRANCH   9   6
BRANCH  11  13
ATOM     13  C   UNL     1      17.315  12.006  23.259  0.00  0.00    +0.140 C 
BRANCH  13   7
ATOM      7  N   UNL     1      17.015  10.643  22.776  0.00  0.00    -0.187 NA
ATOM     30  H   UNL     1      17.167   9.887  23.455  0.00  0.00    +0.148 HD
BRANCH   7   1
ATOM      1  S   UNL     1      17.135  10.281  21.119  0.00  0.00    +0.058 S 
ATOM      4  O   UNL     1      18.471   9.799  20.827  0.00  0.00    -0.153 OA
ATOM      5  O   UNL     1      16.572  11.377  20.354  0.00  0.00    -0.153 OA
BRANCH   1  16
ATOM     16  C   UNL     1      16.018   8.918  20.965  0.00  0.00    +0.105 A 
ATOM     19  C   UNL     1      15.187   8.573  22.030  0.00  0.00    +0.028 A 
ATOM     20  C   UNL     1      15.971   8.188  19.777  0.00  0.00    +0.028 A 
ATOM     24  C   UNL     1      14.308   7.497  21.908  0.00  0.00    +0.002 A 
ATOM     25  C   UNL     1      15.093   7.111  19.656  0.00  0.00    +0.002 A 
ATOM     26  C   UNL     1      14.261   6.766  20.721  0.00  0.00    +0.000 A 
ENDBRANCH   1  16
ENDBRANCH   7   1
ENDBRANCH  13   7
ENDBRANCH  11  13
TORSDOF 9
ENDMDL
MODEL 7
REMARK VINA RESULT:      -6.5     26.928     30.066
REMARK  Name = 75536692
REMARK  9 active torsions:
REMARK  status: ('A' for Active; 'I' for Inactive)
REMARK    1  A    between atoms: S_1  and  N_7
REMARK    2  A    between atoms: S_1  and  C_16
REMARK    3  A    between atoms: O_3  and  C_10
REMARK    4  A    between atoms: N_6  and  C_9
REMARK    5  A    between atoms: N_6  and  C_14
REMARK    6  A    between atoms: N_7  and  C_13
REMARK    7  A    between atoms: C_11  and  C_13
REMARK    8  A    between atoms: C_14  and  C_15
REMARK    9  A    between atoms: C_21  and  C_27
REMARK                            x       y       z     vdW  Elec       q    Type
REMARK                         _______ _______ _______ _____ _____    ______ ____
ROOT
ATOM      2  O   UNL     1     -16.527   1.840  24.554  0.00  0.00    -0.371 OA
ATOM      9  C   UNL     1     -17.317   2.308  26.744  0.00  0.00    +0.111 C 
ATOM     10  C   UNL     1     -16.236   3.310  26.383  0.00  0.00    +0.164 C 
ATOM     11  C   UNL     1     -16.243   3.215  24.863  0.00  0.00    +0.164 C 
ATOM     12  C   UNL     1     -17.055   1.205  25.731  0.00  0.00    +0.181 C 
ENDROOT
BRANCH  10   3
ATOM      3  O   UNL     1     -16.533   4.619  26.831  0.00  0.00    -0.388 OA
ATOM     29  H   UNL     1     -17.422   4.613  27.225  0.00  0.00    +0.210 HD
ENDBRANCH  10   3
BRANCH   9   6
ATOM      6  N   UNL     1     -17.245   1.842  28.119  0.00  0.00    -0.305 NA
ATOM     28  H   UNL     1     -18.067   1.270  28.320  0.00  0.00    +0.123 HD
BRANCH   6  14
ATOM     14  C   UNL     1     -16.047   1.041  28.340  0.00  0.00    +0.116 C 
BRANCH  14  15
ATOM     15  C   UNL     1     -15.511   1.208  29.738  0.00  0.00    -0.032 A 
ATOM     17  C   UNL     1     -15.158   2.475  30.203  0.00  0.00    +0.023 A 
ATOM     18  C   UNL     1     -15.370   0.096  30.567  0.00  0.00    +0.005 A 
ATOM     21  C   UNL     1     -14.663   2.629  31.498  0.00  0.00    +0.052 A 
ATOM     22  C   UNL     1     -14.875   0.250  31.862  0.00  0.00    +0.002 A 
ATOM     23  C   UNL     1     -14.521   1.516  32.328  0.00  0.00    +0.019 A 
BRANCH  21  27
ATOM      8  N   UNL     1     -14.007   4.980  32.364  0.00  0.00    -0.191 NA
ATOM     27  C   UNL     1     -14.302   3.926  31.976  0.00  0.00    +0.099 C 
ENDBRANCH  21  27
ENDBRANCH  14  15
ENDBRANCH   6  14
ENDBRANCH   9   6
BRANCH  11  13
ATOM     13  C   UNL     1     -14.925   3.622  24.230  0.00  0.00    +0.140 C 
BRANCH  13   7
ATOM      7  N   UNL     1     -14.888   5.088  24.062  0.00  0.00    -0.187 NA
ATOM     30  H   UNL     1     -14.872   5.636  24.930  0.00  0.00    +0.148 HD
BRANCH   7   1
ATOM      1  S   UNL     1     -15.545   5.802  22.665  0.00  0.00    +0.058 S 
ATOM      4  O   UNL     1     -16.490   6.833  23.050  0.00  0.00    -0.153 OA
ATOM      5  O   UNL     1     -15.945   4.756  21.744  0.00  0.00    -0.153 OA
BRANCH   1  16
ATOM     16  C   UNL     1     -14.129   6.594  21.962  0.00  0.00    +0.105 A 
ATOM     19  C   UNL     1     -14.121   7.977  21.784  0.00  0.00    +0.028 A 
ATOM     20  C   UNL     1     -13.022   5.834  21.585  0.00  0.00    +0.028 A 
ATOM     24  C   UNL     1     -13.004   8.601  21.228  0.00  0.00    +0.002 A 
ATOM     25  C   UNL     1     -11.906   6.459  21.028  0.00  0.00    +0.002 A 
ATOM     26  C   UNL     1     -11.897   7.842  20.850  0.00  0.00    +0.000 A 
ENDBRANCH   1  16
ENDBRANCH   7   1
ENDBRANCH  13   7
ENDBRANCH  11  13
TORSDOF 9
ENDMDL
MODEL 8
REMARK VINA RESULT:      -6.5     27.332     29.786
REMARK  Name = 75536692
REMARK  9 active torsions:
REMARK  status: ('A' for Active; 'I' for Inactive)
REMARK    1  A    between atoms: S_1  and  N_7
REMARK    2  A    between atoms: S_1  and  C_16
REMARK    3  A    between atoms: O_3  and  C_10
REMARK    4  A    between atoms: N_6  and  C_9
REMARK    5  A    between atoms: N_6  and  C_14
REMARK    6  A    between atoms: N_7  and  C_13
REMARK    7  A    between atoms: C_11  and  C_13
REMARK    8  A    between atoms: C_14  and  C_15
REMARK    9  A    between atoms: C_21  and  C_27
REMARK                            x       y       z     vdW  Elec       q    Type
REMARK                         _______ _______ _______ _____ _____    ______ ____
ROOT
ATOM      2  O   UNL     1     -12.213  -8.977  15.607  0.00  0.00    -0.371 OA
ATOM      9  C   UNL     1     -10.633  -8.098  17.147  0.00  0.00    +0.111 C 
ATOM     10  C   UNL     1     -10.804  -7.119  16.000  0.00  0.00    +0.164 C 
ATOM     11  C   UNL     1     -12.155  -7.550  15.445  0.00  0.00    +0.164 C 
ATOM     12  C   UNL     1     -11.193  -9.374  16.539  0.00  0.00    +0.181 C 
ENDROOT
BRANCH  10   3
ATOM      3  O   UNL     1     -10.816  -5.771  16.430  0.00  0.00    -0.388 OA
ATOM     29  H   UNL     1     -11.523  -5.304  15.953  0.00  0.00    +0.210 HD
ENDBRANCH  10   3
BRANCH   9   6
ATOM      6  N   UNL     1      -9.257  -8.240  17.594  0.00  0.00    -0.305 NA
ATOM     28  H   UNL     1      -9.249  -8.713  18.499  0.00  0.00    +0.123 HD
BRANCH   6  14
ATOM     14  C   UNL     1      -8.475  -9.022  16.645  0.00  0.00    +0.116 C 
BRANCH  14  15
ATOM     15  C   UNL     1      -7.291  -9.681  17.303  0.00  0.00    -0.032 A 
ATOM     17  C   UNL     1      -6.085  -9.801  16.613  0.00  0.00    +0.023 A 
ATOM     18  C   UNL     1      -7.401 -10.168  18.605  0.00  0.00    +0.005 A 
ATOM     21  C   UNL     1      -4.990 -10.411  17.224  0.00  0.00    +0.052 A 
ATOM     22  C   UNL     1      -6.305 -10.778  19.216  0.00  0.00    +0.002 A 
ATOM     23  C   UNL     1      -5.099 -10.900  18.526  0.00  0.00    +0.019 A 
BRANCH  21  27
ATOM      8  N   UNL     1      -2.750 -10.635  15.943  0.00  0.00    -0.191 NA
ATOM     27  C   UNL     1      -3.754 -10.535  16.517  0.00  0.00    +0.099 C 
ENDBRANCH  21  27
ENDBRANCH  14  15
ENDBRANCH   6  14
ENDBRANCH   9   6
BRANCH  11  13
ATOM     13  C   UNL     1     -12.344  -7.191  13.982  0.00  0.00    +0.140 C 
BRANCH  13   7
ATOM      7  N   UNL     1     -12.244  -5.728  13.814  0.00  0.00    -0.187 NA
ATOM     30  H   UNL     1     -11.862  -5.212  14.617  0.00  0.00    +0.148 HD
BRANCH   7   1
ATOM      1  S   UNL     1     -13.304  -4.916  12.760  0.00  0.00    +0.058 S 
ATOM      4  O   UNL     1     -13.537  -3.572  13.252  0.00  0.00    -0.153 OA
ATOM      5  O   UNL     1     -14.424  -5.785  12.456  0.00  0.00    -0.153 OA
BRANCH   1  16
ATOM     16  C   UNL     1     -12.330  -4.798  11.288  0.00  0.00    +0.105 A 
ATOM     19  C   UNL     1     -11.944  -5.955  10.612  0.00  0.00    +0.028 A 
ATOM     20  C   UNL     1     -11.947  -3.546  10.806  0.00  0.00    +0.028 A 
ATOM     24  C   UNL     1     -11.174  -5.860   9.452  0.00  0.00    +0.002 A 
ATOM     25  C   UNL     1     -11.177  -3.451   9.647  0.00  0.00    +0.002 A 
ATOM     26  C   UNL     1     -10.791  -4.608   8.970  0.00  0.00    +0.000 A 
ENDBRANCH   1  16
ENDBRANCH   7   1
ENDBRANCH  13   7
ENDBRANCH  11  13
TORSDOF 9
ENDMDL
MODEL 9
REMARK VINA RESULT:      -6.4      4.669      7.203
REMARK  Name = 75536692
REMARK  9 active torsions:
REMARK  status: ('A' for Active; 'I' for Inactive)
REMARK    1  A    between atoms: S_1  and  N_7
REMARK    2  A    between atoms: S_1  and  C_16
REMARK    3  A    between atoms: O_3  and  C_10
REMARK    4  A    between atoms: N_6  and  C_9
REMARK    5  A    between atoms: N_6  and  C_14
REMARK    6  A    between atoms: N_7  and  C_13
REMARK    7  A    between atoms: C_11  and  C_13
REMARK    8  A    between atoms: C_14  and  C_15
REMARK    9  A    between atoms: C_21  and  C_27
REMARK                            x       y       z     vdW  Elec       q    Type
REMARK                         _______ _______ _______ _____ _____    ______ ____
ROOT
ATOM      2  O   UNL     1      19.351   7.785  21.632  0.00  0.00    -0.371 OA
ATOM      9  C   UNL     1      20.048   6.026  20.196  0.00  0.00    +0.111 C 
ATOM     10  C   UNL     1      18.531   6.044  20.258  0.00  0.00    +0.164 C 
ATOM     11  C   UNL     1      18.274   7.467  20.736  0.00  0.00    +0.164 C 
ATOM     12  C   UNL     1      20.409   6.831  21.434  0.00  0.00    +0.181 C 
ENDROOT
BRANCH  10   3
ATOM      3  O   UNL     1      17.931   5.793  19.002  0.00  0.00    -0.388 OA
ATOM     29  H   UNL     1      18.618   5.477  18.392  0.00  0.00    +0.210 HD
ENDBRANCH  10   3
BRANCH   9   6
ATOM      6  N   UNL     1      20.617   4.688  20.205  0.00  0.00    -0.305 NA
ATOM     28  H   UNL     1      21.140   4.544  19.341  0.00  0.00    +0.123 HD
BRANCH   6  14
ATOM     14  C   UNL     1      21.516   4.508  21.338  0.00  0.00    +0.116 C 
BRANCH  14  15
ATOM     15  C   UNL     1      22.818   3.873  20.924  0.00  0.00    -0.032 A 
ATOM     17  C   UNL     1      23.791   4.633  20.275  0.00  0.00    +0.023 A 
ATOM     18  C   UNL     1      23.051   2.524  21.192  0.00  0.00    +0.005 A 
ATOM     21  C   UNL     1      24.996   4.044  19.893  0.00  0.00    +0.052 A 
ATOM     22  C   UNL     1      24.257   1.936  20.810  0.00  0.00    +0.002 A 
ATOM     23  C   UNL     1      25.230   2.695  20.161  0.00  0.00    +0.019 A 
BRANCH  21  27
ATOM      8  N   UNL     1      26.802   5.455  18.687  0.00  0.00    -0.191 NA
ATOM     27  C   UNL     1      25.993   4.823  19.228  0.00  0.00    +0.099 C 
ENDBRANCH  21  27
ENDBRANCH  14  15
ENDBRANCH   6  14
ENDBRANCH   9   6
BRANCH  11  13
ATOM     13  C   UNL     1      16.946   7.628  21.452  0.00  0.00    +0.140 C 
BRANCH  13   7
ATOM      7  N   UNL     1      15.874   6.997  20.657  0.00  0.00    -0.187 NA
ATOM     30  H   UNL     1      15.950   5.980  20.534  0.00  0.00    +0.148 HD
BRANCH   7   1
ATOM      1  S   UNL     1      15.049   7.898  19.473  0.00  0.00    +0.058 S 
ATOM      4  O   UNL     1      15.091   7.185  18.210  0.00  0.00    -0.153 OA
ATOM      5  O   UNL     1      15.483   9.279  19.543  0.00  0.00    -0.153 OA
BRANCH   1  16
ATOM     16  C   UNL     1      13.387   7.848  20.072  0.00  0.00    +0.105 A 
ATOM     19  C   UNL     1      12.437   8.737  19.571  0.00  0.00    +0.028 A 
ATOM     20  C   UNL     1      13.026   6.920  21.050  0.00  0.00    +0.028 A 
ATOM     24  C   UNL     1      11.126   8.698  20.046  0.00  0.00    +0.002 A 
ATOM     25  C   UNL     1      11.716   6.882  21.525  0.00  0.00    +0.002 A 
ATOM     26  C   UNL     1      10.766   7.771  21.023  0.00  0.00    +0.000 A 
ENDBRANCH   1  16
ENDBRANCH   7   1
ENDBRANCH  13   7
ENDBRANCH  11  13
TORSDOF 9
ENDMDL
MODEL 10
REMARK VINA RESULT:      -6.4     16.280     19.542
REMARK  Name = 75536692
REMARK  9 active torsions:
REMARK  status: ('A' for Active; 'I' for Inactive)
REMARK    1  A    between atoms: S_1  and  N_7
REMARK    2  A    between atoms: S_1  and  C_16
REMARK    3  A    between atoms: O_3  and  C_10
REMARK    4  A    between atoms: N_6  and  C_9
REMARK    5  A    between atoms: N_6  and  C_14
REMARK    6  A    between atoms: N_7  and  C_13
REMARK    7  A    between atoms: C_11  and  C_13
REMARK    8  A    between atoms: C_14  and  C_15
REMARK    9  A    between atoms: C_21  and  C_27
REMARK                            x       y       z     vdW  Elec       q    Type
REMARK                         _______ _______ _______ _____ _____    ______ ____
ROOT
ATOM      2  O   UNL     1      12.922   7.844   1.754  0.00  0.00    -0.371 OA
ATOM      9  C   UNL     1      13.211   7.492   4.086  0.00  0.00    +0.111 C 
ATOM     10  C   UNL     1      14.354   6.829   3.339  0.00  0.00    +0.164 C 
ATOM     11  C   UNL     1      14.310   7.576   2.013  0.00  0.00    +0.164 C 
ATOM     12  C   UNL     1      12.185   7.662   2.976  0.00  0.00    +0.181 C 
ENDROOT
BRANCH  10   3
ATOM      3  O   UNL     1      15.598   6.990   3.993  0.00  0.00    -0.388 OA
ATOM     29  H   UNL     1      16.138   7.611   3.476  0.00  0.00    +0.210 HD
ENDBRANCH  10   3
BRANCH   9   6
ATOM      6  N   UNL     1      12.711   6.709   5.203  0.00  0.00    -0.305 NA
ATOM     28  H   UNL     1      12.706   7.291   6.041  0.00  0.00    +0.123 HD
BRANCH   6  14
ATOM     14  C   UNL     1      11.356   6.235   4.949  0.00  0.00    +0.116 C 
BRANCH  14  15
ATOM     15  C   UNL     1      10.446   6.481   6.124  0.00  0.00    -0.032 A 
ATOM     17  C   UNL     1      10.582   5.717   7.283  0.00  0.00    +0.023 A 
ATOM     18  C   UNL     1       9.470   7.474   6.053  0.00  0.00    +0.005 A 
ATOM     21  C   UNL     1       9.740   5.946   8.371  0.00  0.00    +0.052 A 
ATOM     22  C   UNL     1       8.628   7.703   7.141  0.00  0.00    +0.002 A 
ATOM     23  C   UNL     1       8.762   6.939   8.301  0.00  0.00    +0.019 A 
BRANCH  21  27
ATOM      8  N   UNL     1       9.991   4.529  10.524  0.00  0.00    -0.191 NA
ATOM     27  C   UNL     1       9.878   5.165   9.560  0.00  0.00    +0.099 C 
ENDBRANCH  21  27
ENDBRANCH  14  15
ENDBRANCH   6  14
ENDBRANCH   9   6
BRANCH  11  13
ATOM     13  C   UNL     1      14.903   6.786   0.860  0.00  0.00    +0.140 C 
BRANCH  13   7
ATOM      7  N   UNL     1      15.459   5.515   1.365  0.00  0.00    -0.187 NA
ATOM     30  H   UNL     1      16.425   5.557   1.710  0.00  0.00    +0.148 HD
BRANCH   7   1
ATOM      1  S   UNL     1      14.876   4.033   0.767  0.00  0.00    +0.058 S 
ATOM      4  O   UNL     1      15.181   2.978   1.715  0.00  0.00    -0.153 OA
ATOM      5  O   UNL     1      15.267   3.898  -0.623  0.00  0.00    -0.153 OA
BRANCH   1  16
ATOM     16  C   UNL     1      13.127   4.296   0.788  0.00  0.00    +0.105 A 
ATOM     19  C   UNL     1      12.479   4.768  -0.353  0.00  0.00    +0.028 A 
ATOM     20  C   UNL     1      12.397   4.034   1.947  0.00  0.00    +0.028 A 
ATOM     24  C   UNL     1      11.100   4.978  -0.335  0.00  0.00    +0.002 A 
ATOM     25  C   UNL     1      11.019   4.244   1.965  0.00  0.00    +0.002 A 
ATOM     26  C   UNL     1      10.370   4.715   0.824  0.00  0.00    +0.000 A 
ENDBRANCH   1  16
ENDBRANCH   7   1
ENDBRANCH  13   7
ENDBRANCH  11  13
TORSDOF 9
ENDMDL
