REMARK  Name = 45361538
REMARK  11 active torsions:
REMARK  status: ('A' for Active; 'I' for Inactive)
REMARK    1  A    between atoms: O_1  and  C_13
REMARK    2  A    between atoms: N_5  and  C_17
REMARK    3  A    between atoms: N_6  and  C_27
REMARK    4  A    between atoms: N_8  and  C_28
REMARK    5  A    between atoms: C_10  and  C_20
REMARK    6  A    between atoms: C_12  and  C_22
REMARK    7  A    between atoms: C_16  and  C_21
REMARK    8  A    between atoms: C_21  and  C_23
REMARK    9  A    between atoms: C_21  and  C_24
REMARK   10  A    between atoms: C_25  and  C_26
REMARK   11  A    between atoms: C_27  and  C_28
REMARK                            x       y       z     vdW  Elec       q    Type
REMARK                         _______ _______ _______ _____ _____    ______ ____
ROOT
ATOM     10  C   UNL     1       0.834  -0.337  -1.639  0.00  0.00    -0.027 C 
ATOM     11  C   UNL     1       1.003  -0.452  -0.087  0.00  0.00    +0.028 C 
ATOM     12  C   UNL     1       2.514  -0.644   0.297  0.00  0.00    +0.012 C 
ATOM     13  C   UNL     1       0.022  -1.501   0.511  0.00  0.00    +0.122 C 
ATOM     14  C   UNL     1      -0.645  -0.036  -1.976  0.00  0.00    +0.007 C 
ATOM     15  C   UNL     1       1.684   0.848  -2.153  0.00  0.00    +0.009 C 
ATOM     16  C   UNL     1      -1.444  -1.255   0.085  0.00  0.00    +0.029 C 
ATOM     17  C   UNL     1       3.371   0.514  -0.288  0.00  0.00    +0.076 C 
ATOM     18  C   UNL     1      -1.605  -1.082  -1.425  0.00  0.00    +0.007 C 
ATOM     19  C   UNL     1       3.157   0.730  -1.786  0.00  0.00    +0.023 C 
ATOM     20  C   UNL     1       1.260  -1.630  -2.380  0.00  0.00    +0.011 C 
ATOM     22  C   UNL     1       2.757  -0.736   1.813  0.00  0.00    +0.010 C 
ENDROOT
BRANCH  17   5
ATOM      3  O   UNL     1       5.354   2.548   0.130  0.00  0.00    -0.268 OA
ATOM      5  N   UNL     1       4.784   0.308  -0.052  0.00  0.00    -0.307 N 
ATOM     25  C   UNL     1       5.664   1.359   0.139  0.00  0.00    +0.264 C 
ATOM     36  H   UNL     1       5.146  -0.641  -0.086  0.00  0.00    +0.149 HD
BRANCH  25  26
ATOM      7  N   UNL     1       7.370  -0.335   0.324  0.00  0.00    -0.247 NA
ATOM      9  N   UNL     1       9.353   1.606   0.733  0.00  0.00    -0.259 NA
ATOM     26  C   UNL     1       7.086   0.982   0.343  0.00  0.00    +0.143 A 
ATOM     29  C   UNL     1       8.060   1.936   0.544  0.00  0.00    +0.143 A 
ATOM     32  C   UNL     1       8.663  -0.665   0.513  0.00  0.00    +0.131 A 
ATOM     35  C   UNL     1       9.637   0.288   0.714  0.00  0.00    +0.130 A 
ENDBRANCH  25  26
ENDBRANCH  17   5
BRANCH  13   1
ATOM      1  O   UNL     1       0.052  -1.423   1.937  0.00  0.00    -0.391 OA
ATOM     37  H   UNL     1      -0.217  -0.525   2.196  0.00  0.00    +0.210 HD
ENDBRANCH  13   1
BRANCH  16  21
ATOM     21  C   UNL     1      -2.374  -2.371   0.576  0.00  0.00    +0.077 C 
ATOM     23  C   UNL     1      -1.926  -3.714   0.009  0.00  0.00    +0.017 C 
BRANCH  21  24
ATOM      2  O   UNL     1      -4.319  -2.444  -0.866  0.00  0.00    -0.276 OA
ATOM      6  N   UNL     1      -4.470  -1.294   1.143  0.00  0.00    -0.314 N 
ATOM     24  C   UNL     1      -3.815  -2.056   0.186  0.00  0.00    +0.216 C 
ATOM     38  H   UNL     1      -3.969  -0.999   1.976  0.00  0.00    +0.149 HD
BRANCH   6  27
ATOM     27  C   UNL     1      -5.842  -0.868   0.997  0.00  0.00    +0.119 C 
BRANCH  27  28
ATOM     28  C   UNL     1      -5.930   0.479   0.296  0.00  0.00    +0.103 C 
BRANCH  28   8
ATOM      4  O   UNL     1      -9.399   2.841   0.288  0.00  0.00    -0.377 OA
ATOM      8  N   UNL     1      -7.325   0.895   0.168  0.00  0.00    -0.297 NA
ATOM     30  C   UNL     1      -7.841   1.391   1.452  0.00  0.00    +0.112 C 
ATOM     31  C   UNL     1      -7.468   1.930  -0.865  0.00  0.00    +0.112 C 
ATOM     33  C   UNL     1      -9.294   1.829   1.291  0.00  0.00    +0.175 C 
ATOM     34  C   UNL     1      -8.930   2.357  -0.971  0.00  0.00    +0.175 C 
ENDBRANCH  28   8
ENDBRANCH  27  28
ENDBRANCH   6  27
ENDBRANCH  21  24
ENDBRANCH  16  21
TORSDOF 8
