REMARK  Name = 56774615
REMARK  7 active torsions:
REMARK  status: ('A' for Active; 'I' for Inactive)
REMARK    1  A    between atoms: O_2  and  C_10
REMARK    2  A    between atoms: N_7  and  C_12
REMARK    3  A    between atoms: N_8  and  C_21
REMARK    4  A    between atoms: C_9  and  C_10
REMARK    5  A    between atoms: C_10  and  C_14
REMARK    6  A    between atoms: C_12  and  C_16
REMARK    7  A    between atoms: C_27  and  C_28
REMARK                            x       y       z     vdW  Elec       q    Type
REMARK                         _______ _______ _______ _____ _____    ______ ____
ROOT
ATOM     14  C   UNL     1      -0.885   0.814  -0.827  0.00  0.00    -0.017 A 
ATOM     17  C   UNL     1       0.001   1.888  -0.733  0.00  0.00    +0.008 A 
ATOM     18  C   UNL     1      -0.410  -0.493  -0.725  0.00  0.00    +0.008 A 
ATOM     19  C   UNL     1       1.362   1.653  -0.536  0.00  0.00    +0.023 A 
ATOM     20  C   UNL     1       0.951  -0.728  -0.529  0.00  0.00    +0.023 A 
ATOM     21  C   UNL     1       1.837   0.346  -0.434  0.00  0.00    +0.034 A 
ENDROOT
BRANCH  21   8
ATOM      6  O   UNL     1       4.116   2.275  -0.169  0.00  0.00    -0.270 OA
ATOM      8  N   UNL     1       3.198   0.111  -0.238  0.00  0.00    -0.282 N 
ATOM     27  C   UNL     1       4.228   1.054  -0.120  0.00  0.00    +0.248 C 
ATOM     36  H   UNL     1       3.432  -0.872  -0.132  0.00  0.00    +0.155 HD
BRANCH  27  28
ATOM      4  O   UNL     1       7.634  -2.495  -0.465  0.00  0.00    -0.453 OA
ATOM      5  O   UNL     1       9.287  -1.180   0.695  0.00  0.00    -0.453 OA
ATOM     28  C   UNL     1       5.583   0.492   0.114  0.00  0.00    +0.041 A 
ATOM     29  C   UNL     1       5.888  -0.794  -0.340  0.00  0.00    +0.062 A 
ATOM     30  C   UNL     1       7.159  -1.273  -0.100  0.00  0.00    +0.167 A 
ATOM     31  C   UNL     1       8.103  -0.522   0.563  0.00  0.00    +0.166 A 
ATOM     32  C   UNL     1       6.548   1.259   0.791  0.00  0.00    +0.017 A 
ATOM     33  C   UNL     1       7.828   0.750   1.022  0.00  0.00    +0.050 A 
ATOM     34  C   UNL     1       8.983  -2.429   0.042  0.00  0.00    +0.466 C 
ENDBRANCH  27  28
ENDBRANCH  21   8
BRANCH  14  10
ATOM     10  C   UNL     1      -2.356   1.067  -1.039  0.00  0.00    +0.167 C 
BRANCH  10   9
ATOM      1  O   UNL     1      -3.128   2.441   1.436  0.00  0.00    -0.369 OA
ATOM      3  O   UNL     1      -6.427   2.173  -0.007  0.00  0.00    -0.273 OA
ATOM      7  N   UNL     1      -4.633   0.700  -0.164  0.00  0.00    -0.287 N 
ATOM      9  C   UNL     1      -3.205   0.470   0.087  0.00  0.00    +0.135 C 
ATOM     11  C   UNL     1      -2.812   1.054   1.439  0.00  0.00    +0.185 C 
ATOM     13  C   UNL     1      -5.285   1.836   0.310  0.00  0.00    +0.242 C 
ATOM     15  C   UNL     1      -4.521   2.643   1.354  0.00  0.00    +0.255 C 
BRANCH   7  12
ATOM     12  C   UNL     1      -5.309  -0.208  -1.081  0.00  0.00    +0.143 C 
BRANCH  12  16
ATOM     16  C   UNL     1      -6.097  -1.259  -0.353  0.00  0.00    -0.030 A 
ATOM     22  C   UNL     1      -5.495  -2.470  -0.013  0.00  0.00    +0.005 A 
ATOM     23  C   UNL     1      -7.430  -1.023  -0.018  0.00  0.00    +0.005 A 
ATOM     24  C   UNL     1      -6.227  -3.447   0.663  0.00  0.00    +0.000 A 
ATOM     25  C   UNL     1      -8.162  -1.999   0.658  0.00  0.00    +0.000 A 
ATOM     26  C   UNL     1      -7.561  -3.211   0.999  0.00  0.00    +0.000 A 
ENDBRANCH  12  16
ENDBRANCH   7  12
ENDBRANCH  10   9
BRANCH  10   2
ATOM      2  O   UNL     1      -2.761   0.505  -2.283  0.00  0.00    -0.385 OA
ATOM     35  H   UNL     1      -2.454  -0.416  -2.333  0.00  0.00    +0.210 HD
ENDBRANCH  10   2
ENDBRANCH  14  10
TORSDOF 7
