REMARK  Name = 40777102
REMARK  8 active torsions:
REMARK  status: ('A' for Active; 'I' for Inactive)
REMARK    1  A    between atoms: O_3  and  C_22
REMARK    2  A    between atoms: O_3  and  C_29
REMARK    3  A    between atoms: N_5  and  C_15
REMARK    4  A    between atoms: C_9  and  C_16
REMARK    5  A    between atoms: C_10  and  C_15
REMARK    6  A    between atoms: C_18  and  C_21
REMARK    7  A    between atoms: C_19  and  C_22
REMARK    8  A    between atoms: C_20  and  C_23
REMARK                            x       y       z     vdW  Elec       q    Type
REMARK                         _______ _______ _______ _____ _____    ______ ____
ROOT
ATOM      4  N   UNL     1       0.047   2.876  -0.862  0.00  0.00    -0.297 NA
ATOM      8  C   UNL     1       0.428   2.162   1.614  0.00  0.00    +0.002 C 
ATOM      9  C   UNL     1       1.742   2.016   0.797  0.00  0.00    +0.055 C 
ATOM     10  C   UNL     1      -1.007   1.916  -0.442  0.00  0.00    +0.074 C 
ATOM     11  C   UNL     1      -0.683   1.324   0.946  0.00  0.00    +0.024 C 
ATOM     12  C   UNL     1       0.003   3.643   1.511  0.00  0.00    +0.019 C 
ATOM     13  C   UNL     1       1.389   2.263  -0.697  0.00  0.00    +0.094 C 
ATOM     14  C   UNL     1      -0.034   4.058   0.030  0.00  0.00    +0.085 C 
ENDROOT
BRANCH   9  16
ATOM      6  N   UNL     1       2.095  -0.157   1.864  0.00  0.00    -0.237 NA
ATOM      7  N   UNL     1       4.023  -1.522   1.389  0.00  0.00    -0.232 NA
ATOM     16  C   UNL     1       2.574   0.756   0.993  0.00  0.00    +0.050 A 
ATOM     17  C   UNL     1       3.753   0.604   0.293  0.00  0.00    +0.052 A 
ATOM     18  C   UNL     1       4.442  -0.567   0.533  0.00  0.00    +0.076 A 
ATOM     20  C   UNL     1       2.859  -1.256   2.011  0.00  0.00    +0.127 A 
ATOM     23  C   UNL     1       2.364  -2.288   2.967  0.00  0.00    +0.088 C 
BRANCH  18  21
ATOM      1 BR   UNL     1       4.176  -2.122  -2.249  0.00  0.00    -0.050 Br
ATOM     21  C   UNL     1       5.691  -0.847  -0.135  0.00  0.00    +0.014 A 
ATOM     24  C   UNL     1       5.742  -1.518  -1.357  0.00  0.00    +0.027 A 
ATOM     25  C   UNL     1       6.870  -0.425   0.478  0.00  0.00    +0.011 A 
ATOM     26  C   UNL     1       6.972  -1.766  -1.966  0.00  0.00    +0.016 A 
ATOM     27  C   UNL     1       8.101  -0.673  -0.131  0.00  0.00    +0.001 A 
ATOM     28  C   UNL     1       8.151  -1.344  -1.353  0.00  0.00    +0.001 A 
ENDBRANCH  18  21
ENDBRANCH   9  16
BRANCH  10  15
ATOM     15  C   UNL     1      -1.248   0.823  -1.486  0.00  0.00    +0.123 C 
BRANCH  15   5
ATOM      2  O   UNL     1      -4.040   1.195  -2.145  0.00  0.00    -0.272 OA
ATOM      5  N   UNL     1      -2.344  -0.014  -1.105  0.00  0.00    -0.311 N 
ATOM     19  C   UNL     1      -3.666   0.241  -1.468  0.00  0.00    +0.251 C 
ATOM     35  H   UNL     1      -2.142  -0.832  -0.538  0.00  0.00    +0.149 HD
BRANCH  19  22
ATOM     22  C   UNL     1      -4.618  -0.805  -0.930  0.00  0.00    +0.324 C 
BRANCH  22   3
ATOM      3  O   UNL     1      -5.944  -0.524  -1.327  0.00  0.00    -0.483 OA
BRANCH   3  29
ATOM     29  C   UNL     1      -6.951  -0.930  -0.484  0.00  0.00    +0.121 A 
ATOM     30  C   UNL     1      -6.778  -2.059   0.316  0.00  0.00    +0.045 A 
ATOM     31  C   UNL     1      -8.146  -0.212  -0.429  0.00  0.00    +0.045 A 
ATOM     32  C   UNL     1      -7.800  -2.471   1.171  0.00  0.00    +0.004 A 
ATOM     33  C   UNL     1      -9.168  -0.624   0.426  0.00  0.00    +0.004 A 
ATOM     34  C   UNL     1      -8.995  -1.753   1.226  0.00  0.00    +0.000 A 
ENDBRANCH   3  29
ENDBRANCH  22   3
ENDBRANCH  19  22
ENDBRANCH  15   5
ENDBRANCH  10  15
TORSDOF 7
