MODEL 1
REMARK VINA RESULT:      -7.4      0.000      0.000
REMARK  Name = 25338308
REMARK  6 active torsions:
REMARK  status: ('A' for Active; 'I' for Inactive)
REMARK    1  A    between atoms: S_1  and  N_6
REMARK    2  A    between atoms: S_1  and  C_17
REMARK    3  A    between atoms: N_5  and  C_16
REMARK    4  A    between atoms: N_6  and  C_11
REMARK    5  A    between atoms: C_12  and  C_15
REMARK    6  A    between atoms: C_18  and  C_21
REMARK                            x       y       z     vdW  Elec       q    Type
REMARK                         _______ _______ _______ _____ _____    ______ ____
ROOT
ATOM      5  N   UNL     1      11.433   7.134  21.749  0.00  0.00    -0.293 NA
ATOM     11  C   UNL     1      10.846   9.373  22.037  0.00  0.00    +0.092 C 
ATOM     12  C   UNL     1      11.715   7.747  20.437  0.00  0.00    +0.147 C 
ATOM     13  C   UNL     1      11.513   9.258  20.668  0.00  0.00    +0.050 C 
ATOM     14  C   UNL     1      10.388   7.960  22.362  0.00  0.00    +0.105 C 
ATOM     16  C   UNL     1      11.034   5.735  21.656  0.00  0.00    +0.105 C 
ENDROOT
BRANCH  12  15
ATOM      2  O   UNL     1      13.254   7.521  18.553  0.00  0.00    -0.336 OA
ATOM      7  N   UNL     1      14.168   7.048  20.543  0.00  0.00    -0.189 NA
ATOM      8  N   UNL     1      14.586   7.175  18.297  0.00  0.00    -0.054 NA
ATOM     15  C   UNL     1      13.091   7.421  19.899  0.00  0.00    +0.245 A 
ATOM     18  C   UNL     1      15.059   6.910  19.519  0.00  0.00    +0.222 A 
BRANCH  18  21
ATOM      9  N   UNL     1      16.970   5.692  18.830  0.00  0.00    -0.249 NA
ATOM     10  N   UNL     1      18.385   6.556  21.093  0.00  0.00    -0.260 NA
ATOM     21  C   UNL     1      16.416   6.505  19.751  0.00  0.00    +0.129 A 
ATOM     25  C   UNL     1      17.110   6.929  20.862  0.00  0.00    +0.142 A 
ATOM     26  C   UNL     1      18.245   5.319  19.060  0.00  0.00    +0.131 A 
ATOM     27  C   UNL     1      18.939   5.744  20.171  0.00  0.00    +0.130 A 
ENDBRANCH  18  21
ENDBRANCH  12  15
BRANCH  11   6
ATOM      6  N   UNL     1      11.836   9.830  23.044  0.00  0.00    -0.186 NA
ATOM     28  H   UNL     1      12.444   9.118  23.467  0.00  0.00    +0.148 HD
BRANCH   6   1
ATOM      1  S   UNL     1      11.672  11.363  23.752  0.00  0.00    +0.059 S 
ATOM      3  O   UNL     1      12.807  11.620  24.618  0.00  0.00    -0.153 OA
ATOM      4  O   UNL     1      10.320  11.498  24.260  0.00  0.00    -0.153 OA
BRANCH   1  17
ATOM     17  C   UNL     1      11.805  12.431  22.349  0.00  0.00    +0.105 A 
ATOM     19  C   UNL     1      10.744  13.269  22.008  0.00  0.00    +0.028 A 
ATOM     20  C   UNL     1      12.971  12.433  21.583  0.00  0.00    +0.028 A 
ATOM     22  C   UNL     1      10.848  14.110  20.900  0.00  0.00    +0.002 A 
ATOM     23  C   UNL     1      13.075  13.274  20.476  0.00  0.00    +0.002 A 
ATOM     24  C   UNL     1      12.014  14.114  20.135  0.00  0.00    +0.000 A 
ENDBRANCH   1  17
ENDBRANCH   6   1
ENDBRANCH  11   6
TORSDOF 5
ENDMDL
MODEL 2
REMARK VINA RESULT:      -7.0      1.806      2.333
REMARK  Name = 25338308
REMARK  6 active torsions:
REMARK  status: ('A' for Active; 'I' for Inactive)
REMARK    1  A    between atoms: S_1  and  N_6
REMARK    2  A    between atoms: S_1  and  C_17
REMARK    3  A    between atoms: N_5  and  C_16
REMARK    4  A    between atoms: N_6  and  C_11
REMARK    5  A    between atoms: C_12  and  C_15
REMARK    6  A    between atoms: C_18  and  C_21
REMARK                            x       y       z     vdW  Elec       q    Type
REMARK                         _______ _______ _______ _____ _____    ______ ____
ROOT
ATOM      5  N   UNL     1      11.407   7.082  21.772  0.00  0.00    -0.293 NA
ATOM     11  C   UNL     1      10.750   9.281  22.186  0.00  0.00    +0.092 C 
ATOM     12  C   UNL     1      11.719   7.789  20.516  0.00  0.00    +0.147 C 
ATOM     13  C   UNL     1      11.469   9.275  20.839  0.00  0.00    +0.050 C 
ATOM     14  C   UNL     1      10.318   7.839  22.399  0.00  0.00    +0.105 C 
ATOM     16  C   UNL     1      11.050   5.683  21.572  0.00  0.00    +0.105 C 
ENDROOT
BRANCH  12  15
ATOM      2  O   UNL     1      13.314   7.656  18.669  0.00  0.00    -0.336 OA
ATOM      7  N   UNL     1      14.199   7.204  20.677  0.00  0.00    -0.189 NA
ATOM      8  N   UNL     1      14.667   7.375  18.444  0.00  0.00    -0.054 NA
ATOM     15  C   UNL     1      13.122   7.533  20.009  0.00  0.00    +0.245 A 
ATOM     18  C   UNL     1      15.121   7.119  19.674  0.00  0.00    +0.222 A 
BRANCH  18  21
ATOM      9  N   UNL     1      17.061   5.887  19.100  0.00  0.00    -0.249 NA
ATOM     10  N   UNL     1      18.463   7.017  21.251  0.00  0.00    -0.260 NA
ATOM     21  C   UNL     1      16.489   6.776  19.937  0.00  0.00    +0.129 A 
ATOM     25  C   UNL     1      17.178   7.330  20.993  0.00  0.00    +0.142 A 
ATOM     26  C   UNL     1      18.346   5.573  19.358  0.00  0.00    +0.131 A 
ATOM     27  C   UNL     1      19.034   6.128  20.414  0.00  0.00    +0.130 A 
ENDBRANCH  18  21
ENDBRANCH  12  15
BRANCH  11   6
ATOM      6  N   UNL     1      11.691   9.693  23.257  0.00  0.00    -0.186 NA
ATOM     28  H   UNL     1      12.271   8.962  23.686  0.00  0.00    +0.148 HD
BRANCH   6   1
ATOM      1  S   UNL     1      11.501  11.203  24.011  0.00  0.00    +0.059 S 
ATOM      3  O   UNL     1      10.889  11.020  25.313  0.00  0.00    -0.153 OA
ATOM      4  O   UNL     1      10.925  12.130  23.056  0.00  0.00    -0.153 OA
BRANCH   1  17
ATOM     17  C   UNL     1      13.180  11.698  24.263  0.00  0.00    +0.105 A 
ATOM     19  C   UNL     1      14.126  11.491  23.259  0.00  0.00    +0.028 A 
ATOM     20  C   UNL     1      13.558  12.296  25.465  0.00  0.00    +0.028 A 
ATOM     22  C   UNL     1      15.450  11.881  23.458  0.00  0.00    +0.002 A 
ATOM     23  C   UNL     1      14.882  12.685  25.664  0.00  0.00    +0.002 A 
ATOM     24  C   UNL     1      15.828  12.479  24.660  0.00  0.00    +0.000 A 
ENDBRANCH   1  17
ENDBRANCH   6   1
ENDBRANCH  11   6
TORSDOF 5
ENDMDL
MODEL 3
REMARK VINA RESULT:      -6.6      3.504      5.184
REMARK  Name = 25338308
REMARK  6 active torsions:
REMARK  status: ('A' for Active; 'I' for Inactive)
REMARK    1  A    between atoms: S_1  and  N_6
REMARK    2  A    between atoms: S_1  and  C_17
REMARK    3  A    between atoms: N_5  and  C_16
REMARK    4  A    between atoms: N_6  and  C_11
REMARK    5  A    between atoms: C_12  and  C_15
REMARK    6  A    between atoms: C_18  and  C_21
REMARK                            x       y       z     vdW  Elec       q    Type
REMARK                         _______ _______ _______ _____ _____    ______ ____
ROOT
ATOM      5  N   UNL     1      14.921   7.400  19.912  0.00  0.00    -0.293 NA
ATOM     11  C   UNL     1      13.062   7.569  21.311  0.00  0.00    +0.092 C 
ATOM     12  C   UNL     1      13.774   7.209  19.005  0.00  0.00    +0.147 C 
ATOM     13  C   UNL     1      12.539   7.507  19.878  0.00  0.00    +0.050 C 
ATOM     14  C   UNL     1      14.459   6.973  21.237  0.00  0.00    +0.105 C 
ATOM     16  C   UNL     1      16.113   6.673  19.493  0.00  0.00    +0.105 C 
ENDROOT
BRANCH  12  15
ATOM      2  O   UNL     1      13.669   7.440  16.574  0.00  0.00    -0.336 OA
ATOM      7  N   UNL     1      14.018   9.367  17.663  0.00  0.00    -0.189 NA
ATOM      8  N   UNL     1      13.761   8.432  15.590  0.00  0.00    -0.054 NA
ATOM     15  C   UNL     1      13.831   8.075  17.765  0.00  0.00    +0.245 A 
ATOM     18  C   UNL     1      13.966   9.539  16.310  0.00  0.00    +0.222 A 
BRANCH  18  21
ATOM      9  N   UNL     1      13.469  11.045  14.550  0.00  0.00    -0.249 NA
ATOM     10  N   UNL     1      15.062  13.023  15.741  0.00  0.00    -0.260 NA
ATOM     21  C   UNL     1      14.123  10.833  15.709  0.00  0.00    +0.129 A 
ATOM     25  C   UNL     1      14.906  11.805  16.294  0.00  0.00    +0.142 A 
ATOM     26  C   UNL     1      13.626  12.264  13.996  0.00  0.00    +0.131 A 
ATOM     27  C   UNL     1      14.408  13.235  14.581  0.00  0.00    +0.130 A 
ENDBRANCH  18  21
ENDBRANCH  12  15
BRANCH  11   6
ATOM      6  N   UNL     1      13.136   8.982  21.761  0.00  0.00    -0.186 NA
ATOM     28  H   UNL     1      13.972   9.270  22.284  0.00  0.00    +0.148 HD
BRANCH   6   1
ATOM      1  S   UNL     1      11.732   9.936  21.774  0.00  0.00    +0.059 S 
ATOM      3  O   UNL     1      10.575   9.092  22.000  0.00  0.00    -0.153 OA
ATOM      4  O   UNL     1      11.770  10.835  20.637  0.00  0.00    -0.153 OA
BRANCH   1  17
ATOM     17  C   UNL     1      11.976  10.924  23.221  0.00  0.00    +0.105 A 
ATOM     19  C   UNL     1      13.244  11.423  23.518  0.00  0.00    +0.028 A 
ATOM     20  C   UNL     1      10.901  11.203  24.064  0.00  0.00    +0.028 A 
ATOM     22  C   UNL     1      13.437  12.201  24.659  0.00  0.00    +0.002 A 
ATOM     23  C   UNL     1      11.094  11.981  25.205  0.00  0.00    +0.002 A 
ATOM     24  C   UNL     1      12.362  12.482  25.502  0.00  0.00    +0.000 A 
ENDBRANCH   1  17
ENDBRANCH   6   1
ENDBRANCH  11   6
TORSDOF 5
ENDMDL
MODEL 4
REMARK VINA RESULT:      -6.6     26.811     28.888
REMARK  Name = 25338308
REMARK  6 active torsions:
REMARK  status: ('A' for Active; 'I' for Inactive)
REMARK    1  A    between atoms: S_1  and  N_6
REMARK    2  A    between atoms: S_1  and  C_17
REMARK    3  A    between atoms: N_5  and  C_16
REMARK    4  A    between atoms: N_6  and  C_11
REMARK    5  A    between atoms: C_12  and  C_15
REMARK    6  A    between atoms: C_18  and  C_21
REMARK                            x       y       z     vdW  Elec       q    Type
REMARK                         _______ _______ _______ _____ _____    ______ ____
ROOT
ATOM      5  N   UNL     1      -5.856 -11.948  17.618  0.00  0.00    -0.293 NA
ATOM     11  C   UNL     1      -3.713 -11.283  16.981  0.00  0.00    +0.092 C 
ATOM     12  C   UNL     1      -5.962 -10.483  17.487  0.00  0.00    +0.147 C 
ATOM     13  C   UNL     1      -4.611 -10.051  16.885  0.00  0.00    +0.050 C 
ATOM     14  C   UNL     1      -4.448 -12.222  17.924  0.00  0.00    +0.105 C 
ATOM     16  C   UNL     1      -6.749 -12.502  18.628  0.00  0.00    +0.105 C 
ENDROOT
BRANCH  12  15
ATOM      2  O   UNL     1      -7.350 -10.704  15.488  0.00  0.00    -0.336 OA
ATOM      7  N   UNL     1      -8.006  -9.078  16.882  0.00  0.00    -0.189 NA
ATOM      8  N   UNL     1      -8.476 -10.117  14.898  0.00  0.00    -0.054 NA
ATOM     15  C   UNL     1      -7.141 -10.033  16.652  0.00  0.00    +0.245 A 
ATOM     18  C   UNL     1      -8.805  -9.168  15.780  0.00  0.00    +0.222 A 
BRANCH  18  21
ATOM      9  N   UNL     1     -10.064  -7.285  16.473  0.00  0.00    -0.249 NA
ATOM     10  N   UNL     1     -11.872  -7.667  14.362  0.00  0.00    -0.260 NA
ATOM     21  C   UNL     1      -9.927  -8.293  15.589  0.00  0.00    +0.129 A 
ATOM     25  C   UNL     1     -10.814  -8.480  14.553  0.00  0.00    +0.142 A 
ATOM     26  C   UNL     1     -11.122  -6.471  16.283  0.00  0.00    +0.131 A 
ATOM     27  C   UNL     1     -12.009  -6.659  15.246  0.00  0.00    +0.130 A 
ENDBRANCH  18  21
ENDBRANCH  12  15
BRANCH  11   6
ATOM      6  N   UNL     1      -3.574 -11.911  15.644  0.00  0.00    -0.186 NA
ATOM     28  H   UNL     1      -4.187 -12.706  15.428  0.00  0.00    +0.148 HD
BRANCH   6   1
ATOM      1  S   UNL     1      -2.194 -11.599  14.705  0.00  0.00    +0.059 S 
ATOM      3  O   UNL     1      -1.587 -12.854  14.306  0.00  0.00    -0.153 OA
ATOM      4  O   UNL     1      -1.402 -10.582  15.368  0.00  0.00    -0.153 OA
BRANCH   1  17
ATOM     17  C   UNL     1      -2.895 -10.851  13.265  0.00  0.00    +0.105 A 
ATOM     19  C   UNL     1      -2.081 -10.537  12.176  0.00  0.00    +0.028 A 
ATOM     20  C   UNL     1      -4.261 -10.573  13.217  0.00  0.00    +0.028 A 
ATOM     22  C   UNL     1      -2.632  -9.946  11.040  0.00  0.00    +0.002 A 
ATOM     23  C   UNL     1      -4.813  -9.982  12.081  0.00  0.00    +0.002 A 
ATOM     24  C   UNL     1      -3.999  -9.669  10.992  0.00  0.00    +0.000 A 
ENDBRANCH   1  17
ENDBRANCH   6   1
ENDBRANCH  11   6
TORSDOF 5
ENDMDL
MODEL 5
REMARK VINA RESULT:      -6.3      6.389      9.070
REMARK  Name = 25338308
REMARK  6 active torsions:
REMARK  status: ('A' for Active; 'I' for Inactive)
REMARK    1  A    between atoms: S_1  and  N_6
REMARK    2  A    between atoms: S_1  and  C_17
REMARK    3  A    between atoms: N_5  and  C_16
REMARK    4  A    between atoms: N_6  and  C_11
REMARK    5  A    between atoms: C_12  and  C_15
REMARK    6  A    between atoms: C_18  and  C_21
REMARK                            x       y       z     vdW  Elec       q    Type
REMARK                         _______ _______ _______ _____ _____    ______ ____
ROOT
ATOM      5  N   UNL     1      14.049  12.421  16.328  0.00  0.00    -0.293 NA
ATOM     11  C   UNL     1      14.212  10.199  17.018  0.00  0.00    +0.092 C 
ATOM     12  C   UNL     1      14.499  11.705  15.119  0.00  0.00    +0.147 C 
ATOM     13  C   UNL     1      14.428  10.215  15.506  0.00  0.00    +0.050 C 
ATOM     14  C   UNL     1      14.515  11.620  17.465  0.00  0.00    +0.105 C 
ATOM     16  C   UNL     1      14.533  13.794  16.397  0.00  0.00    +0.105 C 
ENDROOT
BRANCH  12  15
ATOM      2  O   UNL     1      14.254  12.861  12.980  0.00  0.00    -0.336 OA
ATOM      7  N   UNL     1      12.484  11.613  13.554  0.00  0.00    -0.189 NA
ATOM      8  N   UNL     1      13.323  13.006  11.944  0.00  0.00    -0.054 NA
ATOM     15  C   UNL     1      13.682  12.025  13.887  0.00  0.00    +0.245 A 
ATOM     18  C   UNL     1      12.308  12.241  12.356  0.00  0.00    +0.222 A 
BRANCH  18  21
ATOM      9  N   UNL     1       9.941  12.263  12.251  0.00  0.00    -0.249 NA
ATOM     10  N   UNL     1      10.016  11.605   9.525  0.00  0.00    -0.260 NA
ATOM     21  C   UNL     1      11.103  12.081  11.592  0.00  0.00    +0.129 A 
ATOM     25  C   UNL     1      11.139  11.758  10.254  0.00  0.00    +0.142 A 
ATOM     26  C   UNL     1       8.817  12.110  11.523  0.00  0.00    +0.131 A 
ATOM     27  C   UNL     1       8.854  11.787  10.184  0.00  0.00    +0.130 A 
ENDBRANCH  18  21
ENDBRANCH  12  15
BRANCH  11   6
ATOM      6  N   UNL     1      12.800   9.860  17.322  0.00  0.00    -0.186 NA
ATOM     28  H   UNL     1      12.205  10.606  17.702  0.00  0.00    +0.148 HD
BRANCH   6   1
ATOM      1  S   UNL     1      12.328   8.233  17.433  0.00  0.00    +0.059 S 
ATOM      3  O   UNL     1      13.432   7.381  17.036  0.00  0.00    -0.153 OA
ATOM      4  O   UNL     1      11.028   8.083  16.807  0.00  0.00    -0.153 OA
BRANCH   1  17
ATOM     17  C   UNL     1      12.088   8.040  19.174  0.00  0.00    +0.105 A 
ATOM     19  C   UNL     1      11.015   8.669  19.804  0.00  0.00    +0.028 A 
ATOM     20  C   UNL     1      12.973   7.258  19.917  0.00  0.00    +0.028 A 
ATOM     22  C   UNL     1      10.826   8.518  21.177  0.00  0.00    +0.002 A 
ATOM     23  C   UNL     1      12.784   7.107  21.290  0.00  0.00    +0.002 A 
ATOM     24  C   UNL     1      11.710   7.736  21.920  0.00  0.00    +0.000 A 
ENDBRANCH   1  17
ENDBRANCH   6   1
ENDBRANCH  11   6
TORSDOF 5
ENDMDL
MODEL 6
REMARK VINA RESULT:      -6.2     26.673     28.715
REMARK  Name = 25338308
REMARK  6 active torsions:
REMARK  status: ('A' for Active; 'I' for Inactive)
REMARK    1  A    between atoms: S_1  and  N_6
REMARK    2  A    between atoms: S_1  and  C_17
REMARK    3  A    between atoms: N_5  and  C_16
REMARK    4  A    between atoms: N_6  and  C_11
REMARK    5  A    between atoms: C_12  and  C_15
REMARK    6  A    between atoms: C_18  and  C_21
REMARK                            x       y       z     vdW  Elec       q    Type
REMARK                         _______ _______ _______ _____ _____    ______ ____
ROOT
ATOM      5  N   UNL     1      -4.394 -12.656  15.718  0.00  0.00    -0.293 NA
ATOM     11  C   UNL     1      -2.693 -11.298  14.881  0.00  0.00    +0.092 C 
ATOM     12  C   UNL     1      -4.146 -11.688  16.803  0.00  0.00    +0.147 C 
ATOM     13  C   UNL     1      -3.162 -10.671  16.192  0.00  0.00    +0.050 C 
ATOM     14  C   UNL     1      -3.137 -12.749  14.968  0.00  0.00    +0.105 C 
ATOM     16  C   UNL     1      -4.836 -13.959  16.201  0.00  0.00    +0.105 C 
ENDROOT
BRANCH  12  15
ATOM      2  O   UNL     1      -5.464 -10.831  18.673  0.00  0.00    -0.336 OA
ATOM      7  N   UNL     1      -6.465 -10.627  16.680  0.00  0.00    -0.189 NA
ATOM      8  N   UNL     1      -6.702 -10.224  18.920  0.00  0.00    -0.054 NA
ATOM     15  C   UNL     1      -5.404 -11.034  17.331  0.00  0.00    +0.245 A 
ATOM     18  C   UNL     1      -7.233 -10.138  17.696  0.00  0.00    +0.222 A 
BRANCH  18  21
ATOM      9  N   UNL     1      -9.499  -9.878  18.336  0.00  0.00    -0.249 NA
ATOM     10  N   UNL     1      -9.968  -8.203  16.135  0.00  0.00    -0.260 NA
ATOM     21  C   UNL     1      -8.527  -9.568  17.454  0.00  0.00    +0.129 A 
ATOM     25  C   UNL     1      -8.758  -8.745  16.374  0.00  0.00    +0.142 A 
ATOM     26  C   UNL     1     -10.710  -9.337  18.097  0.00  0.00    +0.131 A 
ATOM     27  C   UNL     1     -10.940  -8.514  17.016  0.00  0.00    +0.130 A 
ENDBRANCH  18  21
ENDBRANCH  12  15
BRANCH  11   6
ATOM      6  N   UNL     1      -3.360 -10.630  13.736  0.00  0.00    -0.186 NA
ATOM     28  H   UNL     1      -4.340 -10.350  13.857  0.00  0.00    +0.148 HD
BRANCH   6   1
ATOM      1  S   UNL     1      -2.666 -10.717  12.189  0.00  0.00    +0.059 S 
ATOM      3  O   UNL     1      -2.657 -12.096  11.740  0.00  0.00    -0.153 OA
ATOM      4  O   UNL     1      -1.443  -9.939  12.184  0.00  0.00    -0.153 OA
BRANCH   1  17
ATOM     17  C   UNL     1      -3.844  -9.833  11.210  0.00  0.00    +0.105 A 
ATOM     19  C   UNL     1      -5.114  -9.566  11.721  0.00  0.00    +0.028 A 
ATOM     20  C   UNL     1      -3.503  -9.403   9.928  0.00  0.00    +0.028 A 
ATOM     22  C   UNL     1      -6.044  -8.870  10.949  0.00  0.00    +0.002 A 
ATOM     23  C   UNL     1      -4.433  -8.707   9.156  0.00  0.00    +0.002 A 
ATOM     24  C   UNL     1      -5.703  -8.439   9.667  0.00  0.00    +0.000 A 
ENDBRANCH   1  17
ENDBRANCH   6   1
ENDBRANCH  11   6
TORSDOF 5
ENDMDL
MODEL 7
REMARK VINA RESULT:      -6.2     26.889     29.924
REMARK  Name = 25338308
REMARK  6 active torsions:
REMARK  status: ('A' for Active; 'I' for Inactive)
REMARK    1  A    between atoms: S_1  and  N_6
REMARK    2  A    between atoms: S_1  and  C_17
REMARK    3  A    between atoms: N_5  and  C_16
REMARK    4  A    between atoms: N_6  and  C_11
REMARK    5  A    between atoms: C_12  and  C_15
REMARK    6  A    between atoms: C_18  and  C_21
REMARK                            x       y       z     vdW  Elec       q    Type
REMARK                         _______ _______ _______ _____ _____    ______ ____
ROOT
ATOM      5  N   UNL     1     -17.543   6.057  25.820  0.00  0.00    -0.293 NA
ATOM     11  C   UNL     1     -16.811   5.952  23.608  0.00  0.00    +0.092 C 
ATOM     12  C   UNL     1     -17.898   4.691  25.392  0.00  0.00    +0.147 C 
ATOM     13  C   UNL     1     -17.252   4.544  24.000  0.00  0.00    +0.050 C 
ATOM     14  C   UNL     1     -17.516   6.866  24.597  0.00  0.00    +0.105 C 
ATOM     16  C   UNL     1     -18.458   6.604  26.814  0.00  0.00    +0.105 C 
ENDROOT
BRANCH  12  15
ATOM      2  O   UNL     1     -18.229   2.508  26.439  0.00  0.00    -0.336 OA
ATOM      7  N   UNL     1     -16.399   3.591  27.141  0.00  0.00    -0.189 NA
ATOM      8  N   UNL     1     -17.620   1.671  27.382  0.00  0.00    -0.054 NA
ATOM     15  C   UNL     1     -17.447   3.616  26.357  0.00  0.00    +0.245 A 
ATOM     18  C   UNL     1     -16.547   2.379  27.750  0.00  0.00    +0.222 A 
BRANCH  18  21
ATOM      9  N   UNL     1     -15.552   0.570  28.912  0.00  0.00    -0.249 NA
ATOM     10  N   UNL     1     -13.907   2.340  30.337  0.00  0.00    -0.260 NA
ATOM     21  C   UNL     1     -15.605   1.904  28.721  0.00  0.00    +0.129 A 
ATOM     25  C   UNL     1     -14.796   2.773  29.421  0.00  0.00    +0.142 A 
ATOM     26  C   UNL     1     -14.663   0.137  29.828  0.00  0.00    +0.131 A 
ATOM     27  C   UNL     1     -13.855   1.007  30.527  0.00  0.00    +0.130 A 
ENDBRANCH  18  21
ENDBRANCH  12  15
BRANCH  11   6
ATOM      6  N   UNL     1     -15.340   6.080  23.757  0.00  0.00    -0.186 NA
ATOM     28  H   UNL     1     -14.988   6.866  24.317  0.00  0.00    +0.148 HD
BRANCH   6   1
ATOM      1  S   UNL     1     -14.309   5.227  22.713  0.00  0.00    +0.059 S 
ATOM      3  O   UNL     1     -15.100   4.510  21.731  0.00  0.00    -0.153 OA
ATOM      4  O   UNL     1     -13.320   4.524  23.508  0.00  0.00    -0.153 OA
BRANCH   1  17
ATOM     17  C   UNL     1     -13.465   6.538  21.881  0.00  0.00    +0.105 A 
ATOM     19  C   UNL     1     -12.268   6.283  21.212  0.00  0.00    +0.028 A 
ATOM     20  C   UNL     1     -13.996   7.828  21.894  0.00  0.00    +0.028 A 
ATOM     22  C   UNL     1     -11.602   7.318  20.556  0.00  0.00    +0.002 A 
ATOM     23  C   UNL     1     -13.330   8.863  21.238  0.00  0.00    +0.002 A 
ATOM     24  C   UNL     1     -12.133   8.607  20.567  0.00  0.00    +0.000 A 
ENDBRANCH   1  17
ENDBRANCH   6   1
ENDBRANCH  11   6
TORSDOF 5
ENDMDL
MODEL 8
REMARK VINA RESULT:      -6.2     26.717     29.035
REMARK  Name = 25338308
REMARK  6 active torsions:
REMARK  status: ('A' for Active; 'I' for Inactive)
REMARK    1  A    between atoms: S_1  and  N_6
REMARK    2  A    between atoms: S_1  and  C_17
REMARK    3  A    between atoms: N_5  and  C_16
REMARK    4  A    between atoms: N_6  and  C_11
REMARK    5  A    between atoms: C_12  and  C_15
REMARK    6  A    between atoms: C_18  and  C_21
REMARK                            x       y       z     vdW  Elec       q    Type
REMARK                         _______ _______ _______ _____ _____    ______ ____
ROOT
ATOM      5  N   UNL     1      -4.791 -12.465  15.785  0.00  0.00    -0.293 NA
ATOM     11  C   UNL     1      -3.018 -11.087  15.156  0.00  0.00    +0.092 C 
ATOM     12  C   UNL     1      -4.707 -11.474  16.874  0.00  0.00    +0.147 C 
ATOM     13  C   UNL     1      -3.669 -10.447  16.381  0.00  0.00    +0.050 C 
ATOM     14  C   UNL     1      -3.444 -12.545  15.211  0.00  0.00    +0.105 C 
ATOM     16  C   UNL     1      -5.271 -13.768  16.229  0.00  0.00    +0.105 C 
ENDROOT
BRANCH  12  15
ATOM      2  O   UNL     1      -6.258  -9.592  16.719  0.00  0.00    -0.336 OA
ATOM      7  N   UNL     1      -7.023 -11.310  17.936  0.00  0.00    -0.189 NA
ATOM      8  N   UNL     1      -7.531  -9.216  17.164  0.00  0.00    -0.054 NA
ATOM     15  C   UNL     1      -6.036 -10.837  17.218  0.00  0.00    +0.245 A 
ATOM     18  C   UNL     1      -7.917 -10.281  17.874  0.00  0.00    +0.222 A 
BRANCH  18  21
ATOM      9  N   UNL     1      -9.290 -11.207  19.568  0.00  0.00    -0.249 NA
ATOM     10  N   UNL     1     -11.453  -9.627  18.734  0.00  0.00    -0.260 NA
ATOM     21  C   UNL     1      -9.190 -10.349  18.533  0.00  0.00    +0.129 A 
ATOM     25  C   UNL     1     -10.252  -9.573  18.124  0.00  0.00    +0.142 A 
ATOM     26  C   UNL     1     -10.491 -11.262  20.178  0.00  0.00    +0.131 A 
ATOM     27  C   UNL     1     -11.553 -10.485  19.768  0.00  0.00    +0.130 A 
ENDBRANCH  18  21
ENDBRANCH  12  15
BRANCH  11   6
ATOM      6  N   UNL     1      -3.538 -10.451  13.920  0.00  0.00    -0.186 NA
ATOM     28  H   UNL     1      -4.509 -10.118  13.931  0.00  0.00    +0.148 HD
BRANCH   6   1
ATOM      1  S   UNL     1      -2.707 -10.656  12.453  0.00  0.00    +0.059 S 
ATOM      3  O   UNL     1      -2.681 -12.063  12.105  0.00  0.00    -0.153 OA
ATOM      4  O   UNL     1      -1.475  -9.893  12.506  0.00  0.00    -0.153 OA
BRANCH   1  17
ATOM     17  C   UNL     1      -3.776  -9.832  11.311  0.00  0.00    +0.105 A 
ATOM     19  C   UNL     1      -3.296  -9.452  10.057  0.00  0.00    +0.028 A 
ATOM     20  C   UNL     1      -5.098  -9.561  11.663  0.00  0.00    +0.028 A 
ATOM     22  C   UNL     1      -4.138  -8.801   9.156  0.00  0.00    +0.002 A 
ATOM     23  C   UNL     1      -5.940  -8.910  10.762  0.00  0.00    +0.002 A 
ATOM     24  C   UNL     1      -5.461  -8.531   9.508  0.00  0.00    +0.000 A 
ENDBRANCH   1  17
ENDBRANCH   6   1
ENDBRANCH  11   6
TORSDOF 5
ENDMDL
MODEL 9
REMARK VINA RESULT:      -6.1     27.829     30.467
REMARK  Name = 25338308
REMARK  6 active torsions:
REMARK  status: ('A' for Active; 'I' for Inactive)
REMARK    1  A    between atoms: S_1  and  N_6
REMARK    2  A    between atoms: S_1  and  C_17
REMARK    3  A    between atoms: N_5  and  C_16
REMARK    4  A    between atoms: N_6  and  C_11
REMARK    5  A    between atoms: C_12  and  C_15
REMARK    6  A    between atoms: C_18  and  C_21
REMARK                            x       y       z     vdW  Elec       q    Type
REMARK                         _______ _______ _______ _____ _____    ______ ____
ROOT
ATOM      5  N   UNL     1     -10.206 -11.173  17.364  0.00  0.00    -0.293 NA
ATOM     11  C   UNL     1      -9.587 -11.138  19.612  0.00  0.00    +0.092 C 
ATOM     12  C   UNL     1     -11.182 -10.260  17.987  0.00  0.00    +0.147 C 
ATOM     13  C   UNL     1     -10.671 -10.078  19.430  0.00  0.00    +0.050 C 
ATOM     14  C   UNL     1      -9.765 -12.078  18.430  0.00  0.00    +0.105 C 
ATOM     16  C   UNL     1     -10.748 -11.901  16.223  0.00  0.00    +0.105 C 
ENDROOT
BRANCH  12  15
ATOM      2  O   UNL     1     -10.390  -7.999  17.505  0.00  0.00    -0.336 OA
ATOM      7  N   UNL     1     -12.255  -8.569  16.403  0.00  0.00    -0.189 NA
ATOM      8  N   UNL     1     -10.737  -6.888  16.727  0.00  0.00    -0.054 NA
ATOM     15  C   UNL     1     -11.335  -8.944  17.256  0.00  0.00    +0.245 A 
ATOM     18  C   UNL     1     -11.846  -7.302  16.107  0.00  0.00    +0.222 A 
BRANCH  18  21
ATOM      9  N   UNL     1     -11.847  -5.583  14.476  0.00  0.00    -0.249 NA
ATOM     10  N   UNL     1     -14.626  -5.818  14.173  0.00  0.00    -0.260 NA
ATOM     21  C   UNL     1     -12.570  -6.474  15.184  0.00  0.00    +0.129 A 
ATOM     25  C   UNL     1     -13.934  -6.589  15.035  0.00  0.00    +0.142 A 
ATOM     26  C   UNL     1     -12.538  -4.811  13.614  0.00  0.00    +0.131 A 
ATOM     27  C   UNL     1     -13.903  -4.927  13.465  0.00  0.00    +0.130 A 
ENDBRANCH  18  21
ENDBRANCH  12  15
BRANCH  11   6
ATOM      6  N   UNL     1      -8.247 -10.503  19.558  0.00  0.00    -0.186 NA
ATOM     28  H   UNL     1      -8.195  -9.534  19.220  0.00  0.00    +0.148 HD
BRANCH   6   1
ATOM      1  S   UNL     1      -6.852 -11.467  19.647  0.00  0.00    +0.059 S 
ATOM      3  O   UNL     1      -7.217 -12.861  19.480  0.00  0.00    -0.153 OA
ATOM      4  O   UNL     1      -6.070 -11.049  20.794  0.00  0.00    -0.153 OA
BRANCH   1  17
ATOM     17  C   UNL     1      -5.965 -10.959  18.204  0.00  0.00    +0.105 A 
ATOM     19  C   UNL     1      -4.647 -11.373  18.015  0.00  0.00    +0.028 A 
ATOM     20  C   UNL     1      -6.584 -10.144  17.256  0.00  0.00    +0.028 A 
ATOM     22  C   UNL     1      -3.946 -10.971  16.878  0.00  0.00    +0.002 A 
ATOM     23  C   UNL     1      -5.884  -9.743  16.118  0.00  0.00    +0.002 A 
ATOM     24  C   UNL     1      -4.565 -10.158  15.929  0.00  0.00    +0.000 A 
ENDBRANCH   1  17
ENDBRANCH   6   1
ENDBRANCH  11   6
TORSDOF 5
ENDMDL
MODEL 10
REMARK VINA RESULT:      -6.1      3.696      5.611
REMARK  Name = 25338308
REMARK  6 active torsions:
REMARK  status: ('A' for Active; 'I' for Inactive)
REMARK    1  A    between atoms: S_1  and  N_6
REMARK    2  A    between atoms: S_1  and  C_17
REMARK    3  A    between atoms: N_5  and  C_16
REMARK    4  A    between atoms: N_6  and  C_11
REMARK    5  A    between atoms: C_12  and  C_15
REMARK    6  A    between atoms: C_18  and  C_21
REMARK                            x       y       z     vdW  Elec       q    Type
REMARK                         _______ _______ _______ _____ _____    ______ ____
ROOT
ATOM      5  N   UNL     1      16.432   9.241  20.578  0.00  0.00    -0.293 NA
ATOM     11  C   UNL     1      14.295   8.321  20.733  0.00  0.00    +0.092 C 
ATOM     12  C   UNL     1      16.593   8.126  21.530  0.00  0.00    +0.147 C 
ATOM     13  C   UNL     1      15.237   7.393  21.496  0.00  0.00    +0.050 C 
ATOM     14  C   UNL     1      15.027   9.651  20.675  0.00  0.00    +0.105 C 
ATOM     16  C   UNL     1      17.341  10.351  20.834  0.00  0.00    +0.105 C 
ENDROOT
BRANCH  12  15
ATOM      2  O   UNL     1      17.589   6.376  20.145  0.00  0.00    -0.336 OA
ATOM      7  N   UNL     1      18.917   7.103  21.796  0.00  0.00    -0.189 NA
ATOM      8  N   UNL     1      18.777   5.642  20.041  0.00  0.00    -0.054 NA
ATOM     15  C   UNL     1      17.755   7.213  21.204  0.00  0.00    +0.245 A 
ATOM     18  C   UNL     1      19.509   6.128  21.048  0.00  0.00    +0.222 A 
BRANCH  18  21
ATOM      9  N   UNL     1      21.114   5.378  22.621  0.00  0.00    -0.249 NA
ATOM     10  N   UNL     1      23.023   5.079  20.588  0.00  0.00    -0.260 NA
ATOM     21  C   UNL     1      20.836   5.662  21.333  0.00  0.00    +0.129 A 
ATOM     25  C   UNL     1      21.774   5.515  20.335  0.00  0.00    +0.142 A 
ATOM     26  C   UNL     1      22.364   4.941  22.875  0.00  0.00    +0.131 A 
ATOM     27  C   UNL     1      23.301   4.794  21.876  0.00  0.00    +0.130 A 
ENDBRANCH  18  21
ENDBRANCH  12  15
BRANCH  11   6
ATOM      6  N   UNL     1      14.077   7.800  19.360  0.00  0.00    -0.186 NA
ATOM     28  H   UNL     1      14.865   7.323  18.904  0.00  0.00    +0.148 HD
BRANCH   6   1
ATOM      1  S   UNL     1      12.748   8.340  18.454  0.00  0.00    +0.059 S 
ATOM      3  O   UNL     1      11.853   9.096  19.310  0.00  0.00    -0.153 OA
ATOM      4  O   UNL     1      12.242   7.234  17.665  0.00  0.00    -0.153 OA
BRANCH   1  17
ATOM     17  C   UNL     1      13.508   9.471  17.328  0.00  0.00    +0.105 A 
ATOM     19  C   UNL     1      14.098   8.998  16.156  0.00  0.00    +0.028 A 
ATOM     20  C   UNL     1      13.519  10.837  17.612  0.00  0.00    +0.028 A 
ATOM     22  C   UNL     1      14.700   9.890  15.268  0.00  0.00    +0.002 A 
ATOM     23  C   UNL     1      14.120  11.729  16.724  0.00  0.00    +0.002 A 
ATOM     24  C   UNL     1      14.709  11.255  15.551  0.00  0.00    +0.000 A 
ENDBRANCH   1  17
ENDBRANCH   6   1
ENDBRANCH  11   6
TORSDOF 5
ENDMDL
