MODEL 1
REMARK VINA RESULT:      -6.8      0.000      0.000
REMARK  Name = 7685329
REMARK  7 active torsions:
REMARK  status: ('A' for Active; 'I' for Inactive)
REMARK    1  A    between atoms: O_3  and  C_22
REMARK    2  A    between atoms: O_3  and  C_28
REMARK    3  A    between atoms: N_7  and  C_27
REMARK    4  A    between atoms: C_15  and  C_20
REMARK    5  A    between atoms: C_17  and  C_21
REMARK    6  A    between atoms: C_21  and  C_22
REMARK    7  A    between atoms: C_29  and  C_30
REMARK                            x       y       z     vdW  Elec       q    Type
REMARK                         _______ _______ _______ _____ _____    ______ ____
ROOT
ATOM      1  O   UNL     1      11.285   9.181  17.141  0.00  0.00    -0.268 OA
ATOM      2  O   UNL     1      11.329  12.096  21.528  0.00  0.00    -0.276 OA
ATOM      5  N   UNL     1      12.194   9.987  21.978  0.00  0.00    -0.300 N 
ATOM      6  N   UNL     1      12.235   8.495  19.168  0.00  0.00    -0.311 N 
ATOM      8  C   UNL     1      10.795   8.062  21.244  0.00  0.00    +0.027 C 
ATOM      9  C   UNL     1      13.238   7.810  21.370  0.00  0.00    +0.054 C 
ATOM     10  C   UNL     1      11.909   7.105  21.639  0.00  0.00    +0.018 C 
ATOM     11  C   UNL     1      10.875   9.361  22.064  0.00  0.00    +0.113 C 
ATOM     12  C   UNL     1      10.892   8.327  19.741  0.00  0.00    +0.130 C 
ATOM     13  C   UNL     1      13.326   9.085  22.234  0.00  0.00    +0.117 C 
ATOM     14  C   UNL     1      13.399   8.162  19.888  0.00  0.00    +0.034 A 
ATOM     15  C   UNL     1      14.608   8.189  19.270  0.00  0.00    +0.002 A 
ATOM     16  C   UNL     1      12.271   8.894  17.820  0.00  0.00    +0.252 A 
ATOM     17  C   UNL     1      12.295  11.358  21.740  0.00  0.00    +0.218 C 
ATOM     18  C   UNL     1      14.685   8.598  17.880  0.00  0.00    +0.015 A 
ATOM     19  C   UNL     1      13.605   8.947  17.181  0.00  0.00    +0.071 A 
ENDROOT
BRANCH  15  20
ATOM     20  C   UNL     1      15.856   7.829  19.980  0.00  0.00    -0.016 A 
ATOM     23  C   UNL     1      16.329   6.521  19.925  0.00  0.00    +0.010 A 
ATOM     24  C   UNL     1      16.546   8.800  20.699  0.00  0.00    +0.010 A 
ATOM     25  C   UNL     1      17.505   6.183  20.594  0.00  0.00    +0.024 A 
ATOM     26  C   UNL     1      17.722   8.460  21.369  0.00  0.00    +0.024 A 
ATOM     27  C   UNL     1      18.201   7.152  21.316  0.00  0.00    +0.033 A 
BRANCH  27   7
ATOM      4  O   UNL     1      21.080   7.536  20.521  0.00  0.00    -0.276 OA
ATOM      7  N   UNL     1      19.378   6.813  21.984  0.00  0.00    -0.286 N 
ATOM     29  C   UNL     1      20.700   7.014  21.564  0.00  0.00    +0.214 C 
ATOM     30  C   UNL     1      21.693   6.505  22.579  0.00  0.00    +0.109 C 
ATOM     31  H   UNL     1      19.250   6.363  22.889  0.00  0.00    +0.155 HD
ENDBRANCH  27   7
ENDBRANCH  15  20
BRANCH  17  21
ATOM     21  C   UNL     1      13.684  11.944  21.739  0.00  0.00    +0.124 C 
BRANCH  21  22
ATOM     22  C   UNL     1      13.920  12.683  20.440  0.00  0.00    +0.168 C 
BRANCH  22   3
ATOM      3  O   UNL     1      13.886  11.762  19.357  0.00  0.00    -0.382 OA
ATOM     28  C   UNL     1      13.677  12.425  18.117  0.00  0.00    +0.194 C 
ENDBRANCH  22   3
ENDBRANCH  21  22
ENDBRANCH  17  21
TORSDOF 5
ENDMDL
MODEL 2
REMARK VINA RESULT:      -6.1      3.102      9.237
REMARK  Name = 7685329
REMARK  7 active torsions:
REMARK  status: ('A' for Active; 'I' for Inactive)
REMARK    1  A    between atoms: O_3  and  C_22
REMARK    2  A    between atoms: O_3  and  C_28
REMARK    3  A    between atoms: N_7  and  C_27
REMARK    4  A    between atoms: C_15  and  C_20
REMARK    5  A    between atoms: C_17  and  C_21
REMARK    6  A    between atoms: C_21  and  C_22
REMARK    7  A    between atoms: C_29  and  C_30
REMARK                            x       y       z     vdW  Elec       q    Type
REMARK                         _______ _______ _______ _____ _____    ______ ____
ROOT
ATOM      1  O   UNL     1      24.081   4.183  21.421  0.00  0.00    -0.268 OA
ATOM      2  O   UNL     1      22.738   7.756  25.051  0.00  0.00    -0.276 OA
ATOM      5  N   UNL     1      21.784   8.317  23.008  0.00  0.00    -0.300 N 
ATOM      6  N   UNL     1      22.578   5.939  21.048  0.00  0.00    -0.311 N 
ATOM      8  C   UNL     1      23.342   8.385  21.066  0.00  0.00    +0.027 C 
ATOM      9  C   UNL     1      20.972   7.843  20.703  0.00  0.00    +0.054 C 
ATOM     10  C   UNL     1      22.164   8.610  20.132  0.00  0.00    +0.018 C 
ATOM     11  C   UNL     1      23.021   8.894  22.482  0.00  0.00    +0.113 C 
ATOM     12  C   UNL     1      23.692   6.897  21.058  0.00  0.00    +0.130 C 
ATOM     13  C   UNL     1      20.630   8.396  22.102  0.00  0.00    +0.117 C 
ATOM     14  C   UNL     1      21.253   6.340  20.780  0.00  0.00    +0.034 A 
ATOM     15  C   UNL     1      20.280   5.405  20.630  0.00  0.00    +0.002 A 
ATOM     16  C   UNL     1      22.939   4.589  21.201  0.00  0.00    +0.252 A 
ATOM     17  C   UNL     1      21.755   7.812  24.308  0.00  0.00    +0.218 C 
ATOM     18  C   UNL     1      20.616   4.001  20.785  0.00  0.00    +0.015 A 
ATOM     19  C   UNL     1      21.853   3.592  21.067  0.00  0.00    +0.071 A 
ENDROOT
BRANCH  15  20
ATOM     20  C   UNL     1      18.880   5.777  20.330  0.00  0.00    -0.016 A 
ATOM     23  C   UNL     1      18.345   5.497  19.075  0.00  0.00    +0.010 A 
ATOM     24  C   UNL     1      18.108   6.405  21.302  0.00  0.00    +0.010 A 
ATOM     25  C   UNL     1      17.025   5.849  18.793  0.00  0.00    +0.024 A 
ATOM     26  C   UNL     1      16.788   6.756  21.019  0.00  0.00    +0.024 A 
ATOM     27  C   UNL     1      16.247   6.478  19.765  0.00  0.00    +0.033 A 
BRANCH  27   7
ATOM      4  O   UNL     1      15.048   9.131  18.998  0.00  0.00    -0.276 OA
ATOM      7  N   UNL     1      14.926   6.827  19.482  0.00  0.00    -0.286 N 
ATOM     29  C   UNL     1      14.421   8.086  19.131  0.00  0.00    +0.214 C 
ATOM     30  C   UNL     1      12.930   8.048  18.905  0.00  0.00    +0.109 C 
ATOM     31  H   UNL     1      14.252   6.066  19.542  0.00  0.00    +0.155 HD
ENDBRANCH  27   7
ENDBRANCH  15  20
BRANCH  17  21
ATOM     21  C   UNL     1      20.426   7.302  24.805  0.00  0.00    +0.124 C 
BRANCH  21  22
ATOM     22  C   UNL     1      20.377   7.405  26.314  0.00  0.00    +0.168 C 
BRANCH  22   3
ATOM      3  O   UNL     1      19.971   6.158  26.862  0.00  0.00    -0.382 OA
ATOM     28  C   UNL     1      21.000   5.575  27.650  0.00  0.00    +0.194 C 
ENDBRANCH  22   3
ENDBRANCH  21  22
ENDBRANCH  17  21
TORSDOF 5
ENDMDL
MODEL 3
REMARK VINA RESULT:      -5.9     14.341     17.893
REMARK  Name = 7685329
REMARK  7 active torsions:
REMARK  status: ('A' for Active; 'I' for Inactive)
REMARK    1  A    between atoms: O_3  and  C_22
REMARK    2  A    between atoms: O_3  and  C_28
REMARK    3  A    between atoms: N_7  and  C_27
REMARK    4  A    between atoms: C_15  and  C_20
REMARK    5  A    between atoms: C_17  and  C_21
REMARK    6  A    between atoms: C_21  and  C_22
REMARK    7  A    between atoms: C_29  and  C_30
REMARK                            x       y       z     vdW  Elec       q    Type
REMARK                         _______ _______ _______ _____ _____    ______ ____
ROOT
ATOM      1  O   UNL     1      10.837   5.828   8.796  0.00  0.00    -0.268 OA
ATOM      2  O   UNL     1      10.476  10.657   6.725  0.00  0.00    -0.276 OA
ATOM      5  N   UNL     1      11.761   9.304   5.340  0.00  0.00    -0.300 N 
ATOM      6  N   UNL     1      11.678   6.425   6.694  0.00  0.00    -0.311 N 
ATOM      8  C   UNL     1      13.623   8.077   6.448  0.00  0.00    +0.027 C 
ATOM      9  C   UNL     1      12.562   7.124   4.446  0.00  0.00    +0.054 C 
ATOM     10  C   UNL     1      13.901   7.333   5.152  0.00  0.00    +0.018 C 
ATOM     11  C   UNL     1      12.960   9.436   6.167  0.00  0.00    +0.113 C 
ATOM     12  C   UNL     1      12.754   7.190   7.340  0.00  0.00    +0.130 C 
ATOM     13  C   UNL     1      11.931   8.495   4.126  0.00  0.00    +0.117 C 
ATOM     14  C   UNL     1      11.603   6.283   5.294  0.00  0.00    +0.034 A 
ATOM     15  C   UNL     1      10.685   5.446   4.747  0.00  0.00    +0.002 A 
ATOM     16  C   UNL     1      10.806   5.751   7.567  0.00  0.00    +0.252 A 
ATOM     17  C   UNL     1      10.596   9.983   5.699  0.00  0.00    +0.218 C 
ATOM     18  C   UNL     1       9.766   4.736   5.617  0.00  0.00    +0.015 A 
ATOM     19  C   UNL     1       9.793   4.871   6.943  0.00  0.00    +0.071 A 
ENDROOT
BRANCH  15  20
ATOM     20  C   UNL     1      10.581   5.250   3.284  0.00  0.00    -0.016 A 
ATOM     23  C   UNL     1       9.891   6.178   2.510  0.00  0.00    +0.010 A 
ATOM     24  C   UNL     1      11.173   4.138   2.692  0.00  0.00    +0.010 A 
ATOM     25  C   UNL     1       9.793   5.993   1.131  0.00  0.00    +0.024 A 
ATOM     26  C   UNL     1      11.075   3.954   1.313  0.00  0.00    +0.024 A 
ATOM     27  C   UNL     1      10.385   4.881   0.533  0.00  0.00    +0.033 A 
BRANCH  27   7
ATOM      4  O   UNL     1      12.349   5.501  -1.664  0.00  0.00    -0.276 OA
ATOM      7  N   UNL     1      10.289   4.697  -0.847  0.00  0.00    -0.286 N 
ATOM     29  C   UNL     1      11.239   5.008  -1.829  0.00  0.00    +0.214 C 
ATOM     30  C   UNL     1      10.750   4.654  -3.212  0.00  0.00    +0.109 C 
ATOM     31  H   UNL     1       9.415   4.287  -1.171  0.00  0.00    +0.155 HD
ENDBRANCH  27   7
ENDBRANCH  15  20
BRANCH  17  21
ATOM     21  C   UNL     1       9.424   9.857   4.759  0.00  0.00    +0.124 C 
BRANCH  21  22
ATOM     22  C   UNL     1       8.532   8.722   5.212  0.00  0.00    +0.168 C 
BRANCH  22   3
ATOM      3  O   UNL     1       7.543   8.470   4.222  0.00  0.00    -0.382 OA
ATOM     28  C   UNL     1       6.795   9.641   3.924  0.00  0.00    +0.194 C 
ENDBRANCH  22   3
ENDBRANCH  21  22
ENDBRANCH  17  21
TORSDOF 5
ENDMDL
MODEL 4
REMARK VINA RESULT:      -5.9     26.405     29.608
REMARK  Name = 7685329
REMARK  7 active torsions:
REMARK  status: ('A' for Active; 'I' for Inactive)
REMARK    1  A    between atoms: O_3  and  C_22
REMARK    2  A    between atoms: O_3  and  C_28
REMARK    3  A    between atoms: N_7  and  C_27
REMARK    4  A    between atoms: C_15  and  C_20
REMARK    5  A    between atoms: C_17  and  C_21
REMARK    6  A    between atoms: C_21  and  C_22
REMARK    7  A    between atoms: C_29  and  C_30
REMARK                            x       y       z     vdW  Elec       q    Type
REMARK                         _______ _______ _______ _____ _____    ______ ____
ROOT
ATOM      1  O   UNL     1      -1.845 -10.792  16.339  0.00  0.00    -0.268 OA
ATOM      2  O   UNL     1      -5.229 -14.733  15.468  0.00  0.00    -0.276 OA
ATOM      5  N   UNL     1      -6.013 -12.790  14.466  0.00  0.00    -0.300 N 
ATOM      6  N   UNL     1      -3.735 -10.626  14.967  0.00  0.00    -0.311 N 
ATOM      8  C   UNL     1      -6.107 -10.777  15.928  0.00  0.00    +0.027 C 
ATOM      9  C   UNL     1      -5.779 -10.505  13.507  0.00  0.00    +0.054 C 
ATOM     10  C   UNL     1      -6.492  -9.926  14.729  0.00  0.00    +0.018 C 
ATOM     11  C   UNL     1      -6.531 -12.240  15.718  0.00  0.00    +0.113 C 
ATOM     12  C   UNL     1      -4.600 -10.644  16.155  0.00  0.00    +0.130 C 
ATOM     13  C   UNL     1      -6.250 -11.956  13.279  0.00  0.00    +0.117 C 
ATOM     14  C   UNL     1      -4.257 -10.460  13.668  0.00  0.00    +0.034 A 
ATOM     15  C   UNL     1      -3.414 -10.296  12.616  0.00  0.00    +0.002 A 
ATOM     16  C   UNL     1      -2.353 -10.664  15.225  0.00  0.00    +0.252 A 
ATOM     17  C   UNL     1      -5.416 -14.051  14.458  0.00  0.00    +0.218 C 
ATOM     18  C   UNL     1      -1.981 -10.333  12.844  0.00  0.00    +0.015 A 
ATOM     19  C   UNL     1      -1.457 -10.518  14.055  0.00  0.00    +0.071 A 
ENDROOT
BRANCH  15  20
ATOM     20  C   UNL     1      -3.915 -10.100  11.238  0.00  0.00    -0.016 A 
ATOM     23  C   UNL     1      -4.314  -8.833  10.823  0.00  0.00    +0.010 A 
ATOM     24  C   UNL     1      -3.985 -11.183  10.367  0.00  0.00    +0.010 A 
ATOM     25  C   UNL     1      -4.787  -8.649   9.524  0.00  0.00    +0.024 A 
ATOM     26  C   UNL     1      -4.458 -10.998   9.068  0.00  0.00    +0.024 A 
ATOM     27  C   UNL     1      -4.859  -9.730   8.647  0.00  0.00    +0.033 A 
BRANCH  27   7
ATOM      4  O   UNL     1      -7.671  -9.452   7.608  0.00  0.00    -0.276 OA
ATOM      7  N   UNL     1      -5.330  -9.545   7.346  0.00  0.00    -0.286 N 
ATOM     29  C   UNL     1      -6.658  -9.423   6.917  0.00  0.00    +0.214 C 
ATOM     30  C   UNL     1      -6.748  -9.233   5.423  0.00  0.00    +0.109 C 
ATOM     31  H   UNL     1      -4.612  -9.493   6.627  0.00  0.00    +0.155 HD
ENDBRANCH  27   7
ENDBRANCH  15  20
BRANCH  17  21
ATOM     21  C   UNL     1      -4.975 -14.582  13.118  0.00  0.00    +0.124 C 
BRANCH  21  22
ATOM     22  C   UNL     1      -3.507 -14.945  13.177  0.00  0.00    +0.168 C 
BRANCH  22   3
ATOM      3  O   UNL     1      -2.747 -13.797  13.531  0.00  0.00    -0.382 OA
ATOM     28  C   UNL     1      -1.373 -14.117  13.710  0.00  0.00    +0.194 C 
ENDBRANCH  22   3
ENDBRANCH  21  22
ENDBRANCH  17  21
TORSDOF 5
ENDMDL
MODEL 5
REMARK VINA RESULT:      -5.9     27.054     29.696
REMARK  Name = 7685329
REMARK  7 active torsions:
REMARK  status: ('A' for Active; 'I' for Inactive)
REMARK    1  A    between atoms: O_3  and  C_22
REMARK    2  A    between atoms: O_3  and  C_28
REMARK    3  A    between atoms: N_7  and  C_27
REMARK    4  A    between atoms: C_15  and  C_20
REMARK    5  A    between atoms: C_17  and  C_21
REMARK    6  A    between atoms: C_21  and  C_22
REMARK    7  A    between atoms: C_29  and  C_30
REMARK                            x       y       z     vdW  Elec       q    Type
REMARK                         _______ _______ _______ _____ _____    ______ ____
ROOT
ATOM      1  O   UNL     1      -1.874 -15.186  12.797  0.00  0.00    -0.268 OA
ATOM      2  O   UNL     1      -4.889 -13.146  16.603  0.00  0.00    -0.276 OA
ATOM      5  N   UNL     1      -4.109 -11.446  15.224  0.00  0.00    -0.300 N 
ATOM      6  N   UNL     1      -2.486 -12.930  12.924  0.00  0.00    -0.311 N 
ATOM      8  C   UNL     1      -1.652 -11.419  14.820  0.00  0.00    +0.027 C 
ATOM      9  C   UNL     1      -3.173 -10.518  13.112  0.00  0.00    +0.054 C 
ATOM     10  C   UNL     1      -1.832 -10.297  13.811  0.00  0.00    +0.018 C 
ATOM     11  C   UNL     1      -2.790 -11.411  15.855  0.00  0.00    +0.113 C 
ATOM     12  C   UNL     1      -1.576 -12.746  14.063  0.00  0.00    +0.130 C 
ATOM     13  C   UNL     1      -4.310 -10.460  14.154  0.00  0.00    +0.117 C 
ATOM     14  C   UNL     1      -3.207 -11.855  12.366  0.00  0.00    +0.034 A 
ATOM     15  C   UNL     1      -3.917 -12.038  11.223  0.00  0.00    +0.002 A 
ATOM     16  C   UNL     1      -2.495 -14.217  12.359  0.00  0.00    +0.252 A 
ATOM     17  C   UNL     1      -5.081 -12.325  15.702  0.00  0.00    +0.218 C 
ATOM     18  C   UNL     1      -3.952 -13.355  10.613  0.00  0.00    +0.015 A 
ATOM     19  C   UNL     1      -3.305 -14.397  11.133  0.00  0.00    +0.071 A 
ENDROOT
BRANCH  15  20
ATOM     20  C   UNL     1      -4.673 -10.935  10.590  0.00  0.00    -0.016 A 
ATOM     23  C   UNL     1      -6.008 -10.732  10.925  0.00  0.00    +0.010 A 
ATOM     24  C   UNL     1      -4.045 -10.110   9.662  0.00  0.00    +0.010 A 
ATOM     25  C   UNL     1      -6.721  -9.693  10.327  0.00  0.00    +0.024 A 
ATOM     26  C   UNL     1      -4.758  -9.070   9.065  0.00  0.00    +0.024 A 
ATOM     27  C   UNL     1      -6.096  -8.862   9.398  0.00  0.00    +0.033 A 
BRANCH  27   7
ATOM      4  O   UNL     1      -8.306  -8.925   7.354  0.00  0.00    -0.276 OA
ATOM      7  N   UNL     1      -6.809  -7.821   8.802  0.00  0.00    -0.286 N 
ATOM     29  C   UNL     1      -7.832  -7.908   7.849  0.00  0.00    +0.214 C 
ATOM     30  C   UNL     1      -8.348  -6.547   7.455  0.00  0.00    +0.109 C 
ATOM     31  H   UNL     1      -6.544  -6.885   9.103  0.00  0.00    +0.155 HD
ENDBRANCH  27   7
ENDBRANCH  15  20
BRANCH  17  21
ATOM     21  C   UNL     1      -6.439 -12.251  15.050  0.00  0.00    +0.124 C 
BRANCH  21  22
ATOM     22  C   UNL     1      -7.443 -11.692  16.035  0.00  0.00    +0.168 C 
BRANCH  22   3
ATOM      3  O   UNL     1      -7.589 -10.294  15.822  0.00  0.00    -0.382 OA
ATOM     28  C   UNL     1      -7.129  -9.547  16.940  0.00  0.00    +0.194 C 
ENDBRANCH  22   3
ENDBRANCH  21  22
ENDBRANCH  17  21
TORSDOF 5
ENDMDL
MODEL 6
REMARK VINA RESULT:      -5.7      2.947      4.919
REMARK  Name = 7685329
REMARK  7 active torsions:
REMARK  status: ('A' for Active; 'I' for Inactive)
REMARK    1  A    between atoms: O_3  and  C_22
REMARK    2  A    between atoms: O_3  and  C_28
REMARK    3  A    between atoms: N_7  and  C_27
REMARK    4  A    between atoms: C_15  and  C_20
REMARK    5  A    between atoms: C_17  and  C_21
REMARK    6  A    between atoms: C_21  and  C_22
REMARK    7  A    between atoms: C_29  and  C_30
REMARK                            x       y       z     vdW  Elec       q    Type
REMARK                         _______ _______ _______ _____ _____    ______ ____
ROOT
ATOM      1  O   UNL     1      13.223   8.702  15.709  0.00  0.00    -0.268 OA
ATOM      2  O   UNL     1      10.917   7.703  20.338  0.00  0.00    -0.276 OA
ATOM      5  N   UNL     1      13.173   8.154  20.666  0.00  0.00    -0.300 N 
ATOM      6  N   UNL     1      14.292   8.900  17.782  0.00  0.00    -0.311 N 
ATOM      8  C   UNL     1      14.755   6.851  19.253  0.00  0.00    +0.027 C 
ATOM      9  C   UNL     1      15.390   9.093  20.037  0.00  0.00    +0.054 C 
ATOM     10  C   UNL     1      15.913   7.678  19.790  0.00  0.00    +0.018 C 
ATOM     11  C   UNL     1      13.596   6.814  20.263  0.00  0.00    +0.113 C 
ATOM     12  C   UNL     1      14.324   7.436  17.907  0.00  0.00    +0.130 C 
ATOM     13  C   UNL     1      14.261   9.047  21.087  0.00  0.00    +0.117 C 
ATOM     14  C   UNL     1      14.886   9.742  18.744  0.00  0.00    +0.034 A 
ATOM     15  C   UNL     1      14.968  11.078  18.515  0.00  0.00    +0.002 A 
ATOM     16  C   UNL     1      13.740   9.393  16.587  0.00  0.00    +0.252 A 
ATOM     17  C   UNL     1      11.814   8.470  20.696  0.00  0.00    +0.218 C 
ATOM     18  C   UNL     1      14.405  11.623  17.294  0.00  0.00    +0.015 A 
ATOM     19  C   UNL     1      13.811  10.857  16.380  0.00  0.00    +0.071 A 
ENDROOT
BRANCH  15  20
ATOM     20  C   UNL     1      15.599  11.998  19.486  0.00  0.00    -0.016 A 
ATOM     23  C   UNL     1      14.811  12.656  20.427  0.00  0.00    +0.010 A 
ATOM     24  C   UNL     1      16.975  12.202  19.452  0.00  0.00    +0.010 A 
ATOM     25  C   UNL     1      15.407  13.524  21.342  0.00  0.00    +0.024 A 
ATOM     26  C   UNL     1      17.570  13.070  20.368  0.00  0.00    +0.024 A 
ATOM     27  C   UNL     1      16.786  13.731  21.312  0.00  0.00    +0.033 A 
BRANCH  27   7
ATOM      4  O   UNL     1      17.904  13.204  24.058  0.00  0.00    -0.276 OA
ATOM      7  N   UNL     1      17.381  14.598  22.230  0.00  0.00    -0.286 N 
ATOM     29  C   UNL     1      17.885  14.298  23.502  0.00  0.00    +0.214 C 
ATOM     30  C   UNL     1      18.451  15.519  24.182  0.00  0.00    +0.109 C 
ATOM     31  H   UNL     1      17.453  15.567  21.927  0.00  0.00    +0.155 HD
ENDBRANCH  27   7
ENDBRANCH  15  20
BRANCH  17  21
ATOM     21  C   UNL     1      11.452   9.847  21.194  0.00  0.00    +0.124 C 
BRANCH  21  22
ATOM     22  C   UNL     1      10.908   9.749  22.603  0.00  0.00    +0.168 C 
BRANCH  22   3
ATOM      3  O   UNL     1      11.010  11.015  23.240  0.00  0.00    -0.382 OA
ATOM     28  C   UNL     1      12.325  11.545  23.140  0.00  0.00    +0.194 C 
ENDBRANCH  22   3
ENDBRANCH  21  22
ENDBRANCH  17  21
TORSDOF 5
ENDMDL
MODEL 7
REMARK VINA RESULT:      -5.7     25.741     28.707
REMARK  Name = 7685329
REMARK  7 active torsions:
REMARK  status: ('A' for Active; 'I' for Inactive)
REMARK    1  A    between atoms: O_3  and  C_22
REMARK    2  A    between atoms: O_3  and  C_28
REMARK    3  A    between atoms: N_7  and  C_27
REMARK    4  A    between atoms: C_15  and  C_20
REMARK    5  A    between atoms: C_17  and  C_21
REMARK    6  A    between atoms: C_21  and  C_22
REMARK    7  A    between atoms: C_29  and  C_30
REMARK                            x       y       z     vdW  Elec       q    Type
REMARK                         _______ _______ _______ _____ _____    ______ ____
ROOT
ATOM      1  O   UNL     1     -10.790  12.844  18.467  0.00  0.00    -0.268 OA
ATOM      2  O   UNL     1     -13.919  10.991  14.657  0.00  0.00    -0.276 OA
ATOM      5  N   UNL     1     -12.944   9.220  15.802  0.00  0.00    -0.300 N 
ATOM      6  N   UNL     1     -11.267  10.575  18.142  0.00  0.00    -0.311 N 
ATOM      8  C   UNL     1     -10.469   9.323  16.052  0.00  0.00    +0.027 C 
ATOM      9  C   UNL     1     -11.814   8.152  17.745  0.00  0.00    +0.054 C 
ATOM     10  C   UNL     1     -10.511   8.095  16.948  0.00  0.00    +0.018 C 
ATOM     11  C   UNL     1     -11.671   9.340  15.093  0.00  0.00    +0.113 C 
ATOM     12  C   UNL     1     -10.425  10.569  16.937  0.00  0.00    +0.130 C 
ATOM     13  C   UNL     1     -13.011   8.120  16.773  0.00  0.00    +0.117 C 
ATOM     14  C   UNL     1     -11.880   9.403  18.627  0.00  0.00    +0.034 A 
ATOM     15  C   UNL     1     -12.522   9.421  19.824  0.00  0.00    +0.002 A 
ATOM     16  C   UNL     1     -11.318  11.796  18.838  0.00  0.00    +0.252 A 
ATOM     17  C   UNL     1     -13.999  10.074  15.477  0.00  0.00    +0.218 C 
ATOM     18  C   UNL     1     -12.599  10.664  20.568  0.00  0.00    +0.015 A 
ATOM     19  C   UNL     1     -12.055  11.795  20.122  0.00  0.00    +0.071 A 
ENDROOT
BRANCH  15  20
ATOM     20  C   UNL     1     -13.164   8.211  20.383  0.00  0.00    -0.016 A 
ATOM     23  C   UNL     1     -12.388   7.252  21.026  0.00  0.00    +0.010 A 
ATOM     24  C   UNL     1     -14.540   8.040  20.261  0.00  0.00    +0.010 A 
ATOM     25  C   UNL     1     -12.994   6.111  21.552  0.00  0.00    +0.024 A 
ATOM     26  C   UNL     1     -15.145   6.898  20.788  0.00  0.00    +0.024 A 
ATOM     27  C   UNL     1     -14.372   5.934  21.434  0.00  0.00    +0.033 A 
BRANCH  27   7
ATOM      4  O   UNL     1     -16.063   5.585  23.900  0.00  0.00    -0.276 OA
ATOM      7  N   UNL     1     -14.978   4.794  21.963  0.00  0.00    -0.286 N 
ATOM     29  C   UNL     1     -15.757   4.687  23.122  0.00  0.00    +0.214 C 
ATOM     30  C   UNL     1     -16.230   3.274  23.351  0.00  0.00    +0.109 C 
ATOM     31  H   UNL     1     -14.828   3.937  21.433  0.00  0.00    +0.155 HD
ENDBRANCH  27   7
ENDBRANCH  15  20
BRANCH  17  21
ATOM     21  C   UNL     1     -15.303   9.841  16.198  0.00  0.00    +0.124 C 
BRANCH  21  22
ATOM     22  C   UNL     1     -16.276   9.144  15.272  0.00  0.00    +0.168 C 
BRANCH  22   3
ATOM      3  O   UNL     1     -16.727   7.940  15.877  0.00  0.00    -0.382 OA
ATOM     28  C   UNL     1     -16.189   6.797  15.225  0.00  0.00    +0.194 C 
ENDBRANCH  22   3
ENDBRANCH  21  22
ENDBRANCH  17  21
TORSDOF 5
ENDMDL
MODEL 8
REMARK VINA RESULT:      -5.7     12.652     15.601
REMARK  Name = 7685329
REMARK  7 active torsions:
REMARK  status: ('A' for Active; 'I' for Inactive)
REMARK    1  A    between atoms: O_3  and  C_22
REMARK    2  A    between atoms: O_3  and  C_28
REMARK    3  A    between atoms: N_7  and  C_27
REMARK    4  A    between atoms: C_15  and  C_20
REMARK    5  A    between atoms: C_17  and  C_21
REMARK    6  A    between atoms: C_21  and  C_22
REMARK    7  A    between atoms: C_29  and  C_30
REMARK                            x       y       z     vdW  Elec       q    Type
REMARK                         _______ _______ _______ _____ _____    ______ ____
ROOT
ATOM      1  O   UNL     1      13.605   7.034   6.278  0.00  0.00    -0.268 OA
ATOM      2  O   UNL     1       9.311   6.870   3.232  0.00  0.00    -0.276 OA
ATOM      5  N   UNL     1       8.692   7.243   5.440  0.00  0.00    -0.300 N 
ATOM      6  N   UNL     1      11.435   7.484   7.035  0.00  0.00    -0.311 N 
ATOM      8  C   UNL     1       9.637   5.659   7.113  0.00  0.00    +0.027 C 
ATOM      9  C   UNL     1       9.084   7.956   7.793  0.00  0.00    +0.054 C 
ATOM     10  C   UNL     1       9.043   6.494   8.236  0.00  0.00    +0.018 C 
ATOM     11  C   UNL     1       8.830   5.837   5.816  0.00  0.00    +0.113 C 
ATOM     12  C   UNL     1      11.103   6.056   6.935  0.00  0.00    +0.130 C 
ATOM     13  C   UNL     1       8.233   8.129   6.518  0.00  0.00    +0.117 C 
ATOM     14  C   UNL     1      10.519   8.428   7.540  0.00  0.00    +0.034 A 
ATOM     15  C   UNL     1      10.918   9.708   7.757  0.00  0.00    +0.002 A 
ATOM     16  C   UNL     1      12.761   7.820   6.708  0.00  0.00    +0.252 A 
ATOM     17  C   UNL     1       8.925   7.633   4.121  0.00  0.00    +0.218 C 
ATOM     18  C   UNL     1      12.278  10.093   7.428  0.00  0.00    +0.015 A 
ATOM     19  C   UNL     1      13.158   9.230   6.922  0.00  0.00    +0.071 A 
ENDROOT
BRANCH  15  20
ATOM     20  C   UNL     1       9.997  10.729   8.304  0.00  0.00    -0.016 A 
ATOM     23  C   UNL     1       9.475  11.708   7.464  0.00  0.00    +0.010 A 
ATOM     24  C   UNL     1       9.661  10.705   9.654  0.00  0.00    +0.010 A 
ATOM     25  C   UNL     1       8.607  12.671   7.980  0.00  0.00    +0.024 A 
ATOM     26  C   UNL     1       8.794  11.668  10.169  0.00  0.00    +0.024 A 
ATOM     27  C   UNL     1       8.267  12.651   9.332  0.00  0.00    +0.033 A 
BRANCH  27   7
ATOM      4  O   UNL     1       8.780  14.938  11.222  0.00  0.00    -0.276 OA
ATOM      7  N   UNL     1       7.397  13.613   9.847  0.00  0.00    -0.286 N 
ATOM     29  C   UNL     1       7.691  14.660  10.731  0.00  0.00    +0.214 C 
ATOM     30  C   UNL     1       6.469  15.485  11.048  0.00  0.00    +0.109 C 
ATOM     31  H   UNL     1       6.430  13.536   9.537  0.00  0.00    +0.155 HD
ENDBRANCH  27   7
ENDBRANCH  15  20
BRANCH  17  21
ATOM     21  C   UNL     1       8.691   9.086   3.795  0.00  0.00    +0.124 C 
BRANCH  21  22
ATOM     22  C   UNL     1       7.623   9.199   2.727  0.00  0.00    +0.168 C 
BRANCH  22   3
ATOM      3  O   UNL     1       6.391   9.579   3.326  0.00  0.00    -0.382 OA
ATOM     28  C   UNL     1       6.577  10.599   4.298  0.00  0.00    +0.194 C 
ENDBRANCH  22   3
ENDBRANCH  21  22
ENDBRANCH  17  21
TORSDOF 5
ENDMDL
MODEL 9
REMARK VINA RESULT:      -5.7     14.285     17.798
REMARK  Name = 7685329
REMARK  7 active torsions:
REMARK  status: ('A' for Active; 'I' for Inactive)
REMARK    1  A    between atoms: O_3  and  C_22
REMARK    2  A    between atoms: O_3  and  C_28
REMARK    3  A    between atoms: N_7  and  C_27
REMARK    4  A    between atoms: C_15  and  C_20
REMARK    5  A    between atoms: C_17  and  C_21
REMARK    6  A    between atoms: C_21  and  C_22
REMARK    7  A    between atoms: C_29  and  C_30
REMARK                            x       y       z     vdW  Elec       q    Type
REMARK                         _______ _______ _______ _____ _____    ______ ____
ROOT
ATOM      1  O   UNL     1      12.794  10.189   7.025  0.00  0.00    -0.268 OA
ATOM      2  O   UNL     1       8.311   7.530   7.786  0.00  0.00    -0.276 OA
ATOM      5  N   UNL     1       8.653   7.856   5.512  0.00  0.00    -0.300 N 
ATOM      6  N   UNL     1      11.480   9.302   5.302  0.00  0.00    -0.311 N 
ATOM      8  C   UNL     1       9.128  10.199   4.812  0.00  0.00    +0.027 C 
ATOM      9  C   UNL     1      10.029   8.330   3.492  0.00  0.00    +0.054 C 
ATOM     10  C   UNL     1       9.397   9.718   3.395  0.00  0.00    +0.018 C 
ATOM     11  C   UNL     1       8.174   9.238   5.542  0.00  0.00    +0.113 C 
ATOM     12  C   UNL     1      10.466  10.340   5.539  0.00  0.00    +0.130 C 
ATOM     13  C   UNL     1       9.043   7.365   4.183  0.00  0.00    +0.117 C 
ATOM     14  C   UNL     1      11.357   8.367   4.255  0.00  0.00    +0.034 A 
ATOM     15  C   UNL     1      12.385   7.525   3.976  0.00  0.00    +0.002 A 
ATOM     16  C   UNL     1      12.628   9.384   6.109  0.00  0.00    +0.252 A 
ATOM     17  C   UNL     1       8.643   7.095   6.681  0.00  0.00    +0.218 C 
ATOM     18  C   UNL     1      13.585   7.578   4.790  0.00  0.00    +0.015 A 
ATOM     19  C   UNL     1      13.720   8.430   5.805  0.00  0.00    +0.071 A 
ENDROOT
BRANCH  15  20
ATOM     20  C   UNL     1      12.309   6.540   2.875  0.00  0.00    -0.016 A 
ATOM     23  C   UNL     1      12.822   6.863   1.622  0.00  0.00    +0.010 A 
ATOM     24  C   UNL     1      11.725   5.297   3.098  0.00  0.00    +0.010 A 
ATOM     25  C   UNL     1      12.751   5.934   0.584  0.00  0.00    +0.024 A 
ATOM     26  C   UNL     1      11.653   4.368   2.060  0.00  0.00    +0.024 A 
ATOM     27  C   UNL     1      12.166   4.687   0.803  0.00  0.00    +0.033 A 
BRANCH  27   7
ATOM      4  O   UNL     1      10.200   4.431  -1.463  0.00  0.00    -0.276 OA
ATOM      7  N   UNL     1      12.096   3.757  -0.235  0.00  0.00    -0.286 N 
ATOM     29  C   UNL     1      11.153   3.683  -1.268  0.00  0.00    +0.214 C 
ATOM     30  C   UNL     1      11.427   2.525  -2.195  0.00  0.00    +0.109 C 
ATOM     31  H   UNL     1      12.826   3.047  -0.232  0.00  0.00    +0.155 HD
ENDBRANCH  27   7
ENDBRANCH  15  20
BRANCH  17  21
ATOM     21  C   UNL     1       9.081   5.658   6.555  0.00  0.00    +0.124 C 
BRANCH  21  22
ATOM     22  C   UNL     1      10.393   5.464   7.285  0.00  0.00    +0.168 C 
BRANCH  22   3
ATOM      3  O   UNL     1      10.318   4.297   8.093  0.00  0.00    -0.382 OA
ATOM     28  C   UNL     1       9.420   4.474   9.181  0.00  0.00    +0.194 C 
ENDBRANCH  22   3
ENDBRANCH  21  22
ENDBRANCH  17  21
TORSDOF 5
ENDMDL
MODEL 10
REMARK VINA RESULT:      -5.7      2.587      6.351
REMARK  Name = 7685329
REMARK  7 active torsions:
REMARK  status: ('A' for Active; 'I' for Inactive)
REMARK    1  A    between atoms: O_3  and  C_22
REMARK    2  A    between atoms: O_3  and  C_28
REMARK    3  A    between atoms: N_7  and  C_27
REMARK    4  A    between atoms: C_15  and  C_20
REMARK    5  A    between atoms: C_17  and  C_21
REMARK    6  A    between atoms: C_21  and  C_22
REMARK    7  A    between atoms: C_29  and  C_30
REMARK                            x       y       z     vdW  Elec       q    Type
REMARK                         _______ _______ _______ _____ _____    ______ ____
ROOT
ATOM      1  O   UNL     1      17.201   6.983  19.949  0.00  0.00    -0.268 OA
ATOM      2  O   UNL     1      13.283   8.411  16.731  0.00  0.00    -0.276 OA
ATOM      5  N   UNL     1      12.579   8.565  18.940  0.00  0.00    -0.300 N 
ATOM      6  N   UNL     1      15.146   7.840  20.675  0.00  0.00    -0.311 N 
ATOM      8  C   UNL     1      12.960   6.543  20.343  0.00  0.00    +0.027 C 
ATOM      9  C   UNL     1      12.921   8.763  21.397  0.00  0.00    +0.054 C 
ATOM     10  C   UNL     1      12.488   7.308  21.569  0.00  0.00    +0.018 C 
ATOM     11  C   UNL     1      12.339   7.128  19.062  0.00  0.00    +0.113 C 
ATOM     12  C   UNL     1      14.488   6.579  20.306  0.00  0.00    +0.130 C 
ATOM     13  C   UNL     1      12.254   9.352  20.137  0.00  0.00    +0.117 C 
ATOM     14  C   UNL     1      14.444   8.891  21.299  0.00  0.00    +0.034 A 
ATOM     15  C   UNL     1      15.120   9.975  21.761  0.00  0.00    +0.002 A 
ATOM     16  C   UNL     1      16.537   7.877  20.475  0.00  0.00    +0.252 A 
ATOM     17  C   UNL     1      13.016   9.092  17.724  0.00  0.00    +0.218 C 
ATOM     18  C   UNL     1      16.556  10.050  21.568  0.00  0.00    +0.015 A 
ATOM     19  C   UNL     1      17.243   9.086  20.956  0.00  0.00    +0.071 A 
ENDROOT
BRANCH  15  20
ATOM     20  C   UNL     1      14.429  11.093  22.439  0.00  0.00    -0.016 A 
ATOM     23  C   UNL     1      14.308  11.091  23.826  0.00  0.00    +0.010 A 
ATOM     24  C   UNL     1      13.903  12.139  21.686  0.00  0.00    +0.010 A 
ATOM     25  C   UNL     1      13.656  12.146  24.464  0.00  0.00    +0.024 A 
ATOM     26  C   UNL     1      13.251  13.194  22.326  0.00  0.00    +0.024 A 
ATOM     27  C   UNL     1      13.128  13.197  23.715  0.00  0.00    +0.033 A 
BRANCH  27   7
ATOM      4  O   UNL     1      10.571  13.243  25.304  0.00  0.00    -0.276 OA
ATOM      7  N   UNL     1      12.478  14.253  24.355  0.00  0.00    -0.286 N 
ATOM     29  C   UNL     1      11.281  14.218  25.083  0.00  0.00    +0.214 C 
ATOM     30  C   UNL     1      10.913  15.578  25.619  0.00  0.00    +0.109 C 
ATOM     31  H   UNL     1      12.938  15.158  24.276  0.00  0.00    +0.155 HD
ENDBRANCH  27   7
ENDBRANCH  15  20
BRANCH  17  21
ATOM     21  C   UNL     1      13.170  10.590  17.653  0.00  0.00    +0.124 C 
BRANCH  21  22
ATOM     22  C   UNL     1      14.631  10.940  17.468  0.00  0.00    +0.168 C 
BRANCH  22   3
ATOM      3  O   UNL     1      14.784  11.742  16.305  0.00  0.00    -0.382 OA
ATOM     28  C   UNL     1      15.102  10.953  15.166  0.00  0.00    +0.194 C 
ENDBRANCH  22   3
ENDBRANCH  21  22
ENDBRANCH  17  21
TORSDOF 5
ENDMDL
