MODEL 1
REMARK VINA RESULT:      -6.4      0.000      0.000
REMARK  Name = 75537127
REMARK  3 active torsions:
REMARK  status: ('A' for Active; 'I' for Inactive)
REMARK    1  A    between atoms: N_2  and  C_7
REMARK    2  A    between atoms: N_4  and  C_18
REMARK    3  A    between atoms: C_18  and  C_19
REMARK                            x       y       z     vdW  Elec       q    Type
REMARK                         _______ _______ _______ _____ _____    ______ ____
ROOT
ATOM      1  O   UNL     1      19.780   8.330  22.578  0.00  0.00    -0.252 OA
ATOM      2  N   UNL     1      19.722   6.501  21.089  0.00  0.00    -0.281 N 
ATOM      3  N   UNL     1      17.913   7.823  21.244  0.00  0.00    -0.278 N 
ATOM      4  N   UNL     1      15.219   7.417  20.544  0.00  0.00    -0.295 NA
ATOM      6  C   UNL     1      17.597   6.898  20.175  0.00  0.00    +0.109 C 
ATOM      8  C   UNL     1      18.727   5.872  20.237  0.00  0.00    +0.133 C 
ATOM      9  C   UNL     1      16.195   6.322  20.369  0.00  0.00    +0.109 C 
ATOM     12  C   UNL     1      19.212   7.642  21.740  0.00  0.00    +0.305 C 
ATOM     13  C   UNL     1      16.956   8.849  21.600  0.00  0.00    +0.125 C 
ATOM     14  C   UNL     1      15.557   8.238  21.724  0.00  0.00    +0.104 C 
ENDROOT
BRANCH   2   7
ATOM      7  C   UNL     1      21.015   5.904  21.324  0.00  0.00    +0.078 C 
ATOM     10  C   UNL     1      22.108   6.685  20.589  0.00  0.00    +0.022 C 
ATOM     11  C   UNL     1      21.013   4.429  20.914  0.00  0.00    +0.022 C 
ATOM     15  C   UNL     1      23.480   6.044  20.778  0.00  0.00    +0.002 C 
ATOM     16  C   UNL     1      22.387   3.791  21.103  0.00  0.00    +0.002 C 
ATOM     17  C   UNL     1      23.475   4.572  20.372  0.00  0.00    +0.000 C 
ENDBRANCH   2   7
BRANCH   4  18
ATOM     18  C   UNL     1      13.866   6.878  20.669  0.00  0.00    +0.121 C 
BRANCH  18  19
ATOM      5  N   UNL     1      10.737   8.459  19.240  0.00  0.00    -0.263 NA
ATOM     19  C   UNL     1      12.916   7.512  19.688  0.00  0.00    -0.015 A 
ATOM     20  C   UNL     1      13.293   7.736  18.369  0.00  0.00    +0.008 A 
ATOM     21  C   UNL     1      11.639   7.887  20.071  0.00  0.00    +0.115 A 
ATOM     22  C   UNL     1      12.393   8.321  17.484  0.00  0.00    +0.020 A 
ATOM     23  C   UNL     1      11.139   8.662  17.966  0.00  0.00    +0.111 A 
ENDBRANCH  18  19
ENDBRANCH   4  18
TORSDOF 3
ENDMDL
MODEL 2
REMARK VINA RESULT:      -6.2     27.451     30.542
REMARK  Name = 75537127
REMARK  3 active torsions:
REMARK  status: ('A' for Active; 'I' for Inactive)
REMARK    1  A    between atoms: N_2  and  C_7
REMARK    2  A    between atoms: N_4  and  C_18
REMARK    3  A    between atoms: C_18  and  C_19
REMARK                            x       y       z     vdW  Elec       q    Type
REMARK                         _______ _______ _______ _____ _____    ______ ____
ROOT
ATOM      1  O   UNL     1      -7.956 -10.747  19.880  0.00  0.00    -0.252 OA
ATOM      2  N   UNL     1      -8.268  -9.952  17.680  0.00  0.00    -0.281 N 
ATOM      3  N   UNL     1      -6.429 -11.157  18.141  0.00  0.00    -0.278 N 
ATOM      4  N   UNL     1      -3.957 -11.400  16.822  0.00  0.00    -0.295 NA
ATOM      6  C   UNL     1      -6.373 -10.942  16.710  0.00  0.00    +0.109 C 
ATOM      8  C   UNL     1      -7.493  -9.937  16.451  0.00  0.00    +0.133 C 
ATOM      9  C   UNL     1      -4.979 -10.470  16.298  0.00  0.00    +0.109 C 
ATOM     12  C   UNL     1      -7.598 -10.637  18.714  0.00  0.00    +0.305 C 
ATOM     13  C   UNL     1      -5.389 -11.933  18.783  0.00  0.00    +0.125 C 
ATOM     14  C   UNL     1      -4.014 -11.468  18.296  0.00  0.00    +0.104 C 
ENDROOT
BRANCH   2   7
ATOM      7  C   UNL     1      -9.498  -9.211  17.819  0.00  0.00    +0.078 C 
ATOM     10  C   UNL     1     -10.704 -10.148  17.706  0.00  0.00    +0.022 C 
ATOM     11  C   UNL     1      -9.570  -8.084  16.786  0.00  0.00    +0.022 C 
ATOM     15  C   UNL     1     -12.021  -9.382  17.797  0.00  0.00    +0.002 C 
ATOM     16  C   UNL     1     -10.889  -7.320  16.879  0.00  0.00    +0.002 C 
ATOM     17  C   UNL     1     -12.089  -8.255  16.769  0.00  0.00    +0.000 C 
ENDBRANCH   2   7
BRANCH   4  18
ATOM     18  C   UNL     1      -2.624 -10.991  16.381  0.00  0.00    +0.121 C 
BRANCH  18  19
ATOM      5  N   UNL     1      -2.410 -12.822  13.074  0.00  0.00    -0.263 NA
ATOM     19  C   UNL     1      -2.413 -11.253  14.914  0.00  0.00    -0.015 A 
ATOM     20  C   UNL     1      -2.035 -10.230  14.051  0.00  0.00    +0.008 A 
ATOM     21  C   UNL     1      -2.586 -12.520  14.381  0.00  0.00    +0.115 A 
ATOM     22  C   UNL     1      -1.844 -10.502  12.700  0.00  0.00    +0.020 A 
ATOM     23  C   UNL     1      -2.044 -11.803  12.267  0.00  0.00    +0.111 A 
ENDBRANCH  18  19
ENDBRANCH   4  18
TORSDOF 3
ENDMDL
MODEL 3
REMARK VINA RESULT:      -6.2     27.562     29.382
REMARK  Name = 75537127
REMARK  3 active torsions:
REMARK  status: ('A' for Active; 'I' for Inactive)
REMARK    1  A    between atoms: N_2  and  C_7
REMARK    2  A    between atoms: N_4  and  C_18
REMARK    3  A    between atoms: C_18  and  C_19
REMARK                            x       y       z     vdW  Elec       q    Type
REMARK                         _______ _______ _______ _____ _____    ______ ____
ROOT
ATOM      1  O   UNL     1      -1.713 -10.707  15.797  0.00  0.00    -0.252 OA
ATOM      2  N   UNL     1      -4.069 -10.740  15.673  0.00  0.00    -0.281 N 
ATOM      3  N   UNL     1      -2.888 -10.849  13.766  0.00  0.00    -0.278 N 
ATOM      4  N   UNL     1      -3.578 -10.323  11.091  0.00  0.00    -0.295 NA
ATOM      6  C   UNL     1      -4.265 -11.017  13.350  0.00  0.00    +0.109 C 
ATOM      8  C   UNL     1      -5.065 -10.711  14.615  0.00  0.00    +0.133 C 
ATOM      9  C   UNL     1      -4.575 -10.109  12.161  0.00  0.00    +0.109 C 
ATOM     12  C   UNL     1      -2.757 -10.763  15.159  0.00  0.00    +0.305 C 
ATOM     13  C   UNL     1      -1.837 -10.892  12.772  0.00  0.00    +0.125 C 
ATOM     14  C   UNL     1      -2.216 -10.018  11.573  0.00  0.00    +0.104 C 
ENDROOT
BRANCH   2   7
ATOM      7  C   UNL     1      -4.427 -10.605  17.065  0.00  0.00    +0.078 C 
ATOM     10  C   UNL     1      -4.028 -11.859  17.845  0.00  0.00    +0.022 C 
ATOM     11  C   UNL     1      -5.922 -10.309  17.213  0.00  0.00    +0.022 C 
ATOM     15  C   UNL     1      -4.442 -11.765  19.311  0.00  0.00    +0.002 C 
ATOM     16  C   UNL     1      -6.333 -10.216  18.680  0.00  0.00    +0.002 C 
ATOM     17  C   UNL     1      -5.932 -11.467  19.457  0.00  0.00    +0.000 C 
ENDBRANCH   2   7
BRANCH   4  18
ATOM     18  C   UNL     1      -3.901  -9.504   9.924  0.00  0.00    +0.121 C 
BRANCH  18  19
ATOM      5  N   UNL     1      -4.839 -12.502   7.811  0.00  0.00    -0.263 NA
ATOM     19  C   UNL     1      -4.476 -10.327   8.802  0.00  0.00    -0.015 A 
ATOM     20  C   UNL     1      -5.151  -9.725   7.745  0.00  0.00    +0.008 A 
ATOM     21  C   UNL     1      -4.348 -11.706   8.788  0.00  0.00    +0.115 A 
ATOM     22  C   UNL     1      -5.669 -10.511   6.721  0.00  0.00    +0.020 A 
ATOM     23  C   UNL     1      -5.489 -11.882   6.801  0.00  0.00    +0.111 A 
ENDBRANCH  18  19
ENDBRANCH   4  18
TORSDOF 3
ENDMDL
MODEL 4
REMARK VINA RESULT:      -5.9     27.645     30.015
REMARK  Name = 75537127
REMARK  3 active torsions:
REMARK  status: ('A' for Active; 'I' for Inactive)
REMARK    1  A    between atoms: N_2  and  C_7
REMARK    2  A    between atoms: N_4  and  C_18
REMARK    3  A    between atoms: C_18  and  C_19
REMARK                            x       y       z     vdW  Elec       q    Type
REMARK                         _______ _______ _______ _____ _____    ______ ____
ROOT
ATOM      1  O   UNL     1      -4.901 -10.659  18.311  0.00  0.00    -0.252 OA
ATOM      2  N   UNL     1      -6.530 -10.268  16.649  0.00  0.00    -0.281 N 
ATOM      3  N   UNL     1      -4.504 -11.004  16.021  0.00  0.00    -0.278 N 
ATOM      4  N   UNL     1      -3.160 -10.940  13.551  0.00  0.00    -0.295 NA
ATOM      6  C   UNL     1      -5.281 -10.991  14.799  0.00  0.00    +0.109 C 
ATOM      8  C   UNL     1      -6.571 -10.276  15.197  0.00  0.00    +0.133 C 
ATOM      9  C   UNL     1      -4.494 -10.317  13.676  0.00  0.00    +0.109 C 
ATOM     12  C   UNL     1      -5.266 -10.649  17.142  0.00  0.00    +0.305 C 
ATOM     13  C   UNL     1      -3.129 -11.457  15.982  0.00  0.00    +0.125 C 
ATOM     14  C   UNL     1      -2.396 -10.803  14.807  0.00  0.00    +0.104 C 
ENDROOT
BRANCH   2   7
ATOM      7  C   UNL     1      -7.630  -9.773  17.443  0.00  0.00    +0.078 C 
ATOM     10  C   UNL     1      -8.411 -10.936  18.059  0.00  0.00    +0.022 C 
ATOM     11  C   UNL     1      -8.540  -8.873  16.604  0.00  0.00    +0.022 C 
ATOM     15  C   UNL     1      -9.613 -10.443  18.861  0.00  0.00    +0.002 C 
ATOM     16  C   UNL     1      -9.741  -8.382  17.409  0.00  0.00    +0.002 C 
ATOM     17  C   UNL     1     -10.518  -9.542  18.025  0.00  0.00    +0.000 C 
ENDBRANCH   2   7
BRANCH   4  18
ATOM     18  C   UNL     1      -2.422 -10.342  12.439  0.00  0.00    +0.121 C 
BRANCH  18  19
ATOM      5  N   UNL     1      -4.085  -9.503   9.142  0.00  0.00    -0.263 NA
ATOM     19  C   UNL     1      -3.145 -10.511  11.129  0.00  0.00    -0.015 A 
ATOM     20  C   UNL     1      -3.543 -11.768  10.688  0.00  0.00    +0.008 A 
ATOM     21  C   UNL     1      -3.438  -9.420  10.327  0.00  0.00    +0.115 A 
ATOM     22  C   UNL     1      -4.212 -11.894   9.475  0.00  0.00    +0.020 A 
ATOM     23  C   UNL     1      -4.455 -10.741   8.747  0.00  0.00    +0.111 A 
ENDBRANCH  18  19
ENDBRANCH   4  18
TORSDOF 3
ENDMDL
MODEL 5
REMARK VINA RESULT:      -5.8     27.205     29.705
REMARK  Name = 75537127
REMARK  3 active torsions:
REMARK  status: ('A' for Active; 'I' for Inactive)
REMARK    1  A    between atoms: N_2  and  C_7
REMARK    2  A    between atoms: N_4  and  C_18
REMARK    3  A    between atoms: C_18  and  C_19
REMARK                            x       y       z     vdW  Elec       q    Type
REMARK                         _______ _______ _______ _____ _____    ______ ____
ROOT
ATOM      1  O   UNL     1      -1.492 -10.192  11.638  0.00  0.00    -0.252 OA
ATOM      2  N   UNL     1      -3.798 -10.585  11.328  0.00  0.00    -0.281 N 
ATOM      3  N   UNL     1      -2.991 -10.489  13.422  0.00  0.00    -0.278 N 
ATOM      4  N   UNL     1      -4.001 -11.430  15.874  0.00  0.00    -0.295 NA
ATOM      6  C   UNL     1      -4.424 -10.614  13.590  0.00  0.00    +0.109 C 
ATOM      8  C   UNL     1      -4.930 -10.908  12.179  0.00  0.00    +0.133 C 
ATOM      9  C   UNL     1      -4.747 -11.691  14.625  0.00  0.00    +0.109 C 
ATOM     12  C   UNL     1      -2.618 -10.392  12.075  0.00  0.00    +0.305 C 
ATOM     13  C   UNL     1      -2.147 -10.378  14.593  0.00  0.00    +0.125 C 
ATOM     14  C   UNL     1      -2.545 -11.436  15.627  0.00  0.00    +0.104 C 
ENDROOT
BRANCH   2   7
ATOM      7  C   UNL     1      -3.887 -10.621   9.888  0.00  0.00    +0.078 C 
ATOM     10  C   UNL     1      -4.924  -9.611   9.391  0.00  0.00    +0.022 C 
ATOM     11  C   UNL     1      -4.210 -12.036   9.401  0.00  0.00    +0.022 C 
ATOM     15  C   UNL     1      -5.078  -9.665   7.873  0.00  0.00    +0.002 C 
ATOM     16  C   UNL     1      -4.363 -12.087   7.883  0.00  0.00    +0.002 C 
ATOM     17  C   UNL     1      -5.396 -11.078   7.389  0.00  0.00    +0.000 C 
ENDBRANCH   2   7
BRANCH   4  18
ATOM     18  C   UNL     1      -4.349 -12.421  16.891  0.00  0.00    +0.121 C 
BRANCH  18  19
ATOM      5  N   UNL     1      -7.710 -12.124  18.609  0.00  0.00    -0.263 NA
ATOM     19  C   UNL     1      -5.438 -11.927  17.806  0.00  0.00    -0.015 A 
ATOM     20  C   UNL     1      -5.218 -10.859  18.669  0.00  0.00    +0.008 A 
ATOM     21  C   UNL     1      -6.690 -12.520  17.813  0.00  0.00    +0.115 A 
ATOM     22  C   UNL     1      -6.243 -10.423  19.502  0.00  0.00    +0.020 A 
ATOM     23  C   UNL     1      -7.459 -11.084  19.434  0.00  0.00    +0.111 A 
ENDBRANCH  18  19
ENDBRANCH   4  18
TORSDOF 3
ENDMDL
MODEL 6
REMARK VINA RESULT:      -5.8     27.220     30.265
REMARK  Name = 75537127
REMARK  3 active torsions:
REMARK  status: ('A' for Active; 'I' for Inactive)
REMARK    1  A    between atoms: N_2  and  C_7
REMARK    2  A    between atoms: N_4  and  C_18
REMARK    3  A    between atoms: C_18  and  C_19
REMARK                            x       y       z     vdW  Elec       q    Type
REMARK                         _______ _______ _______ _____ _____    ______ ____
ROOT
ATOM      1  O   UNL     1      -5.562 -12.776  17.634  0.00  0.00    -0.252 OA
ATOM      2  N   UNL     1      -5.313 -10.923  16.195  0.00  0.00    -0.281 N 
ATOM      3  N   UNL     1      -7.220 -11.133  17.363  0.00  0.00    -0.278 N 
ATOM      4  N   UNL     1      -9.778 -10.019  17.008  0.00  0.00    -0.295 NA
ATOM      6  C   UNL     1      -7.342  -9.854  16.695  0.00  0.00    +0.109 C 
ATOM      8  C   UNL     1      -6.155  -9.832  15.734  0.00  0.00    +0.133 C 
ATOM      9  C   UNL     1      -8.711  -9.732  16.027  0.00  0.00    +0.109 C 
ATOM     12  C   UNL     1      -5.978 -11.740  17.132  0.00  0.00    +0.305 C 
ATOM     13  C   UNL     1      -8.284 -11.582  18.236  0.00  0.00    +0.125 C 
ATOM     14  C   UNL     1      -9.640 -11.386  17.551  0.00  0.00    +0.104 C 
ENDROOT
BRANCH   2   7
ATOM      7  C   UNL     1      -4.016 -11.185  15.619  0.00  0.00    +0.078 C 
ATOM     10  C   UNL     1      -2.914 -10.547  16.468  0.00  0.00    +0.022 C 
ATOM     11  C   UNL     1      -3.958 -10.692  14.171  0.00  0.00    +0.022 C 
ATOM     15  C   UNL     1      -1.534 -10.764  15.853  0.00  0.00    +0.002 C 
ATOM     16  C   UNL     1      -2.576 -10.909  13.558  0.00  0.00    +0.002 C 
ATOM     17  C   UNL     1      -1.479 -10.276  14.408  0.00  0.00    +0.000 C 
ENDBRANCH   2   7
BRANCH   4  18
ATOM     18  C   UNL     1     -11.094  -9.845  16.394  0.00  0.00    +0.121 C 
BRANCH  18  19
ATOM      5  N   UNL     1     -11.991  -6.913  14.173  0.00  0.00    -0.263 NA
ATOM     19  C   UNL     1     -11.314  -8.430  15.930  0.00  0.00    -0.015 A 
ATOM     20  C   UNL     1     -11.061  -7.353  16.772  0.00  0.00    +0.008 A 
ATOM     21  C   UNL     1     -11.774  -8.160  14.652  0.00  0.00    +0.115 A 
ATOM     22  C   UNL     1     -11.272  -6.056  16.316  0.00  0.00    +0.020 A 
ATOM     23  C   UNL     1     -11.735  -5.892  15.020  0.00  0.00    +0.111 A 
ENDBRANCH  18  19
ENDBRANCH   4  18
TORSDOF 3
ENDMDL
MODEL 7
REMARK VINA RESULT:      -5.6     13.843     16.489
REMARK  Name = 75537127
REMARK  3 active torsions:
REMARK  status: ('A' for Active; 'I' for Inactive)
REMARK    1  A    between atoms: N_2  and  C_7
REMARK    2  A    between atoms: N_4  and  C_18
REMARK    3  A    between atoms: C_18  and  C_19
REMARK                            x       y       z     vdW  Elec       q    Type
REMARK                         _______ _______ _______ _____ _____    ______ ____
ROOT
ATOM      1  O   UNL     1      11.342   9.711   6.575  0.00  0.00    -0.252 OA
ATOM      2  N   UNL     1      12.229   7.526   6.662  0.00  0.00    -0.281 N 
ATOM      3  N   UNL     1      13.647   9.260   6.493  0.00  0.00    -0.278 N 
ATOM      4  N   UNL     1      16.326   9.426   5.654  0.00  0.00    -0.295 NA
ATOM      6  C   UNL     1      14.504   8.103   6.648  0.00  0.00    +0.109 C 
ATOM      8  C   UNL     1      13.543   6.922   6.529  0.00  0.00    +0.133 C 
ATOM      9  C   UNL     1      15.622   8.128   5.607  0.00  0.00    +0.109 C 
ATOM     12  C   UNL     1      12.287   8.933   6.581  0.00  0.00    +0.305 C 
ATOM     13  C   UNL     1      14.243  10.574   6.378  0.00  0.00    +0.125 C 
ATOM     14  C   UNL     1      15.396  10.538   5.371  0.00  0.00    +0.104 C 
ENDROOT
BRANCH   2   7
ATOM      7  C   UNL     1      11.023   6.734   6.715  0.00  0.00    +0.078 C 
ATOM     10  C   UNL     1      10.984   5.905   8.001  0.00  0.00    +0.022 C 
ATOM     11  C   UNL     1      10.905   5.845   5.475  0.00  0.00    +0.022 C 
ATOM     15  C   UNL     1       9.744   5.016   8.058  0.00  0.00    +0.002 C 
ATOM     16  C   UNL     1       9.665   4.957   5.535  0.00  0.00    +0.002 C 
ATOM     17  C   UNL     1       9.625   4.133   6.819  0.00  0.00    +0.000 C 
ENDBRANCH   2   7
BRANCH   4  18
ATOM     18  C   UNL     1      17.437   9.437   4.703  0.00  0.00    +0.121 C 
BRANCH  18  19
ATOM      5  N   UNL     1      20.568   7.333   5.030  0.00  0.00    -0.263 NA
ATOM     19  C   UNL     1      18.682   8.825   5.288  0.00  0.00    -0.015 A 
ATOM     20  C   UNL     1      19.104   9.148   6.572  0.00  0.00    +0.008 A 
ATOM     21  C   UNL     1      19.441   7.920   4.564  0.00  0.00    +0.115 A 
ATOM     22  C   UNL     1      20.257   8.564   7.087  0.00  0.00    +0.020 A 
ATOM     23  C   UNL     1      20.947   7.672   6.282  0.00  0.00    +0.111 A 
ENDBRANCH  18  19
ENDBRANCH   4  18
TORSDOF 3
ENDMDL
MODEL 8
REMARK VINA RESULT:      -5.6     28.361     31.309
REMARK  Name = 75537127
REMARK  3 active torsions:
REMARK  status: ('A' for Active; 'I' for Inactive)
REMARK    1  A    between atoms: N_2  and  C_7
REMARK    2  A    between atoms: N_4  and  C_18
REMARK    3  A    between atoms: C_18  and  C_19
REMARK                            x       y       z     vdW  Elec       q    Type
REMARK                         _______ _______ _______ _____ _____    ______ ____
ROOT
ATOM      1  O   UNL     1      -6.016 -11.288   7.518  0.00  0.00    -0.252 OA
ATOM      2  N   UNL     1      -5.648  -9.838   9.343  0.00  0.00    -0.281 N 
ATOM      3  N   UNL     1      -7.571  -9.661   8.195  0.00  0.00    -0.278 N 
ATOM      4  N   UNL     1      -9.455  -7.583   7.987  0.00  0.00    -0.295 NA
ATOM      6  C   UNL     1      -7.720  -8.735   9.299  0.00  0.00    +0.109 C 
ATOM      8  C   UNL     1      -6.329  -8.697   9.930  0.00  0.00    +0.133 C 
ATOM      9  C   UNL     1      -8.233  -7.387   8.795  0.00  0.00    +0.109 C 
ATOM     12  C   UNL     1      -6.370 -10.381   8.260  0.00  0.00    +0.305 C 
ATOM     13  C   UNL     1      -8.657  -9.820   7.251  0.00  0.00    +0.125 C 
ATOM     14  C   UNL     1      -9.180  -8.446   6.821  0.00  0.00    +0.104 C 
ENDROOT
BRANCH   2   7
ATOM      7  C   UNL     1      -4.323 -10.234   9.755  0.00  0.00    +0.078 C 
ATOM     10  C   UNL     1      -4.399 -11.329  10.822  0.00  0.00    +0.022 C 
ATOM     11  C   UNL     1      -3.528  -9.025  10.254  0.00  0.00    +0.022 C 
ATOM     15  C   UNL     1      -3.012 -11.730  11.315  0.00  0.00    +0.002 C 
ATOM     16  C   UNL     1      -2.141  -9.430  10.747  0.00  0.00    +0.002 C 
ATOM     17  C   UNL     1      -2.218 -10.523  11.809  0.00  0.00    +0.000 C 
ENDBRANCH   2   7
BRANCH   4  18
ATOM     18  C   UNL     1      -9.989  -6.293   7.551  0.00  0.00    +0.121 C 
BRANCH  18  19
ATOM      5  N   UNL     1     -12.233  -5.696  10.541  0.00  0.00    -0.263 NA
ATOM     19  C   UNL     1     -10.717  -5.583   8.661  0.00  0.00    -0.015 A 
ATOM     20  C   UNL     1     -10.575  -4.213   8.849  0.00  0.00    +0.008 A 
ATOM     21  C   UNL     1     -11.550  -6.273   9.526  0.00  0.00    +0.115 A 
ATOM     22  C   UNL     1     -11.261  -3.583   9.882  0.00  0.00    +0.020 A 
ATOM     23  C   UNL     1     -12.070  -4.363  10.693  0.00  0.00    +0.111 A 
ENDBRANCH  18  19
ENDBRANCH   4  18
TORSDOF 3
ENDMDL
MODEL 9
REMARK VINA RESULT:      -5.5     30.343     33.095
REMARK  Name = 75537127
REMARK  3 active torsions:
REMARK  status: ('A' for Active; 'I' for Inactive)
REMARK    1  A    between atoms: N_2  and  C_7
REMARK    2  A    between atoms: N_4  and  C_18
REMARK    3  A    between atoms: C_18  and  C_19
REMARK                            x       y       z     vdW  Elec       q    Type
REMARK                         _______ _______ _______ _____ _____    ______ ____
ROOT
ATOM      1  O   UNL     1     -12.555  -7.741  12.810  0.00  0.00    -0.252 OA
ATOM      2  N   UNL     1     -11.919  -6.017  14.290  0.00  0.00    -0.281 N 
ATOM      3  N   UNL     1     -11.141  -8.093  14.654  0.00  0.00    -0.278 N 
ATOM      4  N   UNL     1     -10.071  -9.329  16.943  0.00  0.00    -0.295 NA
ATOM      6  C   UNL     1     -10.473  -7.276  15.645  0.00  0.00    +0.109 C 
ATOM      8  C   UNL     1     -11.179  -5.925  15.537  0.00  0.00    +0.133 C 
ATOM      9  C   UNL     1     -10.557  -7.935  17.021  0.00  0.00    +0.109 C 
ATOM     12  C   UNL     1     -11.945  -7.335  13.791  0.00  0.00    +0.305 C 
ATOM     13  C   UNL     1     -10.849  -9.509  14.588  0.00  0.00    +0.125 C 
ATOM     14  C   UNL     1     -10.884 -10.116  15.994  0.00  0.00    +0.104 C 
ENDROOT
BRANCH   2   7
ATOM      7  C   UNL     1     -12.650  -4.897  13.749  0.00  0.00    +0.078 C 
ATOM     10  C   UNL     1     -14.143  -5.220  13.667  0.00  0.00    +0.022 C 
ATOM     11  C   UNL     1     -12.091  -4.496  12.382  0.00  0.00    +0.022 C 
ATOM     15  C   UNL     1     -14.934  -4.070  13.048  0.00  0.00    +0.002 C 
ATOM     16  C   UNL     1     -12.884  -3.346  11.765  0.00  0.00    +0.002 C 
ATOM     17  C   UNL     1     -14.373  -3.669  11.686  0.00  0.00    +0.000 C 
ENDBRANCH   2   7
BRANCH   4  18
ATOM     18  C   UNL     1     -10.090  -9.949  18.267  0.00  0.00    +0.121 C 
BRANCH  18  19
ATOM      5  N   UNL     1      -7.453 -12.056  19.981  0.00  0.00    -0.263 NA
ATOM     19  C   UNL     1      -8.746 -10.513  18.642  0.00  0.00    -0.015 A 
ATOM     20  C   UNL     1      -7.581 -10.049  18.040  0.00  0.00    +0.008 A 
ATOM     21  C   UNL     1      -8.629 -11.509  19.598  0.00  0.00    +0.115 A 
ATOM     22  C   UNL     1      -6.352 -10.587  18.409  0.00  0.00    +0.020 A 
ATOM     23  C   UNL     1      -6.343 -11.580  19.374  0.00  0.00    +0.111 A 
ENDBRANCH  18  19
ENDBRANCH   4  18
TORSDOF 3
ENDMDL
MODEL 10
REMARK VINA RESULT:      -5.5     25.599     26.598
REMARK  Name = 75537127
REMARK  3 active torsions:
REMARK  status: ('A' for Active; 'I' for Inactive)
REMARK    1  A    between atoms: N_2  and  C_7
REMARK    2  A    between atoms: N_4  and  C_18
REMARK    3  A    between atoms: C_18  and  C_19
REMARK                            x       y       z     vdW  Elec       q    Type
REMARK                         _______ _______ _______ _____ _____    ______ ____
ROOT
ATOM      1  O   UNL     1      -0.576  10.365  38.751  0.00  0.00    -0.252 OA
ATOM      2  N   UNL     1      -1.946   8.513  38.242  0.00  0.00    -0.281 N 
ATOM      3  N   UNL     1      -2.287  10.441  37.142  0.00  0.00    -0.278 N 
ATOM      4  N   UNL     1      -4.495  11.424  35.703  0.00  0.00    -0.295 NA
ATOM      6  C   UNL     1      -3.190   9.500  36.513  0.00  0.00    +0.109 C 
ATOM      8  C   UNL     1      -3.116   8.269  37.415  0.00  0.00    +0.133 C 
ATOM      9  C   UNL     1      -4.584  10.112  36.377  0.00  0.00    +0.109 C 
ATOM     12  C   UNL     1      -1.485   9.839  38.121  0.00  0.00    +0.305 C 
ATOM     13  C   UNL     1      -2.229  11.803  36.654  0.00  0.00    +0.125 C 
ATOM     14  C   UNL     1      -3.647  12.354  36.474  0.00  0.00    +0.104 C 
ENDROOT
BRANCH   2   7
ATOM      7  C   UNL     1      -1.449   7.529  39.173  0.00  0.00    +0.078 C 
ATOM     10  C   UNL     1      -0.479   6.572  38.475  0.00  0.00    +0.022 C 
ATOM     11  C   UNL     1      -2.605   6.769  39.828  0.00  0.00    +0.022 C 
ATOM     15  C   UNL     1       0.022   5.488  39.424  0.00  0.00    +0.002 C 
ATOM     16  C   UNL     1      -2.101   5.685  40.777  0.00  0.00    +0.002 C 
ATOM     17  C   UNL     1      -1.132   4.734  40.079  0.00  0.00    +0.000 C 
ENDBRANCH   2   7
BRANCH   4  18
ATOM     18  C   UNL     1      -5.830  11.989  35.513  0.00  0.00    +0.121 C 
BRANCH  18  19
ATOM      5  N   UNL     1      -5.377  12.699  31.822  0.00  0.00    -0.263 NA
ATOM     19  C   UNL     1      -6.150  12.195  34.056  0.00  0.00    -0.015 A 
ATOM     20  C   UNL     1      -7.455  12.087  33.588  0.00  0.00    +0.008 A 
ATOM     21  C   UNL     1      -5.156  12.501  33.142  0.00  0.00    +0.115 A 
ATOM     22  C   UNL     1      -7.722  12.284  32.237  0.00  0.00    +0.020 A 
ATOM     23  C   UNL     1      -6.657  12.585  31.404  0.00  0.00    +0.111 A 
ENDBRANCH  18  19
ENDBRANCH   4  18
TORSDOF 3
ENDMDL
