MODEL 1
REMARK VINA RESULT:      -6.7      0.000      0.000
REMARK  Name = 11866332
REMARK  6 active torsions:
REMARK  status: ('A' for Active; 'I' for Inactive)
REMARK    1  A    between atoms: O_1  and  C_10
REMARK    2  A    between atoms: O_2  and  C_11
REMARK    3  A    between atoms: N_6  and  C_16
REMARK    4  A    between atoms: N_7  and  C_12
REMARK    5  A    between atoms: C_14  and  C_19
REMARK    6  A    between atoms: C_22  and  C_23
REMARK                            x       y       z     vdW  Elec       q    Type
REMARK                         _______ _______ _______ _____ _____    ______ ____
ROOT
ATOM     10  C   UNL     1     -17.077   1.741  26.496  0.00  0.00    +0.167 C 
ATOM     11  C   UNL     1     -17.519   1.043  27.788  0.00  0.00    +0.149 C 
ATOM     12  C   UNL     1     -16.560   3.165  26.773  0.00  0.00    +0.128 C 
ATOM     13  C   UNL     1     -16.397   1.008  28.840  0.00  0.00    +0.074 C 
ATOM     14  C   UNL     1     -15.580   2.268  28.883  0.00  0.00    +0.015 C 
ATOM     15  C   UNL     1     -15.648   3.246  27.969  0.00  0.00    +0.006 C 
ENDROOT
BRANCH  14  19
ATOM      3  O   UNL     1     -13.605   1.823  30.075  0.00  0.00    -0.271 OA
ATOM      6  N   UNL     1     -15.113   3.382  30.930  0.00  0.00    -0.300 N 
ATOM     19  C   UNL     1     -14.660   2.455  30.008  0.00  0.00    +0.241 C 
ATOM     28  H   UNL     1     -16.003   3.848  30.800  0.00  0.00    +0.150 HD
BRANCH   6  16
ATOM      4  O   UNL     1     -15.161   1.636  33.033  0.00  0.00    -0.274 OA
ATOM      8  N   UNL     1     -14.776   3.326  34.521  0.00  0.00    -0.314 N 
ATOM     16  C   UNL     1     -14.381   3.731  32.120  0.00  0.00    +0.159 C 
ATOM     17  C   UNL     1     -14.525   5.215  32.428  0.00  0.00    +0.033 C 
ATOM     18  C   UNL     1     -13.892   5.518  33.777  0.00  0.00    +0.021 C 
ATOM     20  C   UNL     1     -14.615   4.730  34.852  0.00  0.00    +0.104 C 
ATOM     21  C   UNL     1     -14.844   2.809  33.243  0.00  0.00    +0.233 C 
ATOM     30  H   UNL     1     -15.027   2.702  35.282  0.00  0.00    +0.149 HD
ENDBRANCH   6  16
ENDBRANCH  14  19
BRANCH  12   7
ATOM      5  O   UNL     1     -17.560   5.169  24.977  0.00  0.00    -0.270 OA
ATOM      7  N   UNL     1     -15.875   3.715  25.628  0.00  0.00    -0.302 N 
ATOM     22  C   UNL     1     -16.443   4.685  24.815  0.00  0.00    +0.246 C 
ATOM     29  H   UNL     1     -14.988   3.291  25.374  0.00  0.00    +0.150 HD
BRANCH  22  23
ATOM      9  N   UNL     1     -15.472   6.388  21.636  0.00  0.00    -0.263 NA
ATOM     23  C   UNL     1     -15.620   5.129  23.661  0.00  0.00    +0.055 A 
ATOM     24  C   UNL     1     -14.315   4.713  23.551  0.00  0.00    +0.016 A 
ATOM     25  C   UNL     1     -16.164   5.949  22.710  0.00  0.00    +0.123 A 
ATOM     26  C   UNL     1     -13.570   5.145  22.459  0.00  0.00    +0.020 A 
ATOM     27  C   UNL     1     -14.189   5.974  21.538  0.00  0.00    +0.111 A 
ENDBRANCH  22  23
ENDBRANCH  12   7
BRANCH  10   1
ATOM      1  O   UNL     1     -16.043   0.966  25.885  0.00  0.00    -0.387 OA
ATOM     31  H   UNL     1     -15.697   0.357  26.560  0.00  0.00    +0.210 HD
ENDBRANCH  10   1
BRANCH  11   2
ATOM      2  O   UNL     1     -18.673   1.687  28.324  0.00  0.00    -0.389 OA
ATOM     32  H   UNL     1     -19.311   0.994  28.566  0.00  0.00    +0.210 HD
ENDBRANCH  11   2
TORSDOF 6
ENDMDL
MODEL 2
REMARK VINA RESULT:      -6.7     33.460     36.056
REMARK  Name = 11866332
REMARK  6 active torsions:
REMARK  status: ('A' for Active; 'I' for Inactive)
REMARK    1  A    between atoms: O_1  and  C_10
REMARK    2  A    between atoms: O_2  and  C_11
REMARK    3  A    between atoms: N_6  and  C_16
REMARK    4  A    between atoms: N_7  and  C_12
REMARK    5  A    between atoms: C_14  and  C_19
REMARK    6  A    between atoms: C_22  and  C_23
REMARK                            x       y       z     vdW  Elec       q    Type
REMARK                         _______ _______ _______ _____ _____    ______ ____
ROOT
ATOM     10  C   UNL     1      20.788   8.000  21.686  0.00  0.00    +0.167 C 
ATOM     11  C   UNL     1      19.599   8.929  21.966  0.00  0.00    +0.149 C 
ATOM     12  C   UNL     1      20.366   6.519  21.713  0.00  0.00    +0.128 C 
ATOM     13  C   UNL     1      18.435   8.688  20.990  0.00  0.00    +0.074 C 
ATOM     14  C   UNL     1      18.222   7.237  20.661  0.00  0.00    +0.015 C 
ATOM     15  C   UNL     1      19.074   6.254  20.986  0.00  0.00    +0.006 C 
ENDROOT
BRANCH  14  19
ATOM      3  O   UNL     1      16.993   5.960  19.120  0.00  0.00    -0.271 OA
ATOM      6  N   UNL     1      15.899   7.621  20.335  0.00  0.00    -0.300 N 
ATOM     19  C   UNL     1      16.993   6.863  19.956  0.00  0.00    +0.241 C 
ATOM     28  H   UNL     1      15.994   8.356  21.026  0.00  0.00    +0.150 HD
BRANCH   6  16
ATOM      4  O   UNL     1      14.952   9.522  18.614  0.00  0.00    -0.274 OA
ATOM      8  N   UNL     1      12.790   9.008  19.142  0.00  0.00    -0.314 N 
ATOM     16  C   UNL     1      14.584   7.439  19.778  0.00  0.00    +0.159 C 
ATOM     17  C   UNL     1      13.624   6.889  20.824  0.00  0.00    +0.033 C 
ATOM     18  C   UNL     1      12.212   6.873  20.260  0.00  0.00    +0.021 C 
ATOM     20  C   UNL     1      11.797   8.293  19.922  0.00  0.00    +0.104 C 
ATOM     21  C   UNL     1      14.149   8.763  19.160  0.00  0.00    +0.233 C 
ATOM     30  H   UNL     1      12.484   9.859  18.682  0.00  0.00    +0.149 HD
ENDBRANCH   6  16
ENDBRANCH  14  19
BRANCH  12   7
ATOM      5  O   UNL     1      21.755   4.419  23.090  0.00  0.00    -0.270 OA
ATOM      7  N   UNL     1      21.391   5.664  21.169  0.00  0.00    -0.302 N 
ATOM     22  C   UNL     1      22.008   4.671  21.915  0.00  0.00    +0.246 C 
ATOM     29  H   UNL     1      21.722   5.879  20.233  0.00  0.00    +0.150 HD
BRANCH  22  23
ATOM      9  N   UNL     1      24.837   3.856  19.617  0.00  0.00    -0.263 NA
ATOM     23  C   UNL     1      23.063   3.893  21.217  0.00  0.00    +0.055 A 
ATOM     24  C   UNL     1      23.235   2.560  21.505  0.00  0.00    +0.016 A 
ATOM     25  C   UNL     1      23.860   4.505  20.288  0.00  0.00    +0.123 A 
ATOM     26  C   UNL     1      24.230   1.858  20.834  0.00  0.00    +0.020 A 
ATOM     27  C   UNL     1      24.998   2.545  19.908  0.00  0.00    +0.111 A 
ENDBRANCH  22  23
ENDBRANCH  12   7
BRANCH  10   1
ATOM      1  O   UNL     1      21.329   8.321  20.403  0.00  0.00    -0.387 OA
ATOM     31  H   UNL     1      22.298   8.307  20.483  0.00  0.00    +0.210 HD
ENDBRANCH  10   1
BRANCH  11   2
ATOM      2  O   UNL     1      19.153   8.764  23.311  0.00  0.00    -0.389 OA
ATOM     32  H   UNL     1      19.936   8.585  23.859  0.00  0.00    +0.210 HD
ENDBRANCH  11   2
TORSDOF 6
ENDMDL
MODEL 3
REMARK VINA RESULT:      -6.6      2.800      5.119
REMARK  Name = 11866332
REMARK  6 active torsions:
REMARK  status: ('A' for Active; 'I' for Inactive)
REMARK    1  A    between atoms: O_1  and  C_10
REMARK    2  A    between atoms: O_2  and  C_11
REMARK    3  A    between atoms: N_6  and  C_16
REMARK    4  A    between atoms: N_7  and  C_12
REMARK    5  A    between atoms: C_14  and  C_19
REMARK    6  A    between atoms: C_22  and  C_23
REMARK                            x       y       z     vdW  Elec       q    Type
REMARK                         _______ _______ _______ _____ _____    ______ ____
ROOT
ATOM     10  C   UNL     1     -14.306   1.777  31.019  0.00  0.00    +0.167 C 
ATOM     11  C   UNL     1     -13.928   1.885  32.502  0.00  0.00    +0.149 C 
ATOM     12  C   UNL     1     -15.578   2.584  30.700  0.00  0.00    +0.128 C 
ATOM     13  C   UNL     1     -13.759   3.346  32.951  0.00  0.00    +0.074 C 
ATOM     14  C   UNL     1     -14.766   4.279  32.340  0.00  0.00    +0.015 C 
ATOM     15  C   UNL     1     -15.593   3.949  31.337  0.00  0.00    +0.006 C 
ENDROOT
BRANCH  14  19
ATOM      3  O   UNL     1     -15.916   6.276  32.791  0.00  0.00    -0.271 OA
ATOM      6  N   UNL     1     -13.701   6.068  33.484  0.00  0.00    -0.300 N 
ATOM     19  C   UNL     1     -14.870   5.634  32.886  0.00  0.00    +0.241 C 
ATOM     28  H   UNL     1     -12.879   5.475  33.506  0.00  0.00    +0.150 HD
BRANCH   6  16
ATOM      4  O   UNL     1     -12.756   8.115  31.938  0.00  0.00    -0.274 OA
ATOM      8  N   UNL     1     -11.948   9.209  33.774  0.00  0.00    -0.314 N 
ATOM     16  C   UNL     1     -13.560   7.369  34.088  0.00  0.00    +0.159 C 
ATOM     17  C   UNL     1     -13.028   7.250  35.510  0.00  0.00    +0.033 C 
ATOM     18  C   UNL     1     -12.726   8.636  36.056  0.00  0.00    +0.021 C 
ATOM     20  C   UNL     1     -11.661   9.289  35.194  0.00  0.00    +0.104 C 
ATOM     21  C   UNL     1     -12.702   8.225  33.165  0.00  0.00    +0.233 C 
ATOM     30  H   UNL     1     -11.417   9.822  33.165  0.00  0.00    +0.149 HD
ENDBRANCH   6  16
ENDBRANCH  14  19
BRANCH  12   7
ATOM      5  O   UNL     1     -16.692   0.636  28.911  0.00  0.00    -0.270 OA
ATOM      7  N   UNL     1     -15.772   2.732  29.279  0.00  0.00    -0.302 N 
ATOM     22  C   UNL     1     -16.321   1.729  28.493  0.00  0.00    +0.246 C 
ATOM     29  H   UNL     1     -15.397   3.571  28.847  0.00  0.00    +0.150 HD
BRANCH  22  23
ATOM      9  N   UNL     1     -16.892   1.236  24.835  0.00  0.00    -0.263 NA
ATOM     23  C   UNL     1     -16.431   2.027  27.042  0.00  0.00    +0.055 A 
ATOM     24  C   UNL     1     -16.184   3.298  26.584  0.00  0.00    +0.016 A 
ATOM     25  C   UNL     1     -16.776   1.034  26.166  0.00  0.00    +0.123 A 
ATOM     26  C   UNL     1     -16.294   3.547  25.219  0.00  0.00    +0.020 A 
ATOM     27  C   UNL     1     -16.648   2.492  24.395  0.00  0.00    +0.111 A 
ENDBRANCH  22  23
ENDBRANCH  12   7
BRANCH  10   1
ATOM      1  O   UNL     1     -13.217   2.266  30.232  0.00  0.00    -0.387 OA
ATOM     31  H   UNL     1     -13.595   2.781  29.499  0.00  0.00    +0.210 HD
ENDBRANCH  10   1
BRANCH  11   2
ATOM      2  O   UNL     1     -14.911   1.235  33.307  0.00  0.00    -0.389 OA
ATOM     32  H   UNL     1     -14.443   0.646  33.922  0.00  0.00    +0.210 HD
ENDBRANCH  11   2
TORSDOF 6
ENDMDL
MODEL 4
REMARK VINA RESULT:      -6.6     33.615     38.401
REMARK  Name = 11866332
REMARK  6 active torsions:
REMARK  status: ('A' for Active; 'I' for Inactive)
REMARK    1  A    between atoms: O_1  and  C_10
REMARK    2  A    between atoms: O_2  and  C_11
REMARK    3  A    between atoms: N_6  and  C_16
REMARK    4  A    between atoms: N_7  and  C_12
REMARK    5  A    between atoms: C_14  and  C_19
REMARK    6  A    between atoms: C_22  and  C_23
REMARK                            x       y       z     vdW  Elec       q    Type
REMARK                         _______ _______ _______ _____ _____    ______ ____
ROOT
ATOM     10  C   UNL     1      13.370   7.450   4.033  0.00  0.00    +0.167 C 
ATOM     11  C   UNL     1      14.047   7.644   2.670  0.00  0.00    +0.149 C 
ATOM     12  C   UNL     1      12.030   6.702   3.896  0.00  0.00    +0.128 C 
ATOM     13  C   UNL     1      14.253   6.312   1.931  0.00  0.00    +0.074 C 
ATOM     14  C   UNL     1      13.106   5.355   2.095  0.00  0.00    +0.015 C 
ATOM     15  C   UNL     1      12.100   5.521   2.964  0.00  0.00    +0.006 C 
ENDROOT
BRANCH  14  19
ATOM      3  O   UNL     1      13.103   3.036   1.716  0.00  0.00    -0.271 OA
ATOM      6  N   UNL     1      12.999   4.479  -0.112  0.00  0.00    -0.300 N 
ATOM     19  C   UNL     1      13.070   4.169   1.235  0.00  0.00    +0.241 C 
ATOM     28  H   UNL     1      12.989   5.444  -0.421  0.00  0.00    +0.150 HD
BRANCH   6  16
ATOM      4  O   UNL     1      14.927   4.543  -2.048  0.00  0.00    -0.274 OA
ATOM      8  N   UNL     1      13.544   3.509  -3.544  0.00  0.00    -0.314 N 
ATOM     16  C   UNL     1      12.955   3.480  -1.149  0.00  0.00    +0.159 C 
ATOM     17  C   UNL     1      11.521   3.216  -1.586  0.00  0.00    +0.033 C 
ATOM     18  C   UNL     1      11.519   2.293  -2.794  0.00  0.00    +0.021 C 
ATOM     20  C   UNL     1      12.256   2.969  -3.935  0.00  0.00    +0.104 C 
ATOM     21  C   UNL     1      13.882   3.929  -2.273  0.00  0.00    +0.233 C 
ATOM     30  H   UNL     1      14.184   3.753  -4.292  0.00  0.00    +0.149 HD
ENDBRANCH   6  16
ENDBRANCH  14  19
BRANCH  12   7
ATOM      5  O   UNL     1       9.281   6.518   4.701  0.00  0.00    -0.270 OA
ATOM      7  N   UNL     1      11.535   6.258   5.176  0.00  0.00    -0.302 N 
ATOM     22  C   UNL     1      10.181   6.203   5.474  0.00  0.00    +0.246 C 
ATOM     29  H   UNL     1      12.225   6.076   5.899  0.00  0.00    +0.150 HD
BRANCH  22  23
ATOM      9  N   UNL     1       8.997   6.292   9.015  0.00  0.00    -0.263 NA
ATOM     23  C   UNL     1       9.835   5.748   6.845  0.00  0.00    +0.055 A 
ATOM     24  C   UNL     1      10.022   4.433   7.197  0.00  0.00    +0.016 A 
ATOM     25  C   UNL     1       9.331   6.639   7.752  0.00  0.00    +0.123 A 
ATOM     26  C   UNL     1       9.690   4.037   8.488  0.00  0.00    +0.020 A 
ATOM     27  C   UNL     1       9.185   4.996   9.351  0.00  0.00    +0.111 A 
ENDBRANCH  22  23
ENDBRANCH  12   7
BRANCH  10   1
ATOM      1  O   UNL     1      14.249   6.707   4.881  0.00  0.00    -0.387 OA
ATOM     31  H   UNL     1      13.822   5.854   5.068  0.00  0.00    +0.210 HD
ENDBRANCH  10   1
BRANCH  11   2
ATOM      2  O   UNL     1      13.281   8.538   1.865  0.00  0.00    -0.389 OA
ATOM     32  H   UNL     1      13.735   8.625   1.009  0.00  0.00    +0.210 HD
ENDBRANCH  11   2
TORSDOF 6
ENDMDL
MODEL 5
REMARK VINA RESULT:      -6.5     34.315     39.321
REMARK  Name = 11866332
REMARK  6 active torsions:
REMARK  status: ('A' for Active; 'I' for Inactive)
REMARK    1  A    between atoms: O_1  and  C_10
REMARK    2  A    between atoms: O_2  and  C_11
REMARK    3  A    between atoms: N_6  and  C_16
REMARK    4  A    between atoms: N_7  and  C_12
REMARK    5  A    between atoms: C_14  and  C_19
REMARK    6  A    between atoms: C_22  and  C_23
REMARK                            x       y       z     vdW  Elec       q    Type
REMARK                         _______ _______ _______ _____ _____    ______ ____
ROOT
ATOM     10  C   UNL     1      13.873   4.605   1.522  0.00  0.00    +0.167 C 
ATOM     11  C   UNL     1      14.220   4.553   0.028  0.00  0.00    +0.149 C 
ATOM     12  C   UNL     1      12.680   5.540   1.792  0.00  0.00    +0.128 C 
ATOM     13  C   UNL     1      13.014   4.141  -0.832  0.00  0.00    +0.074 C 
ATOM     14  C   UNL     1      11.715   4.730  -0.360  0.00  0.00    +0.015 C 
ATOM     15  C   UNL     1      11.553   5.367   0.808  0.00  0.00    +0.006 C 
ENDROOT
BRANCH  14  19
ATOM      3  O   UNL     1       9.413   4.833  -0.816  0.00  0.00    -0.271 OA
ATOM      6  N   UNL     1      10.881   4.273  -2.538  0.00  0.00    -0.300 N 
ATOM     19  C   UNL     1      10.549   4.623  -1.241  0.00  0.00    +0.241 C 
ATOM     28  H   UNL     1      11.845   4.107  -2.798  0.00  0.00    +0.150 HD
BRANCH   6  16
ATOM      4  O   UNL     1       9.835   1.779  -2.938  0.00  0.00    -0.274 OA
ATOM      8  N   UNL     1       9.389   2.252  -5.128  0.00  0.00    -0.314 N 
ATOM     16  C   UNL     1       9.903   4.104  -3.583  0.00  0.00    +0.159 C 
ATOM     17  C   UNL     1      10.279   4.921  -4.812  0.00  0.00    +0.033 C 
ATOM     18  C   UNL     1       9.330   4.588  -5.952  0.00  0.00    +0.021 C 
ATOM     20  C   UNL     1       9.460   3.115  -6.292  0.00  0.00    +0.104 C 
ATOM     21  C   UNL     1       9.748   2.610  -3.844  0.00  0.00    +0.233 C 
ATOM     30  H   UNL     1       9.227   1.265  -5.299  0.00  0.00    +0.149 HD
ENDBRANCH   6  16
ENDBRANCH  14  19
BRANCH  12   7
ATOM      5  O   UNL     1      11.698   7.607   3.525  0.00  0.00    -0.270 OA
ATOM      7  N   UNL     1      12.163   5.370   3.128  0.00  0.00    -0.302 N 
ATOM     22  C   UNL     1      11.709   6.435   3.892  0.00  0.00    +0.246 C 
ATOM     29  H   UNL     1      12.234   4.443   3.535  0.00  0.00    +0.150 HD
BRANCH  22  23
ATOM      9  N   UNL     1      11.489   6.351   7.620  0.00  0.00    -0.263 NA
ATOM     23  C   UNL     1      11.232   6.098   5.258  0.00  0.00    +0.055 A 
ATOM     24  C   UNL     1      10.150   5.267   5.419  0.00  0.00    +0.016 A 
ATOM     25  C   UNL     1      11.871   6.617   6.351  0.00  0.00    +0.123 A 
ATOM     26  C   UNL     1       9.727   4.969   6.710  0.00  0.00    +0.020 A 
ATOM     27  C   UNL     1      10.423   5.531   7.767  0.00  0.00    +0.111 A 
ENDBRANCH  22  23
ENDBRANCH  12   7
BRANCH  10   1
ATOM      1  O   UNL     1      13.557   3.283   1.965  0.00  0.00    -0.387 OA
ATOM     31  H   UNL     1      14.269   2.695   1.660  0.00  0.00    +0.210 HD
ENDBRANCH  10   1
BRANCH  11   2
ATOM      2  O   UNL     1      14.721   5.818  -0.403  0.00  0.00    -0.389 OA
ATOM     32  H   UNL     1      15.147   6.241   0.361  0.00  0.00    +0.210 HD
ENDBRANCH  11   2
TORSDOF 6
ENDMDL
MODEL 6
REMARK VINA RESULT:      -6.4      2.172      8.093
REMARK  Name = 11866332
REMARK  6 active torsions:
REMARK  status: ('A' for Active; 'I' for Inactive)
REMARK    1  A    between atoms: O_1  and  C_10
REMARK    2  A    between atoms: O_2  and  C_11
REMARK    3  A    between atoms: N_6  and  C_16
REMARK    4  A    between atoms: N_7  and  C_12
REMARK    5  A    between atoms: C_14  and  C_19
REMARK    6  A    between atoms: C_22  and  C_23
REMARK                            x       y       z     vdW  Elec       q    Type
REMARK                         _______ _______ _______ _____ _____    ______ ____
ROOT
ATOM     10  C   UNL     1     -14.090   0.948  31.783  0.00  0.00    +0.167 C 
ATOM     11  C   UNL     1     -14.649  -0.170  30.893  0.00  0.00    +0.149 C 
ATOM     12  C   UNL     1     -13.727   2.197  30.959  0.00  0.00    +0.128 C 
ATOM     13  C   UNL     1     -15.861   0.297  30.071  0.00  0.00    +0.074 C 
ATOM     14  C   UNL     1     -15.728   1.702  29.555  0.00  0.00    +0.015 C 
ATOM     15  C   UNL     1     -14.772   2.561  29.937  0.00  0.00    +0.006 C 
ENDROOT
BRANCH  14  19
ATOM      3  O   UNL     1     -17.879   2.313  28.836  0.00  0.00    -0.271 OA
ATOM      6  N   UNL     1     -16.116   2.388  27.313  0.00  0.00    -0.300 N 
ATOM     19  C   UNL     1     -16.691   2.162  28.551  0.00  0.00    +0.241 C 
ATOM     28  H   UNL     1     -15.127   2.225  27.164  0.00  0.00    +0.150 HD
BRANCH   6  16
ATOM      4  O   UNL     1     -16.567   0.617  25.281  0.00  0.00    -0.274 OA
ATOM      8  N   UNL     1     -16.749   2.314  23.762  0.00  0.00    -0.314 N 
ATOM     16  C   UNL     1     -16.864   2.842  26.169  0.00  0.00    +0.159 C 
ATOM     17  C   UNL     1     -16.471   4.265  25.795  0.00  0.00    +0.033 C 
ATOM     18  C   UNL     1     -17.143   4.651  24.487  0.00  0.00    +0.021 C 
ATOM     20  C   UNL     1     -16.670   3.714  23.390  0.00  0.00    +0.104 C 
ATOM     21  C   UNL     1     -16.675   1.823  25.050  0.00  0.00    +0.233 C 
ATOM     30  H   UNL     1     -16.682   1.637  23.009  0.00  0.00    +0.149 HD
ENDBRANCH   6  16
ENDBRANCH  14  19
BRANCH  12   7
ATOM      5  O   UNL     1     -15.707   3.922  32.118  0.00  0.00    -0.270 OA
ATOM      7  N   UNL     1     -13.485   3.341  31.804  0.00  0.00    -0.302 N 
ATOM     22  C   UNL     1     -14.512   4.118  32.319  0.00  0.00    +0.246 C 
ATOM     29  H   UNL     1     -12.517   3.623  31.931  0.00  0.00    +0.150 HD
BRANCH  22  23
ATOM      9  N   UNL     1     -13.720   6.184  35.328  0.00  0.00    -0.263 NA
ATOM     23  C   UNL     1     -14.095   5.277  33.150  0.00  0.00    +0.055 A 
ATOM     24  C   UNL     1     -13.721   6.453  32.546  0.00  0.00    +0.016 A 
ATOM     25  C   UNL     1     -14.087   5.170  34.514  0.00  0.00    +0.123 A 
ATOM     26  C   UNL     1     -13.336   7.520  33.350  0.00  0.00    +0.020 A 
ATOM     27  C   UNL     1     -13.353   7.337  34.723  0.00  0.00    +0.111 A 
ENDBRANCH  22  23
ENDBRANCH  12   7
BRANCH  10   1
ATOM      1  O   UNL     1     -15.072   1.289  32.763  0.00  0.00    -0.387 OA
ATOM     31  H   UNL     1     -14.610   1.411  33.610  0.00  0.00    +0.210 HD
ENDBRANCH  10   1
BRANCH  11   2
ATOM      2  O   UNL     1     -13.629  -0.663  30.026  0.00  0.00    -0.389 OA
ATOM     32  H   UNL     1     -14.021  -0.768  29.143  0.00  0.00    +0.210 HD
ENDBRANCH  11   2
TORSDOF 6
ENDMDL
MODEL 7
REMARK VINA RESULT:      -6.4     21.283     24.973
REMARK  Name = 11866332
REMARK  6 active torsions:
REMARK  status: ('A' for Active; 'I' for Inactive)
REMARK    1  A    between atoms: O_1  and  C_10
REMARK    2  A    between atoms: O_2  and  C_11
REMARK    3  A    between atoms: N_6  and  C_16
REMARK    4  A    between atoms: N_7  and  C_12
REMARK    5  A    between atoms: C_14  and  C_19
REMARK    6  A    between atoms: C_22  and  C_23
REMARK                            x       y       z     vdW  Elec       q    Type
REMARK                         _______ _______ _______ _____ _____    ______ ____
ROOT
ATOM     10  C   UNL     1      -3.322 -13.004  13.887  0.00  0.00    +0.167 C 
ATOM     11  C   UNL     1      -2.456 -13.372  12.675  0.00  0.00    +0.149 C 
ATOM     12  C   UNL     1      -3.294 -11.488  14.160  0.00  0.00    +0.128 C 
ATOM     13  C   UNL     1      -2.867 -12.595  11.413  0.00  0.00    +0.074 C 
ATOM     14  C   UNL     1      -3.245 -11.167  11.688  0.00  0.00    +0.015 C 
ATOM     15  C   UNL     1      -3.431 -10.655  12.913  0.00  0.00    +0.006 C 
ENDROOT
BRANCH  14  19
ATOM      3  O   UNL     1      -2.622  -9.326  10.368  0.00  0.00    -0.271 OA
ATOM      6  N   UNL     1      -4.482 -10.586   9.744  0.00  0.00    -0.300 N 
ATOM     19  C   UNL     1      -3.401 -10.263  10.546  0.00  0.00    +0.241 C 
ATOM     28  H   UNL     1      -5.080 -11.370   9.973  0.00  0.00    +0.150 HD
BRANCH   6  16
ATOM      4  O   UNL     1      -6.033  -8.356  10.047  0.00  0.00    -0.274 OA
ATOM      8  N   UNL     1      -6.847  -8.560   7.922  0.00  0.00    -0.314 N 
ATOM     16  C   UNL     1      -4.839  -9.839   8.565  0.00  0.00    +0.159 C 
ATOM     17  C   UNL     1      -5.162 -10.776   7.409  0.00  0.00    +0.033 C 
ATOM     18  C   UNL     1      -5.701  -9.971   6.238  0.00  0.00    +0.021 C 
ATOM     20  C   UNL     1      -6.978  -9.269   6.663  0.00  0.00    +0.104 C 
ATOM     21  C   UNL     1      -5.969  -8.886   8.936  0.00  0.00    +0.233 C 
ATOM     30  H   UNL     1      -7.569  -7.882   8.142  0.00  0.00    +0.149 HD
ENDBRANCH   6  16
ENDBRANCH  14  19
BRANCH  12   7
ATOM      5  O   UNL     1      -2.959 -11.012  16.971  0.00  0.00    -0.270 OA
ATOM      7  N   UNL     1      -4.320 -11.098  15.096  0.00  0.00    -0.302 N 
ATOM     22  C   UNL     1      -4.061 -10.890  16.443  0.00  0.00    +0.246 C 
ATOM     29  H   UNL     1      -5.275 -11.075  14.750  0.00  0.00    +0.150 HD
BRANCH  22  23
ATOM      9  N   UNL     1      -7.384  -9.493  17.421  0.00  0.00    -0.263 NA
ATOM     23  C   UNL     1      -5.230 -10.517  17.280  0.00  0.00    +0.055 A 
ATOM     24  C   UNL     1      -5.241 -10.831  18.618  0.00  0.00    +0.016 A 
ATOM     25  C   UNL     1      -6.290  -9.862  16.717  0.00  0.00    +0.123 A 
ATOM     26  C   UNL     1      -6.350 -10.469  19.376  0.00  0.00    +0.020 A 
ATOM     27  C   UNL     1      -7.385  -9.808  18.736  0.00  0.00    +0.111 A 
ENDBRANCH  22  23
ENDBRANCH  12   7
BRANCH  10   1
ATOM      1  O   UNL     1      -4.665 -13.422  13.636  0.00  0.00    -0.387 OA
ATOM     31  H   UNL     1      -4.637 -14.362  13.389  0.00  0.00    +0.210 HD
ENDBRANCH  10   1
BRANCH  11   2
ATOM      2  O   UNL     1      -1.079 -13.140  12.966  0.00  0.00    -0.389 OA
ATOM     32  H   UNL     1      -0.554 -13.641  12.319  0.00  0.00    +0.210 HD
ENDBRANCH  11   2
TORSDOF 6
ENDMDL
MODEL 8
REMARK VINA RESULT:      -6.4     22.033     25.394
REMARK  Name = 11866332
REMARK  6 active torsions:
REMARK  status: ('A' for Active; 'I' for Inactive)
REMARK    1  A    between atoms: O_1  and  C_10
REMARK    2  A    between atoms: O_2  and  C_11
REMARK    3  A    between atoms: N_6  and  C_16
REMARK    4  A    between atoms: N_7  and  C_12
REMARK    5  A    between atoms: C_14  and  C_19
REMARK    6  A    between atoms: C_22  and  C_23
REMARK                            x       y       z     vdW  Elec       q    Type
REMARK                         _______ _______ _______ _____ _____    ______ ____
ROOT
ATOM     10  C   UNL     1      -2.383 -14.489  14.421  0.00  0.00    +0.167 C 
ATOM     11  C   UNL     1      -1.690 -14.972  13.140  0.00  0.00    +0.149 C 
ATOM     12  C   UNL     1      -2.703 -12.984  14.357  0.00  0.00    +0.128 C 
ATOM     13  C   UNL     1      -2.515 -14.656  11.881  0.00  0.00    +0.074 C 
ATOM     14  C   UNL     1      -3.196 -13.317  11.935  0.00  0.00    +0.015 C 
ATOM     15  C   UNL     1      -3.280 -12.554  13.034  0.00  0.00    +0.006 C 
ENDROOT
BRANCH  14  19
ATOM      3  O   UNL     1      -3.955 -13.524   9.721  0.00  0.00    -0.271 OA
ATOM      6  N   UNL     1      -4.124 -11.456  10.784  0.00  0.00    -0.300 N 
ATOM     19  C   UNL     1      -3.791 -12.797  10.701  0.00  0.00    +0.241 C 
ATOM     28  H   UNL     1      -3.942 -10.930  11.631  0.00  0.00    +0.150 HD
BRANCH   6  16
ATOM      4  O   UNL     1      -2.965  -9.099  10.028  0.00  0.00    -0.274 OA
ATOM      8  N   UNL     1      -4.950  -8.317   9.211  0.00  0.00    -0.314 N 
ATOM     16  C   UNL     1      -4.719 -10.724   9.697  0.00  0.00    +0.159 C 
ATOM     17  C   UNL     1      -6.239 -10.772   9.780  0.00  0.00    +0.033 C 
ATOM     18  C   UNL     1      -6.835  -9.850   8.728  0.00  0.00    +0.021 C 
ATOM     20  C   UNL     1      -6.381  -8.428   8.999  0.00  0.00    +0.104 C 
ATOM     21  C   UNL     1      -4.134  -9.316   9.702  0.00  0.00    +0.233 C 
ATOM     30  H   UNL     1      -4.551  -7.385   9.157  0.00  0.00    +0.149 HD
ENDBRANCH   6  16
ENDBRANCH  14  19
BRANCH  12   7
ATOM      5  O   UNL     1      -2.514 -10.620  15.973  0.00  0.00    -0.270 OA
ATOM      7  N   UNL     1      -3.605 -12.586  15.410  0.00  0.00    -0.302 N 
ATOM     22  C   UNL     1      -3.430 -11.419  16.140  0.00  0.00    +0.246 C 
ATOM     29  H   UNL     1      -4.329 -13.249  15.671  0.00  0.00    +0.150 HD
BRANCH  22  23
ATOM      9  N   UNL     1      -6.482 -10.133  17.866  0.00  0.00    -0.263 NA
ATOM     23  C   UNL     1      -4.430 -11.165  17.208  0.00  0.00    +0.055 A 
ATOM     24  C   UNL     1      -4.243 -11.696  18.461  0.00  0.00    +0.016 A 
ATOM     25  C   UNL     1      -5.535 -10.403  16.941  0.00  0.00    +0.123 A 
ATOM     26  C   UNL     1      -5.196 -11.441  19.441  0.00  0.00    +0.020 A 
ATOM     27  C   UNL     1      -6.288 -10.661  19.096  0.00  0.00    +0.111 A 
ENDBRANCH  22  23
ENDBRANCH  12   7
BRANCH  10   1
ATOM      1  O   UNL     1      -3.592 -15.230  14.596  0.00  0.00    -0.387 OA
ATOM     31  H   UNL     1      -3.718 -15.775  13.800  0.00  0.00    +0.210 HD
ENDBRANCH  10   1
BRANCH  11   2
ATOM      2  O   UNL     1      -0.392 -14.389  13.035  0.00  0.00    -0.389 OA
ATOM     32  H   UNL     1       0.256 -15.113  13.037  0.00  0.00    +0.210 HD
ENDBRANCH  11   2
TORSDOF 6
ENDMDL
MODEL 9
REMARK VINA RESULT:      -6.3     18.176     20.943
REMARK  Name = 11866332
REMARK  6 active torsions:
REMARK  status: ('A' for Active; 'I' for Inactive)
REMARK    1  A    between atoms: O_1  and  C_10
REMARK    2  A    between atoms: O_2  and  C_11
REMARK    3  A    between atoms: N_6  and  C_16
REMARK    4  A    between atoms: N_7  and  C_12
REMARK    5  A    between atoms: C_14  and  C_19
REMARK    6  A    between atoms: C_22  and  C_23
REMARK                            x       y       z     vdW  Elec       q    Type
REMARK                         _______ _______ _______ _____ _____    ______ ____
ROOT
ATOM     10  C   UNL     1      -8.507 -10.241  18.259  0.00  0.00    +0.167 C 
ATOM     11  C   UNL     1      -7.482 -11.060  19.054  0.00  0.00    +0.149 C 
ATOM     12  C   UNL     1      -7.820  -9.321  17.232  0.00  0.00    +0.128 C 
ATOM     13  C   UNL     1      -6.559 -11.880  18.136  0.00  0.00    +0.074 C 
ATOM     14  C   UNL     1      -6.163 -11.151  16.883  0.00  0.00    +0.015 C 
ATOM     15  C   UNL     1      -6.713 -10.000  16.471  0.00  0.00    +0.006 C 
ENDROOT
BRANCH  14  19
ATOM      3  O   UNL     1      -4.593 -12.812  16.341  0.00  0.00    -0.271 OA
ATOM      6  N   UNL     1      -4.732 -10.910  15.001  0.00  0.00    -0.300 N 
ATOM     19  C   UNL     1      -5.090 -11.720  16.064  0.00  0.00    +0.241 C 
ATOM     28  H   UNL     1      -5.188 -10.017  14.854  0.00  0.00    +0.150 HD
BRANCH   6  16
ATOM      4  O   UNL     1      -2.142 -10.328  15.652  0.00  0.00    -0.274 OA
ATOM      8  N   UNL     1      -1.552 -10.208  13.449  0.00  0.00    -0.314 N 
ATOM     16  C   UNL     1      -3.699 -11.257  14.059  0.00  0.00    +0.159 C 
ATOM     17  C   UNL     1      -4.151 -10.977  12.632  0.00  0.00    +0.033 C 
ATOM     18  C   UNL     1      -2.985 -11.186  11.679  0.00  0.00    +0.021 C 
ATOM     20  C   UNL     1      -1.874 -10.215  12.034  0.00  0.00    +0.104 C 
ATOM     21  C   UNL     1      -2.425 -10.527  14.469  0.00  0.00    +0.233 C 
ATOM     30  H   UNL     1      -0.674  -9.773  13.716  0.00  0.00    +0.149 HD
ENDBRANCH   6  16
ENDBRANCH  14  19
BRANCH  12   7
ATOM      5  O   UNL     1      -9.932  -7.463  17.806  0.00  0.00    -0.270 OA
ATOM      7  N   UNL     1      -8.766  -8.775  16.290  0.00  0.00    -0.302 N 
ATOM     22  C   UNL     1      -9.758  -7.878  16.663  0.00  0.00    +0.246 C 
ATOM     29  H   UNL     1      -8.746  -9.149  15.346  0.00  0.00    +0.150 HD
BRANCH  22  23
ATOM      9  N   UNL     1     -11.963  -7.989  13.651  0.00  0.00    -0.263 NA
ATOM     23  C   UNL     1     -10.669  -7.429  15.580  0.00  0.00    +0.055 A 
ATOM     24  C   UNL     1     -11.044  -6.110  15.505  0.00  0.00    +0.016 A 
ATOM     25  C   UNL     1     -11.133  -8.331  14.661  0.00  0.00    +0.123 A 
ATOM     26  C   UNL     1     -11.899  -5.719  14.479  0.00  0.00    +0.020 A 
ATOM     27  C   UNL     1     -12.326  -6.688  13.587  0.00  0.00    +0.111 A 
ENDBRANCH  22  23
ENDBRANCH  12   7
BRANCH  10   1
ATOM      1  O   UNL     1      -9.389 -11.140  17.583  0.00  0.00    -0.387 OA
ATOM     31  H   UNL     1      -9.779 -10.658  16.834  0.00  0.00    +0.210 HD
ENDBRANCH  10   1
BRANCH  11   2
ATOM      2  O   UNL     1      -6.706 -10.200  19.886  0.00  0.00    -0.389 OA
ATOM     32  H   UNL     1      -5.794 -10.538  19.888  0.00  0.00    +0.210 HD
ENDBRANCH  11   2
TORSDOF 6
ENDMDL
MODEL 10
REMARK VINA RESULT:      -6.3     18.872     21.360
REMARK  Name = 11866332
REMARK  6 active torsions:
REMARK  status: ('A' for Active; 'I' for Inactive)
REMARK    1  A    between atoms: O_1  and  C_10
REMARK    2  A    between atoms: O_2  and  C_11
REMARK    3  A    between atoms: N_6  and  C_16
REMARK    4  A    between atoms: N_7  and  C_12
REMARK    5  A    between atoms: C_14  and  C_19
REMARK    6  A    between atoms: C_22  and  C_23
REMARK                            x       y       z     vdW  Elec       q    Type
REMARK                         _______ _______ _______ _____ _____    ______ ____
ROOT
ATOM     10  C   UNL     1      -3.822 -11.160  16.516  0.00  0.00    +0.167 C 
ATOM     11  C   UNL     1      -4.149 -11.587  17.953  0.00  0.00    +0.149 C 
ATOM     12  C   UNL     1      -5.020 -11.380  15.575  0.00  0.00    +0.128 C 
ATOM     13  C   UNL     1      -5.395 -10.871  18.500  0.00  0.00    +0.074 C 
ATOM     14  C   UNL     1      -6.483 -10.701  17.477  0.00  0.00    +0.015 C 
ATOM     15  C   UNL     1      -6.332 -10.933  16.165  0.00  0.00    +0.006 C 
ENDROOT
BRANCH  14  19
ATOM      3  O   UNL     1      -8.183 -10.514  19.087  0.00  0.00    -0.271 OA
ATOM      6  N   UNL     1      -8.527  -9.599  16.972  0.00  0.00    -0.300 N 
ATOM     19  C   UNL     1      -7.805 -10.272  17.941  0.00  0.00    +0.241 C 
ATOM     28  H   UNL     1      -8.140  -9.453  16.046  0.00  0.00    +0.150 HD
BRANCH   6  16
ATOM      4  O   UNL     1     -10.649 -11.254  16.496  0.00  0.00    -0.274 OA
ATOM      8  N   UNL     1     -12.021  -9.474  16.081  0.00  0.00    -0.314 N 
ATOM     16  C   UNL     1      -9.854  -9.084  17.193  0.00  0.00    +0.159 C 
ATOM     17  C   UNL     1      -9.960  -7.641  16.720  0.00  0.00    +0.033 C 
ATOM     18  C   UNL     1     -11.408  -7.184  16.803  0.00  0.00    +0.021 C 
ATOM     20  C   UNL     1     -12.256  -8.055  15.895  0.00  0.00    +0.104 C 
ATOM     21  C   UNL     1     -10.843 -10.037  16.532  0.00  0.00    +0.233 C 
ATOM     30  H   UNL     1     -12.711 -10.107  15.691  0.00  0.00    +0.149 HD
ENDBRANCH   6  16
ENDBRANCH  14  19
BRANCH  12   7
ATOM      5  O   UNL     1      -3.676 -12.440  13.271  0.00  0.00    -0.270 OA
ATOM      7  N   UNL     1      -4.831 -10.717  14.308  0.00  0.00    -0.302 N 
ATOM     22  C   UNL     1      -4.164 -11.314  13.247  0.00  0.00    +0.246 C 
ATOM     29  H   UNL     1      -5.120  -9.745  14.248  0.00  0.00    +0.150 HD
BRANCH  22  23
ATOM      9  N   UNL     1      -5.096  -9.314  10.233  0.00  0.00    -0.263 NA
ATOM     23  C   UNL     1      -4.029 -10.490  12.019  0.00  0.00    +0.055 A 
ATOM     24  C   UNL     1      -2.780 -10.158  11.552  0.00  0.00    +0.016 A 
ATOM     25  C   UNL     1      -5.148 -10.065  11.356  0.00  0.00    +0.123 A 
ATOM     26  C   UNL     1      -2.685  -9.385  10.398  0.00  0.00    +0.020 A 
ATOM     27  C   UNL     1      -3.862  -8.992   9.783  0.00  0.00    +0.111 A 
ENDBRANCH  22  23
ENDBRANCH  12   7
BRANCH  10   1
ATOM      1  O   UNL     1      -3.462  -9.776  16.520  0.00  0.00    -0.387 OA
ATOM     31  H   UNL     1      -3.717  -9.411  17.384  0.00  0.00    +0.210 HD
ENDBRANCH  10   1
BRANCH  11   2
ATOM      2  O   UNL     1      -4.329 -13.001  18.015  0.00  0.00    -0.389 OA
ATOM     32  H   UNL     1      -4.197 -13.353  17.118  0.00  0.00    +0.210 HD
ENDBRANCH  11   2
TORSDOF 6
ENDMDL
