MODEL 1
REMARK VINA RESULT:      -6.9      0.000      0.000
REMARK  Name = 25313130
REMARK  8 active torsions:
REMARK  status: ('A' for Active; 'I' for Inactive)
REMARK    1  A    between atoms: O_3  and  C_21
REMARK    2  A    between atoms: N_6  and  C_14
REMARK    3  A    between atoms: N_7  and  C_23
REMARK    4  A    between atoms: C_8  and  C_12
REMARK    5  A    between atoms: C_9  and  C_15
REMARK    6  A    between atoms: C_12  and  C_14
REMARK    7  A    between atoms: C_15  and  C_21
REMARK    8  A    between atoms: C_20  and  C_22
REMARK                            x       y       z     vdW  Elec       q    Type
REMARK                         _______ _______ _______ _____ _____    ______ ____
ROOT
ATOM      2  O   UNL     1      21.221   9.336  23.846  0.00  0.00    -0.270 OA
ATOM      5  N   UNL     1      21.695   7.906  22.057  0.00  0.00    -0.297 N 
ATOM      8  C   UNL     1      21.030   6.029  20.571  0.00  0.00    +0.011 C 
ATOM      9  C   UNL     1      21.999   5.113  21.360  0.00  0.00    +0.006 C 
ATOM     10  C   UNL     1      21.502   7.491  20.660  0.00  0.00    +0.112 C 
ATOM     11  C   UNL     1      22.205   5.613  22.799  0.00  0.00    +0.023 C 
ATOM     13  C   UNL     1      22.629   7.080  22.819  0.00  0.00    +0.108 C 
ATOM     20  C   UNL     1      21.066   8.989  22.677  0.00  0.00    +0.247 C 
ENDROOT
BRANCH  20  22
ATOM      1  F   UNL     1      17.513  12.066  19.640  0.00  0.00    -0.205 F 
ATOM     22  C   UNL     1      20.136   9.796  21.880  0.00  0.00    +0.037 A 
ATOM     24  C   UNL     1      18.782   9.459  21.839  0.00  0.00    +0.016 A 
ATOM     25  C   UNL     1      20.603  10.897  21.164  0.00  0.00    +0.016 A 
ATOM     28  C   UNL     1      17.896  10.226  21.082  0.00  0.00    +0.039 A 
ATOM     29  C   UNL     1      19.717  11.663  20.407  0.00  0.00    +0.039 A 
ATOM     32  C   UNL     1      18.364  11.328  20.366  0.00  0.00    +0.123 A 
ENDBRANCH  20  22
BRANCH   8  12
ATOM     12  C   UNL     1      19.566   5.913  21.013  0.00  0.00    +0.020 C 
BRANCH  12  14
ATOM     14  C   UNL     1      18.656   5.667  19.818  0.00  0.00    +0.085 C 
BRANCH  14   6
ATOM      6  N   UNL     1      17.461   6.505  19.922  0.00  0.00    -0.299 NA
ATOM      7  N   UNL     1      14.687   7.051  20.327  0.00  0.00    -0.327 N 
ATOM     16  C   UNL     1      16.868   6.391  21.260  0.00  0.00    +0.103 C 
ATOM     17  C   UNL     1      16.474   6.124  18.905  0.00  0.00    +0.103 C 
ATOM     18  C   UNL     1      15.650   7.306  21.403  0.00  0.00    +0.120 C 
ATOM     19  C   UNL     1      15.243   7.031  18.968  0.00  0.00    +0.120 C 
BRANCH   7  23
ATOM     23  C   UNL     1      13.351   7.437  20.485  0.00  0.00    +0.030 A 
ATOM     26  C   UNL     1      12.835   8.488  19.729  0.00  0.00    +0.023 A 
ATOM     27  C   UNL     1      12.535   6.767  21.397  0.00  0.00    +0.023 A 
ATOM     30  C   UNL     1      11.503   8.871  19.883  0.00  0.00    +0.002 A 
ATOM     31  C   UNL     1      11.203   7.149  21.552  0.00  0.00    +0.002 A 
ATOM     33  C   UNL     1      10.686   8.202  20.795  0.00  0.00    +0.000 A 
ENDBRANCH   7  23
ENDBRANCH  14   6
ENDBRANCH  12  14
ENDBRANCH   8  12
BRANCH   9  15
ATOM     15  C   UNL     1      21.575   3.644  21.358  0.00  0.00    +0.124 C 
BRANCH  15  21
ATOM      4  O   UNL     1      23.569   2.594  22.286  0.00  0.00    -0.251 OA
ATOM     21  C   UNL     1      22.762   2.723  21.378  0.00  0.00    +0.305 C 
BRANCH  21   3
ATOM      3  O   UNL     1      22.822   2.027  20.213  0.00  0.00    -0.481 OA
ATOM     34  H   UNL     1      22.102   2.280  19.598  0.00  0.00    +0.295 HD
ENDBRANCH  21   3
ENDBRANCH  15  21
ENDBRANCH   9  15
TORSDOF 8
ENDMDL
MODEL 2
REMARK VINA RESULT:      -6.8     28.525     31.352
REMARK  Name = 25313130
REMARK  8 active torsions:
REMARK  status: ('A' for Active; 'I' for Inactive)
REMARK    1  A    between atoms: O_3  and  C_21
REMARK    2  A    between atoms: N_6  and  C_14
REMARK    3  A    between atoms: N_7  and  C_23
REMARK    4  A    between atoms: C_8  and  C_12
REMARK    5  A    between atoms: C_9  and  C_15
REMARK    6  A    between atoms: C_12  and  C_14
REMARK    7  A    between atoms: C_15  and  C_21
REMARK    8  A    between atoms: C_20  and  C_22
REMARK                            x       y       z     vdW  Elec       q    Type
REMARK                         _______ _______ _______ _____ _____    ______ ____
ROOT
ATOM      2  O   UNL     1      -1.450  -9.924  12.358  0.00  0.00    -0.270 OA
ATOM      5  N   UNL     1      -2.718 -11.291  13.770  0.00  0.00    -0.297 N 
ATOM      8  C   UNL     1      -4.633 -11.586  15.326  0.00  0.00    +0.011 C 
ATOM      9  C   UNL     1      -3.629 -11.560  16.506  0.00  0.00    +0.006 C 
ATOM     10  C   UNL     1      -3.930 -12.076  14.048  0.00  0.00    +0.112 C 
ATOM     11  C   UNL     1      -2.360 -10.768  16.151  0.00  0.00    +0.023 C 
ATOM     13  C   UNL     1      -1.737 -11.274  14.853  0.00  0.00    +0.108 C 
ATOM     20  C   UNL     1      -2.459 -10.586  12.592  0.00  0.00    +0.247 C 
ENDROOT
BRANCH  20  22
ATOM      1  F   UNL     1      -6.308 -10.744   8.533  0.00  0.00    -0.205 F 
ATOM     22  C   UNL     1      -3.468 -10.627  11.528  0.00  0.00    +0.037 A 
ATOM     24  C   UNL     1      -3.468 -11.676  10.608  0.00  0.00    +0.016 A 
ATOM     25  C   UNL     1      -4.426  -9.617  11.435  0.00  0.00    +0.016 A 
ATOM     28  C   UNL     1      -4.428 -11.715   9.596  0.00  0.00    +0.039 A 
ATOM     29  C   UNL     1      -5.385  -9.657  10.423  0.00  0.00    +0.039 A 
ATOM     32  C   UNL     1      -5.386 -10.706   9.504  0.00  0.00    +0.123 A 
ENDBRANCH  20  22
BRANCH   8  12
ATOM     12  C   UNL     1      -5.326 -10.241  15.071  0.00  0.00    +0.020 C 
BRANCH  12  14
ATOM     14  C   UNL     1      -6.589 -10.430  14.241  0.00  0.00    +0.085 C 
BRANCH  14   6
ATOM      6  N   UNL     1      -7.750  -9.942  14.984  0.00  0.00    -0.299 NA
ATOM      7  N   UNL     1      -9.750  -9.993  17.022  0.00  0.00    -0.327 N 
ATOM     16  C   UNL     1      -7.392  -9.683  16.384  0.00  0.00    +0.103 C 
ATOM     17  C   UNL     1      -8.848 -10.915  14.922  0.00  0.00    +0.103 C 
ATOM     18  C   UNL     1      -8.583  -9.117  17.161  0.00  0.00    +0.120 C 
ATOM     19  C   UNL     1     -10.088 -10.391  15.649  0.00  0.00    +0.120 C 
BRANCH   7  23
ATOM     23  C   UNL     1     -10.788  -9.923  17.960  0.00  0.00    +0.030 A 
ATOM     26  C   UNL     1     -10.519 -10.128  19.312  0.00  0.00    +0.023 A 
ATOM     27  C   UNL     1     -12.088  -9.644  17.541  0.00  0.00    +0.023 A 
ATOM     30  C   UNL     1     -11.552 -10.054  20.247  0.00  0.00    +0.002 A 
ATOM     31  C   UNL     1     -13.121  -9.571  18.475  0.00  0.00    +0.002 A 
ATOM     33  C   UNL     1     -12.853  -9.776  19.829  0.00  0.00    +0.000 A 
ENDBRANCH   7  23
ENDBRANCH  14   6
ENDBRANCH  12  14
ENDBRANCH   8  12
BRANCH   9  15
ATOM     15  C   UNL     1      -4.241 -11.040  17.807  0.00  0.00    +0.124 C 
BRANCH  15  21
ATOM      4  O   UNL     1      -3.320 -12.119  19.788  0.00  0.00    -0.251 OA
ATOM     21  C   UNL     1      -4.162 -12.063  18.905  0.00  0.00    +0.305 C 
BRANCH  21   3
ATOM      3  O   UNL     1      -5.186 -12.947  18.783  0.00  0.00    -0.481 OA
ATOM     34  H   UNL     1      -5.669 -12.833  17.938  0.00  0.00    +0.295 HD
ENDBRANCH  21   3
ENDBRANCH  15  21
ENDBRANCH   9  15
TORSDOF 8
ENDMDL
MODEL 3
REMARK VINA RESULT:      -6.5     28.485     31.512
REMARK  Name = 25313130
REMARK  8 active torsions:
REMARK  status: ('A' for Active; 'I' for Inactive)
REMARK    1  A    between atoms: O_3  and  C_21
REMARK    2  A    between atoms: N_6  and  C_14
REMARK    3  A    between atoms: N_7  and  C_23
REMARK    4  A    between atoms: C_8  and  C_12
REMARK    5  A    between atoms: C_9  and  C_15
REMARK    6  A    between atoms: C_12  and  C_14
REMARK    7  A    between atoms: C_15  and  C_21
REMARK    8  A    between atoms: C_20  and  C_22
REMARK                            x       y       z     vdW  Elec       q    Type
REMARK                         _______ _______ _______ _____ _____    ______ ____
ROOT
ATOM      2  O   UNL     1      -8.789 -11.379  18.092  0.00  0.00    -0.270 OA
ATOM      5  N   UNL     1      -6.789 -10.368  17.422  0.00  0.00    -0.297 N 
ATOM      8  C   UNL     1      -5.053  -9.979  15.687  0.00  0.00    +0.011 C 
ATOM      9  C   UNL     1      -4.125 -10.956  16.452  0.00  0.00    +0.006 C 
ATOM     10  C   UNL     1      -6.062  -9.343  16.660  0.00  0.00    +0.112 C 
ATOM     11  C   UNL     1      -4.930 -11.979  17.270  0.00  0.00    +0.023 C 
ATOM     13  C   UNL     1      -5.941 -11.286  18.180  0.00  0.00    +0.108 C 
ATOM     20  C   UNL     1      -8.177 -10.520  17.461  0.00  0.00    +0.247 C 
ENDROOT
BRANCH  20  22
ATOM      1  F   UNL     1     -11.297  -6.933  14.509  0.00  0.00    -0.205 F 
ATOM     22  C   UNL     1      -8.996  -9.580  16.687  0.00  0.00    +0.037 A 
ATOM     24  C   UNL     1      -9.461  -8.407  17.282  0.00  0.00    +0.016 A 
ATOM     25  C   UNL     1      -9.309  -9.859  15.356  0.00  0.00    +0.016 A 
ATOM     28  C   UNL     1     -10.239  -7.513  16.547  0.00  0.00    +0.039 A 
ATOM     29  C   UNL     1     -10.087  -8.965  14.622  0.00  0.00    +0.039 A 
ATOM     32  C   UNL     1     -10.552  -7.792  15.216  0.00  0.00    +0.123 A 
ENDBRANCH  20  22
BRANCH   8  12
ATOM     12  C   UNL     1      -5.787 -10.620  14.501  0.00  0.00    +0.020 C 
BRANCH  12  14
ATOM     14  C   UNL     1      -4.959 -10.512  13.229  0.00  0.00    +0.085 C 
BRANCH  14   6
ATOM      6  N   UNL     1      -5.621  -9.617  12.279  0.00  0.00    -0.299 NA
ATOM      7  N   UNL     1      -6.743  -8.850   9.767  0.00  0.00    -0.327 N 
ATOM     16  C   UNL     1      -6.888 -10.200  11.822  0.00  0.00    +0.103 C 
ATOM     17  C   UNL     1      -4.750  -9.352  11.128  0.00  0.00    +0.103 C 
ATOM     18  C   UNL     1      -7.620  -9.249  10.872  0.00  0.00    +0.120 C 
ATOM     19  C   UNL     1      -5.409  -8.372  10.155  0.00  0.00    +0.120 C 
BRANCH   7  23
ATOM     23  C   UNL     1      -7.299  -8.356   8.581  0.00  0.00    +0.030 A 
ATOM     26  C   UNL     1      -8.093  -7.210   8.609  0.00  0.00    +0.023 A 
ATOM     27  C   UNL     1      -7.058  -9.009   7.373  0.00  0.00    +0.023 A 
ATOM     30  C   UNL     1      -8.645  -6.715   7.427  0.00  0.00    +0.002 A 
ATOM     31  C   UNL     1      -7.610  -8.515   6.191  0.00  0.00    +0.002 A 
ATOM     33  C   UNL     1      -8.403  -7.368   6.218  0.00  0.00    +0.000 A 
ENDBRANCH   7  23
ENDBRANCH  14   6
ENDBRANCH  12  14
ENDBRANCH   8  12
BRANCH   9  15
ATOM     15  C   UNL     1      -3.119 -11.665  15.546  0.00  0.00    +0.124 C 
BRANCH  15  21
ATOM      4  O   UNL     1      -1.603 -10.137  14.402  0.00  0.00    -0.251 OA
ATOM     21  C   UNL     1      -1.870 -10.851  15.358  0.00  0.00    +0.305 C 
BRANCH  21   3
ATOM      3  O   UNL     1      -1.049 -11.016  16.427  0.00  0.00    -0.481 OA
ATOM     34  H   UNL     1      -1.312 -10.448  17.181  0.00  0.00    +0.295 HD
ENDBRANCH  21   3
ENDBRANCH  15  21
ENDBRANCH   9  15
TORSDOF 8
ENDMDL
MODEL 4
REMARK VINA RESULT:      -6.4     19.506     22.375
REMARK  Name = 25313130
REMARK  8 active torsions:
REMARK  status: ('A' for Active; 'I' for Inactive)
REMARK    1  A    between atoms: O_3  and  C_21
REMARK    2  A    between atoms: N_6  and  C_14
REMARK    3  A    between atoms: N_7  and  C_23
REMARK    4  A    between atoms: C_8  and  C_12
REMARK    5  A    between atoms: C_9  and  C_15
REMARK    6  A    between atoms: C_12  and  C_14
REMARK    7  A    between atoms: C_15  and  C_21
REMARK    8  A    between atoms: C_20  and  C_22
REMARK                            x       y       z     vdW  Elec       q    Type
REMARK                         _______ _______ _______ _____ _____    ______ ____
ROOT
ATOM      2  O   UNL     1      11.665   2.308  -2.180  0.00  0.00    -0.270 OA
ATOM      5  N   UNL     1      11.446   4.636  -2.236  0.00  0.00    -0.297 N 
ATOM      8  C   UNL     1      10.532   6.733  -1.266  0.00  0.00    +0.011 C 
ATOM      9  C   UNL     1       9.488   6.762  -2.411  0.00  0.00    +0.006 C 
ATOM     10  C   UNL     1      11.788   5.970  -1.721  0.00  0.00    +0.112 C 
ATOM     11  C   UNL     1       9.198   5.350  -2.948  0.00  0.00    +0.023 C 
ATOM     13  C   UNL     1      10.487   4.632  -3.339  0.00  0.00    +0.108 C 
ATOM     20  C   UNL     1      11.952   3.425  -1.756  0.00  0.00    +0.247 C 
ENDROOT
BRANCH  20  22
ATOM      1  F   UNL     1      15.616   3.597   2.470  0.00  0.00    -0.205 F 
ATOM     22  C   UNL     1      12.912   3.470  -0.648  0.00  0.00    +0.037 A 
ATOM     24  C   UNL     1      14.236   3.839  -0.888  0.00  0.00    +0.016 A 
ATOM     25  C   UNL     1      12.503   3.142   0.645  0.00  0.00    +0.016 A 
ATOM     28  C   UNL     1      15.150   3.882   0.165  0.00  0.00    +0.039 A 
ATOM     29  C   UNL     1      13.417   3.184   1.697  0.00  0.00    +0.039 A 
ATOM     32  C   UNL     1      14.740   3.554   1.458  0.00  0.00    +0.123 A 
ENDBRANCH  20  22
BRANCH   8  12
ATOM     12  C   UNL     1       9.997   6.148   0.047  0.00  0.00    +0.020 C 
BRANCH  12  14
ATOM     14  C   UNL     1      10.891   6.536   1.217  0.00  0.00    +0.085 C 
BRANCH  14   6
ATOM      6  N   UNL     1      10.184   6.313   2.478  0.00  0.00    -0.299 NA
ATOM      7  N   UNL     1       9.939   5.932   5.298  0.00  0.00    -0.327 N 
ATOM     16  C   UNL     1      10.416   7.430   3.402  0.00  0.00    +0.103 C 
ATOM     17  C   UNL     1      10.618   5.055   3.097  0.00  0.00    +0.103 C 
ATOM     18  C   UNL     1       9.635   7.238   4.704  0.00  0.00    +0.120 C 
ATOM     19  C   UNL     1       9.844   4.782   4.389  0.00  0.00    +0.120 C 
BRANCH   7  23
ATOM     23  C   UNL     1       9.698   5.714   6.660  0.00  0.00    +0.030 A 
ATOM     26  C   UNL     1       9.179   6.741   7.448  0.00  0.00    +0.023 A 
ATOM     27  C   UNL     1       9.973   4.470   7.226  0.00  0.00    +0.023 A 
ATOM     30  C   UNL     1       8.935   6.524   8.804  0.00  0.00    +0.002 A 
ATOM     31  C   UNL     1       9.730   4.252   8.582  0.00  0.00    +0.002 A 
ATOM     33  C   UNL     1       9.211   5.279   9.371  0.00  0.00    +0.000 A 
ENDBRANCH   7  23
ENDBRANCH  14   6
ENDBRANCH  12  14
ENDBRANCH   8  12
BRANCH   9  15
ATOM     15  C   UNL     1       8.188   7.467  -2.024  0.00  0.00    +0.124 C 
BRANCH  15  21
ATOM      4  O   UNL     1       6.190   7.268  -3.406  0.00  0.00    -0.251 OA
ATOM     21  C   UNL     1       7.312   7.714  -3.220  0.00  0.00    +0.305 C 
BRANCH  21   3
ATOM      3  O   UNL     1       7.954   8.527  -4.098  0.00  0.00    -0.481 OA
ATOM     34  H   UNL     1       7.620   9.448  -4.055  0.00  0.00    +0.295 HD
ENDBRANCH  21   3
ENDBRANCH  15  21
ENDBRANCH   9  15
TORSDOF 8
ENDMDL
MODEL 5
REMARK VINA RESULT:      -6.2     30.116     33.514
REMARK  Name = 25313130
REMARK  8 active torsions:
REMARK  status: ('A' for Active; 'I' for Inactive)
REMARK    1  A    between atoms: O_3  and  C_21
REMARK    2  A    between atoms: N_6  and  C_14
REMARK    3  A    between atoms: N_7  and  C_23
REMARK    4  A    between atoms: C_8  and  C_12
REMARK    5  A    between atoms: C_9  and  C_15
REMARK    6  A    between atoms: C_12  and  C_14
REMARK    7  A    between atoms: C_15  and  C_21
REMARK    8  A    between atoms: C_20  and  C_22
REMARK                            x       y       z     vdW  Elec       q    Type
REMARK                         _______ _______ _______ _____ _____    ______ ____
ROOT
ATOM      2  O   UNL     1      -6.578 -11.315  20.455  0.00  0.00    -0.270 OA
ATOM      5  N   UNL     1      -8.388 -11.469  18.981  0.00  0.00    -0.297 N 
ATOM      8  C   UNL     1     -10.036 -10.372  17.480  0.00  0.00    +0.011 C 
ATOM      9  C   UNL     1     -11.111 -10.572  18.578  0.00  0.00    +0.006 C 
ATOM     10  C   UNL     1      -8.939 -11.443  17.619  0.00  0.00    +0.112 C 
ATOM     11  C   UNL     1     -10.482 -10.640  19.980  0.00  0.00    +0.023 C 
ATOM     13  C   UNL     1      -9.374 -11.688  20.038  0.00  0.00    +0.108 C 
ATOM     20  C   UNL     1      -7.042 -11.299  19.317  0.00  0.00    +0.247 C 
ENDROOT
BRANCH  20  22
ATOM      1  F   UNL     1      -3.379 -10.467  15.169  0.00  0.00    -0.205 F 
ATOM     22  C   UNL     1      -6.082 -11.082  18.229  0.00  0.00    +0.037 A 
ATOM     24  C   UNL     1      -6.162  -9.928  17.449  0.00  0.00    +0.016 A 
ATOM     25  C   UNL     1      -5.090 -12.029  17.974  0.00  0.00    +0.016 A 
ATOM     28  C   UNL     1      -5.249  -9.720  16.416  0.00  0.00    +0.039 A 
ATOM     29  C   UNL     1      -4.178 -11.821  16.940  0.00  0.00    +0.039 A 
ATOM     32  C   UNL     1      -4.257 -10.667  16.161  0.00  0.00    +0.123 A 
ENDBRANCH  20  22
BRANCH   8  12
ATOM     12  C   UNL     1      -9.415  -8.970  17.466  0.00  0.00    +0.020 C 
BRANCH  12  14
ATOM     14  C   UNL     1      -9.314  -8.435  16.044  0.00  0.00    +0.085 C 
BRANCH  14   6
ATOM      6  N   UNL     1     -10.601  -7.872  15.633  0.00  0.00    -0.299 NA
ATOM      7  N   UNL     1     -12.384  -6.391  13.965  0.00  0.00    -0.327 N 
ATOM     16  C   UNL     1     -10.994  -8.393  14.319  0.00  0.00    +0.103 C 
ATOM     17  C   UNL     1     -10.529  -6.406  15.588  0.00  0.00    +0.103 C 
ATOM     18  C   UNL     1     -12.365  -7.856  13.902  0.00  0.00    +0.120 C 
ATOM     19  C   UNL     1     -11.885  -5.802  15.214  0.00  0.00    +0.120 C 
BRANCH   7  23
ATOM     23  C   UNL     1     -13.345  -5.676  13.240  0.00  0.00    +0.030 A 
ATOM     26  C   UNL     1     -14.275  -6.358  12.456  0.00  0.00    +0.023 A 
ATOM     27  C   UNL     1     -13.373  -4.284  13.304  0.00  0.00    +0.023 A 
ATOM     30  C   UNL     1     -15.235  -5.646  11.736  0.00  0.00    +0.002 A 
ATOM     31  C   UNL     1     -14.332  -3.572  12.584  0.00  0.00    +0.002 A 
ATOM     33  C   UNL     1     -15.264  -4.253  11.800  0.00  0.00    +0.000 A 
ENDBRANCH   7  23
ENDBRANCH  14   6
ENDBRANCH  12  14
ENDBRANCH   8  12
BRANCH   9  15
ATOM     15  C   UNL     1     -12.218  -9.518  18.536  0.00  0.00    +0.124 C 
BRANCH  15  21
ATOM      4  O   UNL     1     -13.449 -10.783  16.855  0.00  0.00    -0.251 OA
ATOM     21  C   UNL     1     -13.129  -9.716  17.357  0.00  0.00    +0.305 C 
BRANCH  21   3
ATOM      3  O   UNL     1     -13.566  -8.511  16.908  0.00  0.00    -0.481 OA
ATOM     34  H   UNL     1     -14.271  -8.141  17.481  0.00  0.00    +0.295 HD
ENDBRANCH  21   3
ENDBRANCH  15  21
ENDBRANCH   9  15
TORSDOF 8
ENDMDL
MODEL 6
REMARK VINA RESULT:      -6.2     28.624     31.685
REMARK  Name = 25313130
REMARK  8 active torsions:
REMARK  status: ('A' for Active; 'I' for Inactive)
REMARK    1  A    between atoms: O_3  and  C_21
REMARK    2  A    between atoms: N_6  and  C_14
REMARK    3  A    between atoms: N_7  and  C_23
REMARK    4  A    between atoms: C_8  and  C_12
REMARK    5  A    between atoms: C_9  and  C_15
REMARK    6  A    between atoms: C_12  and  C_14
REMARK    7  A    between atoms: C_15  and  C_21
REMARK    8  A    between atoms: C_20  and  C_22
REMARK                            x       y       z     vdW  Elec       q    Type
REMARK                         _______ _______ _______ _____ _____    ______ ____
ROOT
ATOM      2  O   UNL     1      -8.390 -11.367  18.480  0.00  0.00    -0.270 OA
ATOM      5  N   UNL     1      -6.525 -10.297  17.559  0.00  0.00    -0.297 N 
ATOM      8  C   UNL     1      -4.954  -9.969  15.663  0.00  0.00    +0.011 C 
ATOM      9  C   UNL     1      -3.902 -10.798  16.441  0.00  0.00    +0.006 C 
ATOM     10  C   UNL     1      -5.934  -9.307  16.648  0.00  0.00    +0.112 C 
ATOM     11  C   UNL     1      -4.567 -11.786  17.414  0.00  0.00    +0.023 C 
ATOM     13  C   UNL     1      -5.558 -11.074  18.332  0.00  0.00    +0.108 C 
ATOM     20  C   UNL     1      -7.892 -10.537  17.723  0.00  0.00    +0.247 C 
ENDROOT
BRANCH  20  22
ATOM      1  F   UNL     1     -11.481  -7.489  14.700  0.00  0.00    -0.205 F 
ATOM     22  C   UNL     1      -8.832  -9.737  16.931  0.00  0.00    +0.037 A 
ATOM     24  C   UNL     1      -9.247 -10.189  15.677  0.00  0.00    +0.016 A 
ATOM     25  C   UNL     1      -9.311  -8.526  17.429  0.00  0.00    +0.016 A 
ATOM     28  C   UNL     1     -10.142  -9.429  14.923  0.00  0.00    +0.039 A 
ATOM     29  C   UNL     1     -10.206  -7.767  16.675  0.00  0.00    +0.039 A 
ATOM     32  C   UNL     1     -10.621  -8.218  15.422  0.00  0.00    +0.123 A 
ENDBRANCH  20  22
BRANCH   8  12
ATOM     12  C   UNL     1      -5.722 -10.773  14.606  0.00  0.00    +0.020 C 
BRANCH  12  14
ATOM     14  C   UNL     1      -6.187  -9.871  13.470  0.00  0.00    +0.085 C 
BRANCH  14   6
ATOM      6  N   UNL     1      -5.613 -10.330  12.205  0.00  0.00    -0.299 NA
ATOM      7  N   UNL     1      -5.493 -10.682   9.373  0.00  0.00    -0.327 N 
ATOM     16  C   UNL     1      -5.331  -9.189  11.325  0.00  0.00    +0.103 C 
ATOM     17  C   UNL     1      -6.527 -11.263  11.534  0.00  0.00    +0.103 C 
ATOM     18  C   UNL     1      -4.677  -9.650  10.020  0.00  0.00    +0.120 C 
ATOM     19  C   UNL     1      -5.914 -11.794  10.237  0.00  0.00    +0.120 C 
BRANCH   7  23
ATOM     23  C   UNL     1      -5.337 -10.935   8.005  0.00  0.00    +0.030 A 
ATOM     26  C   UNL     1      -4.440 -11.911   7.575  0.00  0.00    +0.023 A 
ATOM     27  C   UNL     1      -6.082 -10.213   7.074  0.00  0.00    +0.023 A 
ATOM     30  C   UNL     1      -4.287 -12.166   6.212  0.00  0.00    +0.002 A 
ATOM     31  C   UNL     1      -5.930 -10.467   5.711  0.00  0.00    +0.002 A 
ATOM     33  C   UNL     1      -5.032 -11.443   5.280  0.00  0.00    +0.000 A 
ENDBRANCH   7  23
ENDBRANCH  14   6
ENDBRANCH  12  14
ENDBRANCH   8  12
BRANCH   9  15
ATOM     15  C   UNL     1      -2.914 -11.526  15.529  0.00  0.00    +0.124 C 
BRANCH  15  21
ATOM      4  O   UNL     1      -2.145 -10.541  13.436  0.00  0.00    -0.251 OA
ATOM     21  C   UNL     1      -2.152 -10.567  14.658  0.00  0.00    +0.305 C 
BRANCH  21   3
ATOM      3  O   UNL     1      -1.450  -9.702  15.434  0.00  0.00    -0.481 OA
ATOM     34  H   UNL     1      -1.803  -9.661  16.347  0.00  0.00    +0.295 HD
ENDBRANCH  21   3
ENDBRANCH  15  21
ENDBRANCH   9  15
TORSDOF 8
ENDMDL
MODEL 7
REMARK VINA RESULT:      -6.1     28.787     33.134
REMARK  Name = 25313130
REMARK  8 active torsions:
REMARK  status: ('A' for Active; 'I' for Inactive)
REMARK    1  A    between atoms: O_3  and  C_21
REMARK    2  A    between atoms: N_6  and  C_14
REMARK    3  A    between atoms: N_7  and  C_23
REMARK    4  A    between atoms: C_8  and  C_12
REMARK    5  A    between atoms: C_9  and  C_15
REMARK    6  A    between atoms: C_12  and  C_14
REMARK    7  A    between atoms: C_15  and  C_21
REMARK    8  A    between atoms: C_20  and  C_22
REMARK                            x       y       z     vdW  Elec       q    Type
REMARK                         _______ _______ _______ _____ _____    ______ ____
ROOT
ATOM      2  O   UNL     1      -7.999 -12.977   5.216  0.00  0.00    -0.270 OA
ATOM      5  N   UNL     1      -7.604 -10.691   5.514  0.00  0.00    -0.297 N 
ATOM      8  C   UNL     1      -6.928  -8.800   6.976  0.00  0.00    +0.011 C 
ATOM      9  C   UNL     1      -8.421  -8.399   7.083  0.00  0.00    +0.006 C 
ATOM     10  C   UNL     1      -6.681  -9.557   5.659  0.00  0.00    +0.112 C 
ATOM     11  C   UNL     1      -9.347  -9.610   6.879  0.00  0.00    +0.023 C 
ATOM     13  C   UNL     1      -9.022 -10.341   5.579  0.00  0.00    +0.108 C 
ATOM     20  C   UNL     1      -7.231 -12.025   5.332  0.00  0.00    +0.247 C 
ENDROOT
BRANCH  20  22
ATOM      1  F   UNL     1      -1.769 -13.224   5.105  0.00  0.00    -0.205 F 
ATOM     22  C   UNL     1      -5.799 -12.339   5.272  0.00  0.00    +0.037 A 
ATOM     24  C   UNL     1      -5.119 -12.714   6.432  0.00  0.00    +0.016 A 
ATOM     25  C   UNL     1      -5.118 -12.261   4.058  0.00  0.00    +0.016 A 
ATOM     28  C   UNL     1      -3.757 -13.013   6.375  0.00  0.00    +0.039 A 
ATOM     29  C   UNL     1      -3.756 -12.560   4.002  0.00  0.00    +0.039 A 
ATOM     32  C   UNL     1      -3.076 -12.935   5.160  0.00  0.00    +0.123 A 
ENDBRANCH  20  22
BRANCH   8  12
ATOM     12  C   UNL     1      -6.417  -9.621   8.168  0.00  0.00    +0.020 C 
BRANCH  12  14
ATOM     14  C   UNL     1      -4.903  -9.520   8.286  0.00  0.00    +0.085 C 
BRANCH  14   6
ATOM      6  N   UNL     1      -4.458 -10.156   9.526  0.00  0.00    -0.299 NA
ATOM      7  N   UNL     1      -3.815 -10.282  12.306  0.00  0.00    -0.327 N 
ATOM     16  C   UNL     1      -5.521 -10.108  10.538  0.00  0.00    +0.103 C 
ATOM     17  C   UNL     1      -3.251  -9.497  10.039  0.00  0.00    +0.103 C 
ATOM     18  C   UNL     1      -5.090 -10.821  11.823  0.00  0.00    +0.120 C 
ATOM     19  C   UNL     1      -2.743 -10.190  11.306  0.00  0.00    +0.120 C 
BRANCH   7  23
ATOM     23  C   UNL     1      -3.450 -10.459  13.646  0.00  0.00    +0.030 A 
ATOM     26  C   UNL     1      -4.433 -10.643  14.617  0.00  0.00    +0.023 A 
ATOM     27  C   UNL     1      -2.103 -10.454  14.008  0.00  0.00    +0.023 A 
ATOM     30  C   UNL     1      -4.069 -10.822  15.952  0.00  0.00    +0.002 A 
ATOM     31  C   UNL     1      -1.738 -10.632  15.342  0.00  0.00    +0.002 A 
ATOM     33  C   UNL     1      -2.722 -10.817  16.315  0.00  0.00    +0.000 A 
ENDBRANCH   7  23
ENDBRANCH  14   6
ENDBRANCH  12  14
ENDBRANCH   8  12
BRANCH   9  15
ATOM     15  C   UNL     1      -8.759  -7.679   8.389  0.00  0.00    +0.124 C 
BRANCH  15  21
ATOM      4  O   UNL     1      -9.486  -5.357   8.248  0.00  0.00    -0.251 OA
ATOM     21  C   UNL     1      -8.593  -6.190   8.261  0.00  0.00    +0.305 C 
BRANCH  21   3
ATOM      3  O   UNL     1      -7.274  -5.883   8.159  0.00  0.00    -0.481 OA
ATOM     34  H   UNL     1      -7.083  -5.351   7.357  0.00  0.00    +0.295 HD
ENDBRANCH  21   3
ENDBRANCH  15  21
ENDBRANCH   9  15
TORSDOF 8
ENDMDL
MODEL 8
REMARK VINA RESULT:      -6.0     29.409     31.763
REMARK  Name = 25313130
REMARK  8 active torsions:
REMARK  status: ('A' for Active; 'I' for Inactive)
REMARK    1  A    between atoms: O_3  and  C_21
REMARK    2  A    between atoms: N_6  and  C_14
REMARK    3  A    between atoms: N_7  and  C_23
REMARK    4  A    between atoms: C_8  and  C_12
REMARK    5  A    between atoms: C_9  and  C_15
REMARK    6  A    between atoms: C_12  and  C_14
REMARK    7  A    between atoms: C_15  and  C_21
REMARK    8  A    between atoms: C_20  and  C_22
REMARK                            x       y       z     vdW  Elec       q    Type
REMARK                         _______ _______ _______ _____ _____    ______ ____
ROOT
ATOM      2  O   UNL     1      -3.720 -12.009   8.760  0.00  0.00    -0.270 OA
ATOM      5  N   UNL     1      -4.757 -10.002   9.365  0.00  0.00    -0.297 N 
ATOM      8  C   UNL     1      -6.619  -8.797  10.486  0.00  0.00    +0.011 C 
ATOM      9  C   UNL     1      -7.222  -8.509   9.089  0.00  0.00    +0.006 C 
ATOM     10  C   UNL     1      -5.095  -8.985  10.371  0.00  0.00    +0.112 C 
ATOM     11  C   UNL     1      -6.802  -9.573   8.061  0.00  0.00    +0.023 C 
ATOM     13  C   UNL     1      -5.286  -9.741   8.028  0.00  0.00    +0.108 C 
ATOM     20  C   UNL     1      -4.001 -11.154   9.596  0.00  0.00    +0.247 C 
ENDROOT
BRANCH  20  22
ATOM      1  F   UNL     1      -2.040 -12.025  14.765  0.00  0.00    -0.205 F 
ATOM     22  C   UNL     1      -3.487 -11.381  10.951  0.00  0.00    +0.037 A 
ATOM     24  C   UNL     1      -3.970 -12.449  11.710  0.00  0.00    +0.016 A 
ATOM     25  C   UNL     1      -2.516 -10.531  11.482  0.00  0.00    +0.016 A 
ATOM     28  C   UNL     1      -3.481 -12.666  12.998  0.00  0.00    +0.039 A 
ATOM     29  C   UNL     1      -2.029 -10.749  12.770  0.00  0.00    +0.039 A 
ATOM     32  C   UNL     1      -2.511 -11.816  13.528  0.00  0.00    +0.123 A 
ENDBRANCH  20  22
BRANCH   8  12
ATOM     12  C   UNL     1      -7.252  -9.998  11.201  0.00  0.00    +0.020 C 
BRANCH  12  14
ATOM     14  C   UNL     1      -8.230  -9.537  12.273  0.00  0.00    +0.085 C 
BRANCH  14   6
ATOM      6  N   UNL     1      -7.549  -9.455  13.565  0.00  0.00    -0.299 NA
ATOM      7  N   UNL     1      -6.498 -10.454  16.026  0.00  0.00    -0.327 N 
ATOM     16  C   UNL     1      -6.354 -10.308  13.572  0.00  0.00    +0.103 C 
ATOM     17  C   UNL     1      -8.454  -9.855  14.650  0.00  0.00    +0.103 C 
ATOM     18  C   UNL     1      -5.600 -10.188  14.898  0.00  0.00    +0.120 C 
ATOM     19  C   UNL     1      -7.770  -9.720  16.012  0.00  0.00    +0.120 C 
BRANCH   7  23
ATOM     23  C   UNL     1      -5.965 -10.823  17.267  0.00  0.00    +0.030 A 
ATOM     26  C   UNL     1      -4.688 -11.376  17.339  0.00  0.00    +0.023 A 
ATOM     27  C   UNL     1      -6.711 -10.634  18.429  0.00  0.00    +0.023 A 
ATOM     30  C   UNL     1      -4.155 -11.741  18.576  0.00  0.00    +0.002 A 
ATOM     31  C   UNL     1      -6.179 -10.999  19.666  0.00  0.00    +0.002 A 
ATOM     33  C   UNL     1      -4.901 -11.552  19.740  0.00  0.00    +0.000 A 
ENDBRANCH   7  23
ENDBRANCH  14   6
ENDBRANCH  12  14
ENDBRANCH   8  12
BRANCH   9  15
ATOM     15  C   UNL     1      -8.743  -8.353   9.110  0.00  0.00    +0.124 C 
BRANCH  15  21
ATOM      4  O   UNL     1     -10.267  -6.459   8.942  0.00  0.00    -0.251 OA
ATOM     21  C   UNL     1      -9.162  -6.950   8.770  0.00  0.00    +0.305 C 
BRANCH  21   3
ATOM      3  O   UNL     1      -8.114  -6.277   8.229  0.00  0.00    -0.481 OA
ATOM     34  H   UNL     1      -7.434  -6.059   8.900  0.00  0.00    +0.295 HD
ENDBRANCH  21   3
ENDBRANCH  15  21
ENDBRANCH   9  15
TORSDOF 8
ENDMDL
MODEL 9
REMARK VINA RESULT:      -5.9     17.405     20.218
REMARK  Name = 25313130
REMARK  8 active torsions:
REMARK  status: ('A' for Active; 'I' for Inactive)
REMARK    1  A    between atoms: O_3  and  C_21
REMARK    2  A    between atoms: N_6  and  C_14
REMARK    3  A    between atoms: N_7  and  C_23
REMARK    4  A    between atoms: C_8  and  C_12
REMARK    5  A    between atoms: C_9  and  C_15
REMARK    6  A    between atoms: C_12  and  C_14
REMARK    7  A    between atoms: C_15  and  C_21
REMARK    8  A    between atoms: C_20  and  C_22
REMARK                            x       y       z     vdW  Elec       q    Type
REMARK                         _______ _______ _______ _____ _____    ______ ____
ROOT
ATOM      2  O   UNL     1      10.447   4.444  -0.327  0.00  0.00    -0.270 OA
ATOM      5  N   UNL     1      12.582   3.959   0.498  0.00  0.00    -0.297 N 
ATOM      8  C   UNL     1      14.817   4.729   1.264  0.00  0.00    +0.011 C 
ATOM      9  C   UNL     1      15.401   4.256  -0.092  0.00  0.00    +0.006 C 
ATOM     10  C   UNL     1      13.552   3.918   1.601  0.00  0.00    +0.112 C 
ATOM     11  C   UNL     1      14.337   4.271  -1.202  0.00  0.00    +0.023 C 
ATOM     13  C   UNL     1      13.094   3.488  -0.787  0.00  0.00    +0.108 C 
ATOM     20  C   UNL     1      11.261   4.404   0.594  0.00  0.00    +0.247 C 
ENDROOT
BRANCH  20  22
ATOM      1  F   UNL     1       9.438   6.175   5.580  0.00  0.00    -0.205 F 
ATOM     22  C   UNL     1      10.782   4.868   1.900  0.00  0.00    +0.037 A 
ATOM     24  C   UNL     1      10.888   4.037   3.017  0.00  0.00    +0.016 A 
ATOM     25  C   UNL     1      10.222   6.139   2.027  0.00  0.00    +0.016 A 
ATOM     28  C   UNL     1      10.434   4.479   4.260  0.00  0.00    +0.039 A 
ATOM     29  C   UNL     1       9.767   6.579   3.270  0.00  0.00    +0.039 A 
ATOM     32  C   UNL     1       9.873   5.750   4.386  0.00  0.00    +0.123 A 
ENDBRANCH  20  22
BRANCH   8  12
ATOM     12  C   UNL     1      14.518   6.232   1.321  0.00  0.00    +0.020 C 
BRANCH  12  14
ATOM     14  C   UNL     1      13.856   6.604   2.641  0.00  0.00    +0.085 C 
BRANCH  14   6
ATOM      6  N   UNL     1      14.652   7.622   3.326  0.00  0.00    -0.299 NA
ATOM      7  N   UNL     1      16.776   8.605   4.962  0.00  0.00    -0.327 N 
ATOM     16  C   UNL     1      16.035   7.610   2.835  0.00  0.00    +0.103 C 
ATOM     17  C   UNL     1      14.636   7.397   4.777  0.00  0.00    +0.103 C 
ATOM     18  C   UNL     1      16.865   8.709   3.503  0.00  0.00    +0.120 C 
ATOM     19  C   UNL     1      15.419   8.489   5.510  0.00  0.00    +0.120 C 
BRANCH   7  23
ATOM     23  C   UNL     1      17.759   9.200   5.763  0.00  0.00    +0.030 A 
ATOM     26  C   UNL     1      18.851   8.450   6.197  0.00  0.00    +0.023 A 
ATOM     27  C   UNL     1      17.647  10.542   6.122  0.00  0.00    +0.023 A 
ATOM     30  C   UNL     1      19.833   9.043   6.992  0.00  0.00    +0.002 A 
ATOM     31  C   UNL     1      18.627  11.136   6.917  0.00  0.00    +0.002 A 
ATOM     33  C   UNL     1      19.721  10.386   7.352  0.00  0.00    +0.000 A 
ENDBRANCH   7  23
ENDBRANCH  14   6
ENDBRANCH  12  14
ENDBRANCH   8  12
BRANCH   9  15
ATOM     15  C   UNL     1      16.638   5.044  -0.522  0.00  0.00    +0.124 C 
BRANCH  15  21
ATOM      4  O   UNL     1      17.462   4.578  -2.768  0.00  0.00    -0.251 OA
ATOM     21  C   UNL     1      17.423   4.314  -1.576  0.00  0.00    +0.305 C 
BRANCH  21   3
ATOM      3  O   UNL     1      18.108   3.288  -1.008  0.00  0.00    -0.481 OA
ATOM     34  H   UNL     1      17.508   2.584  -0.681  0.00  0.00    +0.295 HD
ENDBRANCH  21   3
ENDBRANCH  15  21
ENDBRANCH   9  15
TORSDOF 8
ENDMDL
MODEL 10
REMARK VINA RESULT:      -5.9     34.137     36.316
REMARK  Name = 25313130
REMARK  8 active torsions:
REMARK  status: ('A' for Active; 'I' for Inactive)
REMARK    1  A    between atoms: O_3  and  C_21
REMARK    2  A    between atoms: N_6  and  C_14
REMARK    3  A    between atoms: N_7  and  C_23
REMARK    4  A    between atoms: C_8  and  C_12
REMARK    5  A    between atoms: C_9  and  C_15
REMARK    6  A    between atoms: C_12  and  C_14
REMARK    7  A    between atoms: C_15  and  C_21
REMARK    8  A    between atoms: C_20  and  C_22
REMARK                            x       y       z     vdW  Elec       q    Type
REMARK                         _______ _______ _______ _____ _____    ______ ____
ROOT
ATOM      2  O   UNL     1     -10.984 -10.123  36.557  0.00  0.00    -0.270 OA
ATOM      5  N   UNL     1      -9.291 -11.385  37.563  0.00  0.00    -0.297 N 
ATOM      8  C   UNL     1      -6.981 -11.552  38.463  0.00  0.00    +0.011 C 
ATOM      9  C   UNL     1      -6.577 -12.318  37.179  0.00  0.00    +0.006 C 
ATOM     10  C   UNL     1      -8.484 -11.743  38.738  0.00  0.00    +0.112 C 
ATOM     11  C   UNL     1      -7.479 -11.945  35.990  0.00  0.00    +0.023 C 
ATOM     13  C   UNL     1      -8.955 -12.114  36.342  0.00  0.00    +0.108 C 
ATOM     20  C   UNL     1     -10.310 -10.429  37.538  0.00  0.00    +0.247 C 
ENDROOT
BRANCH  20  22
ATOM      1  F   UNL     1     -11.489  -7.717  42.288  0.00  0.00    -0.205 F 
ATOM     22  C   UNL     1     -10.620  -9.718  38.782  0.00  0.00    +0.037 A 
ATOM     24  C   UNL     1     -11.487 -10.288  39.715  0.00  0.00    +0.016 A 
ATOM     25  C   UNL     1     -10.047  -8.471  39.034  0.00  0.00    +0.016 A 
ATOM     28  C   UNL     1     -11.781  -9.612  40.899  0.00  0.00    +0.039 A 
ATOM     29  C   UNL     1     -10.342  -7.795  40.219  0.00  0.00    +0.039 A 
ATOM     32  C   UNL     1     -11.208  -8.366  41.151  0.00  0.00    +0.123 A 
ENDBRANCH  20  22
BRANCH   8  12
ATOM     12  C   UNL     1      -6.630 -10.058  38.433  0.00  0.00    +0.020 C 
BRANCH  12  14
ATOM     14  C   UNL     1      -5.752  -9.684  39.618  0.00  0.00    +0.085 C 
BRANCH  14   6
ATOM      6  N   UNL     1      -5.952  -8.275  39.959  0.00  0.00    -0.299 NA
ATOM      7  N   UNL     1      -7.460  -5.895  40.427  0.00  0.00    -0.327 N 
ATOM     16  C   UNL     1      -6.791  -8.150  41.157  0.00  0.00    +0.103 C 
ATOM     17  C   UNL     1      -6.572  -7.557  38.839  0.00  0.00    +0.103 C 
ATOM     18  C   UNL     1      -6.962  -6.683  41.559  0.00  0.00    +0.120 C 
ATOM     19  C   UNL     1      -6.735  -6.070  39.162  0.00  0.00    +0.120 C 
BRANCH   7  23
ATOM     23  C   UNL     1      -8.088  -4.666  40.660  0.00  0.00    +0.030 A 
ATOM     26  C   UNL     1      -8.582  -3.923  39.589  0.00  0.00    +0.023 A 
ATOM     27  C   UNL     1      -8.223  -4.187  41.963  0.00  0.00    +0.023 A 
ATOM     30  C   UNL     1      -9.211  -2.699  39.820  0.00  0.00    +0.002 A 
ATOM     31  C   UNL     1      -8.851  -2.964  42.195  0.00  0.00    +0.002 A 
ATOM     33  C   UNL     1      -9.346  -2.220  41.123  0.00  0.00    +0.000 A 
ENDBRANCH   7  23
ENDBRANCH  14   6
ENDBRANCH  12  14
ENDBRANCH   8  12
BRANCH   9  15
ATOM     15  C   UNL     1      -5.104 -12.142  36.811  0.00  0.00    +0.124 C 
BRANCH  15  21
ATOM      4  O   UNL     1      -4.977 -14.523  36.306  0.00  0.00    -0.251 OA
ATOM     21  C   UNL     1      -4.531 -13.391  36.201  0.00  0.00    +0.305 C 
BRANCH  21   3
ATOM      3  O   UNL     1      -3.414 -13.084  35.493  0.00  0.00    -0.481 OA
ATOM     34  H   UNL     1      -2.658 -12.865  36.078  0.00  0.00    +0.295 HD
ENDBRANCH  21   3
ENDBRANCH  15  21
ENDBRANCH   9  15
TORSDOF 8
ENDMDL
