REMARK  Name = 75536460
REMARK  9 active torsions:
REMARK  status: ('A' for Active; 'I' for Inactive)
REMARK    1  A    between atoms: O_2  and  C_10
REMARK    2  A    between atoms: N_4  and  C_9
REMARK    3  A    between atoms: N_4  and  C_17
REMARK    4  A    between atoms: N_4  and  C_18
REMARK    5  A    between atoms: N_5  and  C_15
REMARK    6  A    between atoms: C_8  and  C_16
REMARK    7  A    between atoms: C_11  and  C_15
REMARK    8  A    between atoms: C_17  and  C_19
REMARK    9  A    between atoms: C_18  and  C_20
REMARK                            x       y       z     vdW  Elec       q    Type
REMARK                         _______ _______ _______ _____ _____    ______ ____
ROOT
ATOM      4  N   UNL     1      -0.909  -0.074   0.256  0.00  0.00    -0.283 NA
ENDROOT
BRANCH   4   9
ATOM      1  O   UNL     1       2.014  -2.145   0.887  0.00  0.00    -0.371 OA
ATOM      9  C   UNL     1      -0.099  -1.281   0.232  0.00  0.00    +0.114 C 
ATOM     10  C   UNL     1       0.790  -1.394  -0.993  0.00  0.00    +0.164 C 
ATOM     11  C   UNL     1       1.822  -2.406  -0.514  0.00  0.00    +0.165 C 
ATOM     14  C   UNL     1       0.925  -1.329   1.353  0.00  0.00    +0.182 C 
BRANCH  10   2
ATOM      2  O   UNL     1       0.093  -1.852  -2.135  0.00  0.00    -0.388 OA
ATOM     30  H   UNL     1      -0.326  -2.702  -1.917  0.00  0.00    +0.210 HD
ENDBRANCH  10   2
BRANCH  11  15
ATOM     15  C   UNL     1       3.150  -2.301  -1.242  0.00  0.00    +0.138 C 
BRANCH  15   5
ATOM      3  O   UNL     1       4.971  -1.443   0.856  0.00  0.00    -0.276 OA
ATOM      5  N   UNL     1       3.738  -1.004  -1.071  0.00  0.00    -0.313 N 
ATOM     16  C   UNL     1       4.601  -0.685  -0.033  0.00  0.00    +0.216 C 
ATOM     29  H   UNL     1       3.517  -0.290  -1.760  0.00  0.00    +0.149 HD
BRANCH  16   8
ATOM      8  C   UNL     1       5.095   0.724  -0.052  0.00  0.00    +0.075 C 
ATOM     12  C   UNL     1       4.093   1.830  -0.075  0.00  0.00    +0.013 C 
ATOM     13  C   UNL     1       4.894   1.565   1.165  0.00  0.00    +0.013 C 
ENDBRANCH  16   8
ENDBRANCH  15   5
ENDBRANCH  11  15
ENDBRANCH   4   9
BRANCH   4  17
ATOM     17  C   UNL     1      -2.015  -0.208   1.208  0.00  0.00    +0.140 C 
BRANCH  17  19
ATOM      6  N   UNL     1      -3.291  -2.274   1.057  0.00  0.00    -0.259 NA
ATOM     19  C   UNL     1      -3.160  -0.997   0.632  0.00  0.00    +0.055 A 
ATOM     21  C   UNL     1      -4.006  -0.394  -0.285  0.00  0.00    +0.024 A 
ATOM     23  C   UNL     1      -5.054  -1.150  -0.798  0.00  0.00    +0.003 A 
ATOM     25  C   UNL     1      -4.321  -2.977   0.536  0.00  0.00    +0.111 A 
ATOM     27  C   UNL     1      -5.222  -2.467  -0.385  0.00  0.00    +0.020 A 
ENDBRANCH  17  19
ENDBRANCH   4  17
BRANCH   4  18
ATOM     18  C   UNL     1      -0.092   1.095   0.594  0.00  0.00    +0.140 C 
BRANCH  18  20
ATOM      7  N   UNL     1      -1.326   3.118   1.142  0.00  0.00    -0.259 NA
ATOM     20  C   UNL     1      -0.749   2.381   0.168  0.00  0.00    +0.055 A 
ATOM     22  C   UNL     1      -0.731   2.740  -1.170  0.00  0.00    +0.024 A 
ATOM     24  C   UNL     1      -1.345   3.935  -1.531  0.00  0.00    +0.003 A 
ATOM     26  C   UNL     1      -1.913   4.272   0.754  0.00  0.00    +0.111 A 
ATOM     28  C   UNL     1      -1.950   4.721  -0.557  0.00  0.00    +0.020 A 
ENDBRANCH  18  20
ENDBRANCH   4  18
TORSDOF 9
