MODEL 1
REMARK VINA RESULT:      -6.4      0.000      0.000
REMARK  Name = 56775490
REMARK  6 active torsions:
REMARK  status: ('A' for Active; 'I' for Inactive)
REMARK    1  A    between atoms: N_6  and  C_8
REMARK    2  A    between atoms: N_6  and  C_12
REMARK    3  A    between atoms: C_8  and  C_11
REMARK    4  A    between atoms: C_11  and  C_13
REMARK    5  A    between atoms: C_12  and  C_14
REMARK    6  A    between atoms: C_17  and  C_22
REMARK                            x       y       z     vdW  Elec       q    Type
REMARK                         _______ _______ _______ _____ _____    ______ ____
ROOT
ATOM      2  O   UNL     1      -9.013 -11.141  13.749  0.00  0.00    -0.376 OA
ATOM      8  C   UNL     1      -9.228  -9.756  15.358  0.00  0.00    +0.072 C 
ATOM      9  C   UNL     1      -9.071 -11.263  15.188  0.00  0.00    +0.184 C 
ATOM     10  C   UNL     1      -9.255  -9.718  13.835  0.00  0.00    +0.184 C 
ENDROOT
BRANCH   8   6
ATOM      6  N   UNL     1      -7.957  -9.199  15.821  0.00  0.00    -0.302 NA
ATOM     29  H   UNL     1      -7.708  -8.294  15.422  0.00  0.00    +0.123 HD
BRANCH   6  12
ATOM     12  C   UNL     1      -7.979  -9.103  17.284  0.00  0.00    +0.120 C 
BRANCH  12  14
ATOM      4  O   UNL     1      -5.256  -9.740  16.301  0.00  0.00    -0.452 OA
ATOM      5  O   UNL     1      -3.740 -11.292  17.348  0.00  0.00    -0.453 OA
ATOM     14  C   UNL     1      -7.044 -10.061  17.932  0.00  0.00    +0.012 A 
ATOM     16  C   UNL     1      -5.788 -10.309  17.416  0.00  0.00    +0.171 A 
ATOM     18  C   UNL     1      -7.415 -10.746  19.092  0.00  0.00    +0.009 A 
ATOM     19  C   UNL     1      -4.922 -11.196  18.014  0.00  0.00    +0.167 A 
ATOM     20  C   UNL     1      -6.530 -11.652  19.702  0.00  0.00    +0.004 A 
ATOM     21  C   UNL     1      -5.265 -11.884  19.161  0.00  0.00    +0.049 A 
ATOM     23  C   UNL     1      -3.958 -10.368  16.264  0.00  0.00    +0.466 C 
ENDBRANCH  12  14
ENDBRANCH   6  12
ENDBRANCH   8   6
BRANCH   8  11
ATOM     11  C   UNL     1     -10.407  -9.231  16.119  0.00  0.00    +0.085 C 
BRANCH  11  13
ATOM      3  O   UNL     1     -10.860  -5.778  15.156  0.00  0.00    -0.354 OA
ATOM      7  N   UNL     1     -10.176  -6.791  15.815  0.00  0.00    -0.083 NA
ATOM     13  C   UNL     1     -10.867  -7.904  15.552  0.00  0.00    +0.086 A 
ATOM     15  C   UNL     1     -11.987  -7.657  14.739  0.00  0.00    +0.076 A 
ATOM     17  C   UNL     1     -11.937  -6.306  14.518  0.00  0.00    +0.167 A 
BRANCH  17  22
ATOM      1  F   UNL     1     -15.072  -2.690  11.682  0.00  0.00    -0.205 F 
ATOM     22  C   UNL     1     -12.745  -5.374  13.786  0.00  0.00    +0.020 A 
ATOM     24  C   UNL     1     -12.141  -4.419  12.969  0.00  0.00    +0.014 A 
ATOM     25  C   UNL     1     -14.135  -5.423  13.892  0.00  0.00    +0.014 A 
ATOM     26  C   UNL     1     -12.926  -3.512  12.257  0.00  0.00    +0.039 A 
ATOM     27  C   UNL     1     -14.920  -4.516  13.182  0.00  0.00    +0.039 A 
ATOM     28  C   UNL     1     -14.316  -3.561  12.365  0.00  0.00    +0.123 A 
ENDBRANCH  17  22
ENDBRANCH  11  13
ENDBRANCH   8  11
TORSDOF 6
ENDMDL
MODEL 2
REMARK VINA RESULT:      -6.4      4.985      8.178
REMARK  Name = 56775490
REMARK  6 active torsions:
REMARK  status: ('A' for Active; 'I' for Inactive)
REMARK    1  A    between atoms: N_6  and  C_8
REMARK    2  A    between atoms: N_6  and  C_12
REMARK    3  A    between atoms: C_8  and  C_11
REMARK    4  A    between atoms: C_11  and  C_13
REMARK    5  A    between atoms: C_12  and  C_14
REMARK    6  A    between atoms: C_17  and  C_22
REMARK                            x       y       z     vdW  Elec       q    Type
REMARK                         _______ _______ _______ _____ _____    ______ ____
ROOT
ATOM      2  O   UNL     1      -2.094 -14.130  14.119  0.00  0.00    -0.376 OA
ATOM      8  C   UNL     1      -2.709 -12.087  14.173  0.00  0.00    +0.072 C 
ATOM      9  C   UNL     1      -1.485 -12.880  13.727  0.00  0.00    +0.184 C 
ATOM     10  C   UNL     1      -3.245 -13.432  14.648  0.00  0.00    +0.184 C 
ENDROOT
BRANCH   8   6
ATOM      6  N   UNL     1      -3.459 -11.672  12.986  0.00  0.00    -0.302 NA
ATOM     29  H   UNL     1      -4.473 -11.667  13.093  0.00  0.00    +0.123 HD
BRANCH   6  12
ATOM     12  C   UNL     1      -3.001 -10.344  12.568  0.00  0.00    +0.120 C 
BRANCH  12  14
ATOM      4  O   UNL     1      -5.911  -9.799  12.719  0.00  0.00    -0.452 OA
ATOM      5  O   UNL     1      -7.239  -8.890  10.926  0.00  0.00    -0.453 OA
ATOM     14  C   UNL     1      -3.819  -9.782  11.461  0.00  0.00    +0.012 A 
ATOM     16  C   UNL     1      -5.173  -9.554  11.602  0.00  0.00    +0.171 A 
ATOM     18  C   UNL     1      -3.235  -9.466  10.231  0.00  0.00    +0.009 A 
ATOM     19  C   UNL     1      -5.931  -9.035  10.578  0.00  0.00    +0.167 A 
ATOM     20  C   UNL     1      -4.010  -8.936   9.185  0.00  0.00    +0.004 A 
ATOM     21  C   UNL     1      -5.378  -8.715   9.355  0.00  0.00    +0.049 A 
ATOM     23  C   UNL     1      -7.219  -9.376  12.283  0.00  0.00    +0.466 C 
ENDBRANCH  12  14
ENDBRANCH   6  12
ENDBRANCH   8   6
BRANCH   8  11
ATOM     11  C   UNL     1      -2.533 -10.982  15.168  0.00  0.00    +0.085 C 
BRANCH  11  13
ATOM      3  O   UNL     1      -4.893 -11.099  17.901  0.00  0.00    -0.354 OA
ATOM      7  N   UNL     1      -3.639 -11.325  17.349  0.00  0.00    -0.083 NA
ATOM     13  C   UNL     1      -3.732 -10.891  16.089  0.00  0.00    +0.086 A 
ATOM     15  C   UNL     1      -5.010 -10.387  15.792  0.00  0.00    +0.076 A 
ATOM     17  C   UNL     1      -5.701 -10.540  16.964  0.00  0.00    +0.167 A 
BRANCH  17  22
ATOM      1  F   UNL     1     -10.890  -9.401  18.617  0.00  0.00    -0.205 F 
ATOM     22  C   UNL     1      -7.039 -10.246  17.391  0.00  0.00    +0.020 A 
ATOM     24  C   UNL     1      -7.633 -11.008  18.397  0.00  0.00    +0.014 A 
ATOM     25  C   UNL     1      -7.745  -9.198  16.800  0.00  0.00    +0.014 A 
ATOM     26  C   UNL     1      -8.934 -10.723  18.812  0.00  0.00    +0.039 A 
ATOM     27  C   UNL     1      -9.045  -8.913  17.214  0.00  0.00    +0.039 A 
ATOM     28  C   UNL     1      -9.640  -9.676  18.220  0.00  0.00    +0.123 A 
ENDBRANCH  17  22
ENDBRANCH  11  13
ENDBRANCH   8  11
TORSDOF 6
ENDMDL
MODEL 3
REMARK VINA RESULT:      -6.4     15.708     17.426
REMARK  Name = 56775490
REMARK  6 active torsions:
REMARK  status: ('A' for Active; 'I' for Inactive)
REMARK    1  A    between atoms: N_6  and  C_8
REMARK    2  A    between atoms: N_6  and  C_12
REMARK    3  A    between atoms: C_8  and  C_11
REMARK    4  A    between atoms: C_11  and  C_13
REMARK    5  A    between atoms: C_12  and  C_14
REMARK    6  A    between atoms: C_17  and  C_22
REMARK                            x       y       z     vdW  Elec       q    Type
REMARK                         _______ _______ _______ _____ _____    ______ ____
ROOT
ATOM      2  O   UNL     1     -18.067   6.818  24.176  0.00  0.00    -0.376 OA
ATOM      8  C   UNL     1     -16.519   5.478  23.575  0.00  0.00    +0.072 C 
ATOM      9  C   UNL     1     -16.700   6.984  23.739  0.00  0.00    +0.184 C 
ATOM     10  C   UNL     1     -17.994   5.392  23.950  0.00  0.00    +0.184 C 
ENDROOT
BRANCH   8   6
ATOM      6  N   UNL     1     -15.717   4.975  24.692  0.00  0.00    -0.302 NA
ATOM     29  H   UNL     1     -16.091   5.177  25.619  0.00  0.00    +0.123 HD
BRANCH   6  12
ATOM     12  C   UNL     1     -15.532   3.530  24.538  0.00  0.00    +0.120 C 
BRANCH  12  14
ATOM      4  O   UNL     1     -17.224   1.145  24.053  0.00  0.00    -0.452 OA
ATOM      5  O   UNL     1     -18.351  -0.119  25.768  0.00  0.00    -0.453 OA
ATOM     14  C   UNL     1     -16.226   2.750  25.598  0.00  0.00    +0.012 A 
ATOM     16  C   UNL     1     -17.000   1.648  25.297  0.00  0.00    +0.171 A 
ATOM     18  C   UNL     1     -16.115   3.117  26.942  0.00  0.00    +0.009 A 
ATOM     19  C   UNL     1     -17.644   0.927  26.277  0.00  0.00    +0.167 A 
ATOM     20  C   UNL     1     -16.773   2.380  27.942  0.00  0.00    +0.004 A 
ATOM     21  C   UNL     1     -17.549   1.268  27.611  0.00  0.00    +0.049 A 
ATOM     23  C   UNL     1     -18.081   0.026  24.359  0.00  0.00    +0.466 C 
ENDBRANCH  12  14
ENDBRANCH   6  12
ENDBRANCH   8   6
BRANCH   8  11
ATOM     11  C   UNL     1     -16.074   4.942  22.249  0.00  0.00    +0.085 C 
BRANCH  11  13
ATOM      3  O   UNL     1     -12.635   5.878  21.656  0.00  0.00    -0.354 OA
ATOM      7  N   UNL     1     -13.607   5.061  22.218  0.00  0.00    -0.083 NA
ATOM     13  C   UNL     1     -14.771   5.582  21.819  0.00  0.00    +0.086 A 
ATOM     15  C   UNL     1     -14.597   6.718  21.010  0.00  0.00    +0.076 A 
ATOM     17  C   UNL     1     -13.236   6.861  20.938  0.00  0.00    +0.167 A 
BRANCH  17  22
ATOM      1  F   UNL     1      -9.814  10.458  18.427  0.00  0.00    -0.205 F 
ATOM     22  C   UNL     1     -12.353   7.788  20.291  0.00  0.00    +0.020 A 
ATOM     24  C   UNL     1     -12.214   9.083  20.791  0.00  0.00    +0.014 A 
ATOM     25  C   UNL     1     -11.634   7.395  19.163  0.00  0.00    +0.014 A 
ATOM     26  C   UNL     1     -11.356   9.985  20.162  0.00  0.00    +0.039 A 
ATOM     27  C   UNL     1     -10.777   8.297  18.533  0.00  0.00    +0.039 A 
ATOM     28  C   UNL     1     -10.638   9.592  19.033  0.00  0.00    +0.123 A 
ENDBRANCH  17  22
ENDBRANCH  11  13
ENDBRANCH   8  11
TORSDOF 6
ENDMDL
MODEL 4
REMARK VINA RESULT:      -6.3     27.966     31.004
REMARK  Name = 56775490
REMARK  6 active torsions:
REMARK  status: ('A' for Active; 'I' for Inactive)
REMARK    1  A    between atoms: N_6  and  C_8
REMARK    2  A    between atoms: N_6  and  C_12
REMARK    3  A    between atoms: C_8  and  C_11
REMARK    4  A    between atoms: C_11  and  C_13
REMARK    5  A    between atoms: C_12  and  C_14
REMARK    6  A    between atoms: C_17  and  C_22
REMARK                            x       y       z     vdW  Elec       q    Type
REMARK                         _______ _______ _______ _____ _____    ______ ____
ROOT
ATOM      2  O   UNL     1      12.344  14.349  20.955  0.00  0.00    -0.376 OA
ATOM      8  C   UNL     1      13.681  12.700  21.180  0.00  0.00    +0.072 C 
ATOM      9  C   UNL     1      12.275  13.076  21.637  0.00  0.00    +0.184 C 
ATOM     10  C   UNL     1      13.714  14.096  20.569  0.00  0.00    +0.184 C 
ENDROOT
BRANCH   8   6
ATOM      6  N   UNL     1      13.578  11.715  20.102  0.00  0.00    -0.302 NA
ATOM     29  H   UNL     1      14.365  11.072  20.026  0.00  0.00    +0.123 HD
BRANCH   6  12
ATOM     12  C   UNL     1      12.334  10.956  20.262  0.00  0.00    +0.120 C 
BRANCH  12  14
ATOM      4  O   UNL     1      10.910   8.722  21.591  0.00  0.00    -0.452 OA
ATOM      5  O   UNL     1      11.170   6.393  21.030  0.00  0.00    -0.453 OA
ATOM     14  C   UNL     1      12.495   9.519  19.914  0.00  0.00    +0.012 A 
ATOM     16  C   UNL     1      11.798   8.530  20.578  0.00  0.00    +0.171 A 
ATOM     18  C   UNL     1      13.368   9.125  18.896  0.00  0.00    +0.009 A 
ATOM     19  C   UNL     1      11.947   7.200  20.257  0.00  0.00    +0.167 A 
ATOM     20  C   UNL     1      13.520   7.766  18.569  0.00  0.00    +0.004 A 
ATOM     21  C   UNL     1      12.801   6.786  19.256  0.00  0.00    +0.049 A 
ATOM     23  C   UNL     1      10.516   7.363  21.872  0.00  0.00    +0.466 C 
ENDBRANCH  12  14
ENDBRANCH   6  12
ENDBRANCH   8   6
BRANCH   8  11
ATOM     11  C   UNL     1      14.704  12.333  22.210  0.00  0.00    +0.085 C 
BRANCH  11  13
ATOM      3  O   UNL     1      15.163   8.749  22.263  0.00  0.00    -0.354 OA
ATOM      7  N   UNL     1      14.492   9.909  22.631  0.00  0.00    -0.083 NA
ATOM     13  C   UNL     1      15.158  10.899  22.031  0.00  0.00    +0.086 A 
ATOM     15  C   UNL     1      16.249  10.430  21.279  0.00  0.00    +0.076 A 
ATOM     17  C   UNL     1      16.207   9.072  21.458  0.00  0.00    +0.167 A 
BRANCH  17  22
ATOM      1  F   UNL     1      19.276   4.799  19.650  0.00  0.00    -0.205 F 
ATOM     22  C   UNL     1      16.998   7.970  20.993  0.00  0.00    +0.020 A 
ATOM     24  C   UNL     1      18.236   7.703  21.579  0.00  0.00    +0.014 A 
ATOM     25  C   UNL     1      16.530   7.165  19.954  0.00  0.00    +0.014 A 
ATOM     26  C   UNL     1      19.005   6.632  21.126  0.00  0.00    +0.039 A 
ATOM     27  C   UNL     1      17.299   6.094  19.501  0.00  0.00    +0.039 A 
ATOM     28  C   UNL     1      18.537   5.828  20.086  0.00  0.00    +0.123 A 
ENDBRANCH  17  22
ENDBRANCH  11  13
ENDBRANCH   8  11
TORSDOF 6
ENDMDL
MODEL 5
REMARK VINA RESULT:      -6.3      3.887      7.744
REMARK  Name = 56775490
REMARK  6 active torsions:
REMARK  status: ('A' for Active; 'I' for Inactive)
REMARK    1  A    between atoms: N_6  and  C_8
REMARK    2  A    between atoms: N_6  and  C_12
REMARK    3  A    between atoms: C_8  and  C_11
REMARK    4  A    between atoms: C_11  and  C_13
REMARK    5  A    between atoms: C_12  and  C_14
REMARK    6  A    between atoms: C_17  and  C_22
REMARK                            x       y       z     vdW  Elec       q    Type
REMARK                         _______ _______ _______ _____ _____    ______ ____
ROOT
ATOM      2  O   UNL     1      -7.273 -11.511  20.120  0.00  0.00    -0.376 OA
ATOM      8  C   UNL     1      -6.384 -11.319  18.190  0.00  0.00    +0.072 C 
ATOM      9  C   UNL     1      -7.049 -12.415  19.016  0.00  0.00    +0.184 C 
ATOM     10  C   UNL     1      -6.569 -10.453  19.429  0.00  0.00    +0.184 C 
ENDROOT
BRANCH   8   6
ATOM      6  N   UNL     1      -7.323 -10.873  17.158  0.00  0.00    -0.302 NA
ATOM     29  H   UNL     1      -8.243 -11.310  17.191  0.00  0.00    +0.123 HD
BRANCH   6  12
ATOM     12  C   UNL     1      -7.465  -9.417  17.235  0.00  0.00    +0.120 C 
BRANCH  12  14
ATOM      4  O   UNL     1      -8.291 -10.015  14.452  0.00  0.00    -0.452 OA
ATOM      5  O   UNL     1     -10.320  -9.230  13.417  0.00  0.00    -0.453 OA
ATOM     14  C   UNL     1      -8.718  -8.932  16.598  0.00  0.00    +0.012 A 
ATOM     16  C   UNL     1      -9.038  -9.251  15.294  0.00  0.00    +0.171 A 
ATOM     18  C   UNL     1      -9.615  -8.129  17.308  0.00  0.00    +0.009 A 
ATOM     19  C   UNL     1     -10.197  -8.802  14.703  0.00  0.00    +0.167 A 
ATOM     20  C   UNL     1     -10.799  -7.671  16.703  0.00  0.00    +0.004 A 
ATOM     21  C   UNL     1     -11.100  -8.010  15.383  0.00  0.00    +0.049 A 
ATOM     23  C   UNL     1      -9.109  -9.998  13.265  0.00  0.00    +0.466 C 
ENDBRANCH  12  14
ENDBRANCH   6  12
ENDBRANCH   8   6
BRANCH   8  11
ATOM     11  C   UNL     1      -5.001 -11.547  17.661  0.00  0.00    +0.085 C 
BRANCH  11  13
ATOM      3  O   UNL     1      -5.328 -12.026  14.095  0.00  0.00    -0.354 OA
ATOM      7  N   UNL     1      -5.517 -12.426  15.412  0.00  0.00    -0.083 NA
ATOM     13  C   UNL     1      -4.979 -11.451  16.150  0.00  0.00    +0.086 A 
ATOM     15  C   UNL     1      -4.440 -10.420  15.361  0.00  0.00    +0.076 A 
ATOM     17  C   UNL     1      -4.685 -10.831  14.078  0.00  0.00    +0.167 A 
BRANCH  17  22
ATOM      1  F   UNL     1      -3.656  -8.721   9.033  0.00  0.00    -0.205 F 
ATOM     22  C   UNL     1      -4.419 -10.286  12.777  0.00  0.00    +0.020 A 
ATOM     24  C   UNL     1      -5.393  -9.526  12.127  0.00  0.00    +0.014 A 
ATOM     25  C   UNL     1      -3.189 -10.516  12.163  0.00  0.00    +0.014 A 
ATOM     26  C   UNL     1      -5.135  -8.997  10.863  0.00  0.00    +0.039 A 
ATOM     27  C   UNL     1      -2.931  -9.988  10.898  0.00  0.00    +0.039 A 
ATOM     28  C   UNL     1      -3.904  -9.229  10.249  0.00  0.00    +0.123 A 
ENDBRANCH  17  22
ENDBRANCH  11  13
ENDBRANCH   8  11
TORSDOF 6
ENDMDL
MODEL 6
REMARK VINA RESULT:      -6.2      5.498      7.378
REMARK  Name = 56775490
REMARK  6 active torsions:
REMARK  status: ('A' for Active; 'I' for Inactive)
REMARK    1  A    between atoms: N_6  and  C_8
REMARK    2  A    between atoms: N_6  and  C_12
REMARK    3  A    between atoms: C_8  and  C_11
REMARK    4  A    between atoms: C_11  and  C_13
REMARK    5  A    between atoms: C_12  and  C_14
REMARK    6  A    between atoms: C_17  and  C_22
REMARK                            x       y       z     vdW  Elec       q    Type
REMARK                         _______ _______ _______ _____ _____    ______ ____
ROOT
ATOM      2  O   UNL     1      -2.334 -13.815  13.043  0.00  0.00    -0.376 OA
ATOM      8  C   UNL     1      -2.613 -12.045  14.202  0.00  0.00    +0.072 C 
ATOM      9  C   UNL     1      -3.456 -12.943  13.303  0.00  0.00    +0.184 C 
ATOM     10  C   UNL     1      -1.456 -12.955  13.805  0.00  0.00    +0.184 C 
ENDROOT
BRANCH   8   6
ATOM      6  N   UNL     1      -2.966 -12.312  15.598  0.00  0.00    -0.302 NA
ATOM     29  H   UNL     1      -2.323 -12.926  16.098  0.00  0.00    +0.123 HD
BRANCH   6  12
ATOM     12  C   UNL     1      -3.090 -11.039  16.314  0.00  0.00    +0.120 C 
BRANCH  12  14
ATOM      4  O   UNL     1      -5.756  -9.758  16.122  0.00  0.00    -0.452 OA
ATOM      5  O   UNL     1      -7.445  -9.824  17.838  0.00  0.00    -0.453 OA
ATOM     14  C   UNL     1      -4.132 -11.082  17.374  0.00  0.00    +0.012 A 
ATOM     16  C   UNL     1      -5.354 -10.460  17.215  0.00  0.00    +0.171 A 
ATOM     18  C   UNL     1      -3.901 -11.758  18.575  0.00  0.00    +0.009 A 
ATOM     19  C   UNL     1      -6.319 -10.498  18.196  0.00  0.00    +0.167 A 
ATOM     20  C   UNL     1      -4.887 -11.796  19.577  0.00  0.00    +0.004 A 
ATOM     21  C   UNL     1      -6.115 -11.160  19.390  0.00  0.00    +0.049 A 
ATOM     23  C   UNL     1      -7.082  -9.358  16.524  0.00  0.00    +0.466 C 
ENDBRANCH  12  14
ENDBRANCH   6  12
ENDBRANCH   8   6
BRANCH   8  11
ATOM     11  C   UNL     1      -2.527 -10.583  13.892  0.00  0.00    +0.085 C 
BRANCH  11  13
ATOM      3  O   UNL     1      -2.998 -10.018  10.354  0.00  0.00    -0.354 OA
ATOM      7  N   UNL     1      -2.209 -10.318  11.457  0.00  0.00    -0.083 NA
ATOM     13  C   UNL     1      -3.046 -10.297  12.498  0.00  0.00    +0.086 A 
ATOM     15  C   UNL     1      -4.364  -9.991  12.116  0.00  0.00    +0.076 A 
ATOM     17  C   UNL     1      -4.280  -9.825  10.759  0.00  0.00    +0.167 A 
BRANCH  17  22
ATOM      1  F   UNL     1      -7.921  -8.589   6.739  0.00  0.00    -0.205 F 
ATOM     22  C   UNL     1      -5.219  -9.508   9.723  0.00  0.00    +0.020 A 
ATOM     24  C   UNL     1      -4.942  -9.854   8.400  0.00  0.00    +0.014 A 
ATOM     25  C   UNL     1      -6.409  -8.852  10.037  0.00  0.00    +0.014 A 
ATOM     26  C   UNL     1      -5.854  -9.545   7.392  0.00  0.00    +0.039 A 
ATOM     27  C   UNL     1      -7.321  -8.541   9.029  0.00  0.00    +0.039 A 
ATOM     28  C   UNL     1      -7.044  -8.888   7.707  0.00  0.00    +0.123 A 
ENDBRANCH  17  22
ENDBRANCH  11  13
ENDBRANCH   8  11
TORSDOF 6
ENDMDL
MODEL 7
REMARK VINA RESULT:      -6.2     29.684     32.897
REMARK  Name = 56775490
REMARK  6 active torsions:
REMARK  status: ('A' for Active; 'I' for Inactive)
REMARK    1  A    between atoms: N_6  and  C_8
REMARK    2  A    between atoms: N_6  and  C_12
REMARK    3  A    between atoms: C_8  and  C_11
REMARK    4  A    between atoms: C_11  and  C_13
REMARK    5  A    between atoms: C_12  and  C_14
REMARK    6  A    between atoms: C_17  and  C_22
REMARK                            x       y       z     vdW  Elec       q    Type
REMARK                         _______ _______ _______ _____ _____    ______ ____
ROOT
ATOM      2  O   UNL     1      21.690   7.341  24.396  0.00  0.00    -0.376 OA
ATOM      8  C   UNL     1      21.165   6.524  22.496  0.00  0.00    +0.072 C 
ATOM      9  C   UNL     1      22.425   7.024  23.193  0.00  0.00    +0.184 C 
ATOM     10  C   UNL     1      20.444   6.972  23.762  0.00  0.00    +0.184 C 
ENDROOT
BRANCH   8   6
ATOM      6  N   UNL     1      21.194   5.061  22.462  0.00  0.00    -0.302 NA
ATOM     29  H   UNL     1      20.292   4.612  22.302  0.00  0.00    +0.123 HD
BRANCH   6  12
ATOM     12  C   UNL     1      22.151   4.623  21.442  0.00  0.00    +0.120 C 
BRANCH  12  14
ATOM      4  O   UNL     1      22.455   3.641  24.222  0.00  0.00    -0.452 OA
ATOM      5  O   UNL     1      23.620   1.629  24.854  0.00  0.00    -0.453 OA
ATOM     14  C   UNL     1      22.870   3.380  21.830  0.00  0.00    +0.012 A 
ATOM     16  C   UNL     1      22.972   2.984  23.148  0.00  0.00    +0.171 A 
ATOM     18  C   UNL     1      23.470   2.571  20.862  0.00  0.00    +0.009 A 
ATOM     19  C   UNL     1      23.638   1.835  23.509  0.00  0.00    +0.167 A 
ATOM     20  C   UNL     1      24.150   1.397  21.232  0.00  0.00    +0.004 A 
ATOM     21  C   UNL     1      24.238   1.019  22.572  0.00  0.00    +0.049 A 
ATOM     23  C   UNL     1      22.869   2.777  25.299  0.00  0.00    +0.466 C 
ENDBRANCH  12  14
ENDBRANCH   6  12
ENDBRANCH   8   6
BRANCH   8  11
ATOM     11  C   UNL     1      20.773   7.130  21.184  0.00  0.00    +0.085 C 
BRANCH  11  13
ATOM      3  O   UNL     1      17.601   5.816  20.055  0.00  0.00    -0.354 OA
ATOM      7  N   UNL     1      18.986   5.773  20.150  0.00  0.00    -0.083 NA
ATOM     13  C   UNL     1      19.318   6.847  20.873  0.00  0.00    +0.086 A 
ATOM     15  C   UNL     1      18.194   7.599  21.257  0.00  0.00    +0.076 A 
ATOM     17  C   UNL     1      17.141   6.908  20.718  0.00  0.00    +0.167 A 
BRANCH  17  22
ATOM      1  F   UNL     1      11.621   7.604  20.682  0.00  0.00    -0.205 F 
ATOM     22  C   UNL     1      15.717   7.086  20.709  0.00  0.00    +0.020 A 
ATOM     24  C   UNL     1      14.981   6.760  19.570  0.00  0.00    +0.014 A 
ATOM     25  C   UNL     1      15.070   7.587  21.838  0.00  0.00    +0.014 A 
ATOM     26  C   UNL     1      13.597   6.934  19.561  0.00  0.00    +0.039 A 
ATOM     27  C   UNL     1      13.687   7.763  21.829  0.00  0.00    +0.039 A 
ATOM     28  C   UNL     1      12.951   7.436  20.690  0.00  0.00    +0.123 A 
ENDBRANCH  17  22
ENDBRANCH  11  13
ENDBRANCH   8  11
TORSDOF 6
ENDMDL
MODEL 8
REMARK VINA RESULT:      -6.1     16.692     19.985
REMARK  Name = 56775490
REMARK  6 active torsions:
REMARK  status: ('A' for Active; 'I' for Inactive)
REMARK    1  A    between atoms: N_6  and  C_8
REMARK    2  A    between atoms: N_6  and  C_12
REMARK    3  A    between atoms: C_8  and  C_11
REMARK    4  A    between atoms: C_11  and  C_13
REMARK    5  A    between atoms: C_12  and  C_14
REMARK    6  A    between atoms: C_17  and  C_22
REMARK                            x       y       z     vdW  Elec       q    Type
REMARK                         _______ _______ _______ _____ _____    ______ ____
ROOT
ATOM      2  O   UNL     1     -12.239   8.414  14.748  0.00  0.00    -0.376 OA
ATOM      8  C   UNL     1     -11.016   9.221  16.299  0.00  0.00    +0.072 C 
ATOM      9  C   UNL     1     -10.830   8.708  14.875  0.00  0.00    +0.184 C 
ATOM     10  C   UNL     1     -12.469   8.797  16.123  0.00  0.00    +0.184 C 
ENDROOT
BRANCH   8   6
ATOM      6  N   UNL     1     -10.946  10.683  16.285  0.00  0.00    -0.302 NA
ATOM     29  H   UNL     1     -11.707  11.159  16.769  0.00  0.00    +0.123 HD
BRANCH   6  12
ATOM     12  C   UNL     1      -9.661  11.108  16.848  0.00  0.00    +0.120 C 
BRANCH  12  14
ATOM      4  O   UNL     1     -11.725  12.641  18.323  0.00  0.00    -0.452 OA
ATOM      5  O   UNL     1     -11.643  15.012  18.745  0.00  0.00    -0.453 OA
ATOM     14  C   UNL     1      -9.609  12.571  17.108  0.00  0.00    +0.012 A 
ATOM     16  C   UNL     1     -10.609  13.220  17.804  0.00  0.00    +0.171 A 
ATOM     18  C   UNL     1      -8.536  13.340  16.648  0.00  0.00    +0.009 A 
ATOM     19  C   UNL     1     -10.563  14.574  18.044  0.00  0.00    +0.167 A 
ATOM     20  C   UNL     1      -8.489  14.724  16.894  0.00  0.00    +0.004 A 
ATOM     21  C   UNL     1      -9.513  15.355  17.602  0.00  0.00    +0.049 A 
ATOM     23  C   UNL     1     -12.376  13.782  18.918  0.00  0.00    +0.466 C 
ENDBRANCH  12  14
ENDBRANCH   6  12
ENDBRANCH   8   6
BRANCH   8  11
ATOM     11  C   UNL     1     -10.208   8.609  17.401  0.00  0.00    +0.085 C 
BRANCH  11  13
ATOM      3  O   UNL     1     -12.096   8.972  20.461  0.00  0.00    -0.354 OA
ATOM      7  N   UNL     1     -11.322   9.481  19.426  0.00  0.00    -0.083 NA
ATOM     13  C   UNL     1     -11.049   8.430  18.649  0.00  0.00    +0.086 A 
ATOM     15  C   UNL     1     -11.618   7.242  19.139  0.00  0.00    +0.076 A 
ATOM     17  C   UNL     1     -12.265   7.638  20.279  0.00  0.00    +0.167 A 
BRANCH  17  22
ATOM      1  F   UNL     1     -15.316   5.043  24.141  0.00  0.00    -0.205 F 
ATOM     22  C   UNL     1     -13.051   6.969  21.276  0.00  0.00    +0.020 A 
ATOM     24  C   UNL     1     -12.713   5.677  21.680  0.00  0.00    +0.014 A 
ATOM     25  C   UNL     1     -14.154   7.610  21.840  0.00  0.00    +0.014 A 
ATOM     26  C   UNL     1     -13.477   5.026  22.648  0.00  0.00    +0.039 A 
ATOM     27  C   UNL     1     -14.919   6.959  22.807  0.00  0.00    +0.039 A 
ATOM     28  C   UNL     1     -14.581   5.667  23.211  0.00  0.00    +0.123 A 
ENDBRANCH  17  22
ENDBRANCH  11  13
ENDBRANCH   8  11
TORSDOF 6
ENDMDL
MODEL 9
REMARK VINA RESULT:      -6.1     29.829     32.973
REMARK  Name = 56775490
REMARK  6 active torsions:
REMARK  status: ('A' for Active; 'I' for Inactive)
REMARK    1  A    between atoms: N_6  and  C_8
REMARK    2  A    between atoms: N_6  and  C_12
REMARK    3  A    between atoms: C_8  and  C_11
REMARK    4  A    between atoms: C_11  and  C_13
REMARK    5  A    between atoms: C_12  and  C_14
REMARK    6  A    between atoms: C_17  and  C_22
REMARK                            x       y       z     vdW  Elec       q    Type
REMARK                         _______ _______ _______ _____ _____    ______ ____
ROOT
ATOM      2  O   UNL     1      21.602   7.611  24.533  0.00  0.00    -0.376 OA
ATOM      8  C   UNL     1      20.915   6.952  22.623  0.00  0.00    +0.072 C 
ATOM      9  C   UNL     1      22.241   7.344  23.265  0.00  0.00    +0.184 C 
ATOM     10  C   UNL     1      20.301   7.344  23.962  0.00  0.00    +0.184 C 
ENDROOT
BRANCH   8   6
ATOM      6  N   UNL     1      20.869   5.494  22.491  0.00  0.00    -0.302 NA
ATOM     29  H   UNL     1      19.941   5.103  22.333  0.00  0.00    +0.123 HD
BRANCH   6  12
ATOM     12  C   UNL     1      21.770   5.081  21.412  0.00  0.00    +0.120 C 
BRANCH  12  14
ATOM      4  O   UNL     1      24.090   4.108  19.845  0.00  0.00    -0.452 OA
ATOM      5  O   UNL     1      25.502   2.260  20.475  0.00  0.00    -0.453 OA
ATOM     14  C   UNL     1      22.641   3.941  21.802  0.00  0.00    +0.012 A 
ATOM     16  C   UNL     1      23.706   3.542  21.021  0.00  0.00    +0.171 A 
ATOM     18  C   UNL     1      22.401   3.231  22.983  0.00  0.00    +0.009 A 
ATOM     19  C   UNL     1      24.512   2.486  21.381  0.00  0.00    +0.167 A 
ATOM     20  C   UNL     1      23.225   2.153  23.349  0.00  0.00    +0.004 A 
ATOM     21  C   UNL     1      24.298   1.771  22.542  0.00  0.00    +0.049 A 
ATOM     23  C   UNL     1      25.228   3.290  19.505  0.00  0.00    +0.466 C 
ENDBRANCH  12  14
ENDBRANCH   6  12
ENDBRANCH   8   6
BRANCH   8  11
ATOM     11  C   UNL     1      20.470   7.664  21.383  0.00  0.00    +0.085 C 
BRANCH  11  13
ATOM      3  O   UNL     1      17.449   6.126  20.132  0.00  0.00    -0.354 OA
ATOM      7  N   UNL     1      18.829   6.186  20.278  0.00  0.00    -0.083 NA
ATOM     13  C   UNL     1      19.052   7.276  21.018  0.00  0.00    +0.086 A 
ATOM     15  C   UNL     1      17.862   7.937  21.366  0.00  0.00    +0.076 A 
ATOM     17  C   UNL     1      16.884   7.174  20.785  0.00  0.00    +0.167 A 
BRANCH  17  22
ATOM      1  F   UNL     1      11.332   7.454  20.553  0.00  0.00    -0.205 F 
ATOM     22  C   UNL     1      15.452   7.245  20.725  0.00  0.00    +0.020 A 
ATOM     24  C   UNL     1      14.788   6.945  19.536  0.00  0.00    +0.014 A 
ATOM     25  C   UNL     1      14.725   7.615  21.856  0.00  0.00    +0.014 A 
ATOM     26  C   UNL     1      13.396   7.015  19.477  0.00  0.00    +0.039 A 
ATOM     27  C   UNL     1      13.334   7.686  21.798  0.00  0.00    +0.039 A 
ATOM     28  C   UNL     1      12.669   7.386  20.608  0.00  0.00    +0.123 A 
ENDBRANCH  17  22
ENDBRANCH  11  13
ENDBRANCH   8  11
TORSDOF 6
ENDMDL
MODEL 10
REMARK VINA RESULT:      -6.1     28.147     31.149
REMARK  Name = 56775490
REMARK  6 active torsions:
REMARK  status: ('A' for Active; 'I' for Inactive)
REMARK    1  A    between atoms: N_6  and  C_8
REMARK    2  A    between atoms: N_6  and  C_12
REMARK    3  A    between atoms: C_8  and  C_11
REMARK    4  A    between atoms: C_11  and  C_13
REMARK    5  A    between atoms: C_12  and  C_14
REMARK    6  A    between atoms: C_17  and  C_22
REMARK                            x       y       z     vdW  Elec       q    Type
REMARK                         _______ _______ _______ _____ _____    ______ ____
ROOT
ATOM      2  O   UNL     1      12.192  14.288  20.761  0.00  0.00    -0.376 OA
ATOM      8  C   UNL     1      13.713  12.792  20.799  0.00  0.00    +0.072 C 
ATOM      9  C   UNL     1      12.424  13.101  21.553  0.00  0.00    +0.184 C 
ATOM     10  C   UNL     1      13.451  14.105  20.073  0.00  0.00    +0.184 C 
ENDROOT
BRANCH   8   6
ATOM      6  N   UNL     1      13.465  11.684  19.876  0.00  0.00    -0.302 NA
ATOM     29  H   UNL     1      14.277  11.104  19.665  0.00  0.00    +0.123 HD
BRANCH   6  12
ATOM     12  C   UNL     1      12.386  10.846  20.409  0.00  0.00    +0.120 C 
BRANCH  12  14
ATOM      4  O   UNL     1      12.836   9.920  17.630  0.00  0.00    -0.452 OA
ATOM      5  O   UNL     1      13.042   7.614  16.961  0.00  0.00    -0.453 OA
ATOM     14  C   UNL     1      12.514   9.423  19.998  0.00  0.00    +0.012 A 
ATOM     16  C   UNL     1      12.723   9.064  18.682  0.00  0.00    +0.171 A 
ATOM     18  C   UNL     1      12.423   8.396  20.943  0.00  0.00    +0.009 A 
ATOM     19  C   UNL     1      12.840   7.748  18.300  0.00  0.00    +0.167 A 
ATOM     20  C   UNL     1      12.543   7.051  20.552  0.00  0.00    +0.004 A 
ATOM     21  C   UNL     1      12.755   6.716  19.213  0.00  0.00    +0.049 A 
ATOM     23  C   UNL     1      13.038   8.994  16.543  0.00  0.00    +0.466 C 
ENDBRANCH  12  14
ENDBRANCH   6  12
ENDBRANCH   8   6
BRANCH   8  11
ATOM     11  C   UNL     1      14.985  12.631  21.574  0.00  0.00    +0.085 C 
BRANCH  11  13
ATOM      3  O   UNL     1      15.598   9.138  22.264  0.00  0.00    -0.354 OA
ATOM      7  N   UNL     1      15.013  10.364  22.553  0.00  0.00    -0.083 NA
ATOM     13  C   UNL     1      15.431  11.184  21.584  0.00  0.00    +0.086 A 
ATOM     15  C   UNL     1      16.275  10.537  20.665  0.00  0.00    +0.076 A 
ATOM     17  C   UNL     1      16.347   9.253  21.138  0.00  0.00    +0.167 A 
BRANCH  17  22
ATOM      1  F   UNL     1      18.941   4.617  19.485  0.00  0.00    -0.205 F 
ATOM     22  C   UNL     1      17.017   8.058  20.711  0.00  0.00    +0.020 A 
ATOM     24  C   UNL     1      16.398   7.200  19.802  0.00  0.00    +0.014 A 
ATOM     25  C   UNL     1      18.285   7.755  21.205  0.00  0.00    +0.014 A 
ATOM     26  C   UNL     1      17.048   6.037  19.387  0.00  0.00    +0.039 A 
ATOM     27  C   UNL     1      18.935   6.593  20.792  0.00  0.00    +0.039 A 
ATOM     28  C   UNL     1      18.316   5.734  19.883  0.00  0.00    +0.123 A 
ENDBRANCH  17  22
ENDBRANCH  11  13
ENDBRANCH   8  11
TORSDOF 6
ENDMDL
