MODEL 1
REMARK VINA RESULT:      -7.6      0.000      0.000
REMARK  Name = 40777761
REMARK  10 active torsions:
REMARK  status: ('A' for Active; 'I' for Inactive)
REMARK    1  A    between atoms: O_2  and  C_10
REMARK    2  A    between atoms: O_2  and  C_19
REMARK    3  A    between atoms: O_4  and  C_31
REMARK    4  A    between atoms: O_4  and  C_32
REMARK    5  A    between atoms: N_5  and  C_18
REMARK    6  A    between atoms: N_7  and  C_25
REMARK    7  A    between atoms: C_8  and  C_11
REMARK    8  A    between atoms: C_14  and  C_16
REMARK    9  A    between atoms: C_15  and  C_17
REMARK   10  A    between atoms: C_24  and  C_26
REMARK                            x       y       z     vdW  Elec       q    Type
REMARK                         _______ _______ _______ _____ _____    ______ ____
ROOT
ATOM      8  C   UNL     1      15.546   6.588  19.606  0.00  0.00    +0.049 C 
ATOM      9  C   UNL     1      15.016   7.607  18.578  0.00  0.00    +0.061 C 
ATOM     10  C   UNL     1      13.490   7.569  18.700  0.00  0.00    +0.202 C 
ATOM     12  C   UNL     1      14.390   6.451  20.554  0.00  0.00    -0.019 C 
ATOM     13  C   UNL     1      13.273   6.993  20.059  0.00  0.00    +0.013 C 
ENDROOT
BRANCH   8  11
ATOM      5  N   UNL     1      18.915   7.157  20.928  0.00  0.00    -0.236 N 
ATOM      6  N   UNL     1      18.333   8.231  21.490  0.00  0.00    -0.171 NA
ATOM     11  C   UNL     1      16.841   7.016  20.257  0.00  0.00    +0.003 A 
ATOM     14  C   UNL     1      18.065   6.397  20.179  0.00  0.00    +0.046 A 
ATOM     15  C   UNL     1      17.066   8.139  21.076  0.00  0.00    +0.064 A 
ATOM     16  C   UNL     1      18.484   5.173  19.468  0.00  0.00    +0.066 C 
ATOM     17  C   UNL     1      16.092   9.164  21.494  0.00  0.00    +0.068 C 
BRANCH   5  18
ATOM      1 CL   UNL     1      22.487   4.431  23.349  0.00  0.00    -0.083 Cl
ATOM     18  C   UNL     1      20.272   6.914  21.142  0.00  0.00    +0.067 A 
ATOM     20  C   UNL     1      20.672   5.915  22.030  0.00  0.00    +0.048 A 
ATOM     21  C   UNL     1      21.230   7.672  20.466  0.00  0.00    +0.028 A 
ATOM     22  C   UNL     1      22.029   5.674  22.243  0.00  0.00    +0.046 A 
ATOM     23  C   UNL     1      22.587   7.431  20.681  0.00  0.00    +0.007 A 
ATOM     24  C   UNL     1      22.987   6.432  21.569  0.00  0.00    -0.032 A 
ATOM     26  C   UNL     1      24.450   6.206  21.770  0.00  0.00    +0.045 C 
ENDBRANCH   5  18
ENDBRANCH   8  11
BRANCH  10   2
ATOM      2  O   UNL     1      12.963   8.881  18.608  0.00  0.00    -0.443 OA
BRANCH   2  19
ATOM      3  O   UNL     1      10.891   8.752  19.567  0.00  0.00    -0.226 OA
ATOM      7  N   UNL     1      12.555  10.166  20.407  0.00  0.00    -0.251 N 
ATOM     19  C   UNL     1      12.018   9.230  19.546  0.00  0.00    +0.405 C 
ATOM     33  H   UNL     1      13.518  10.442  20.227  0.00  0.00    +0.158 HD
BRANCH   7  25
ATOM     25  C   UNL     1      11.934  10.792  21.510  0.00  0.00    +0.037 A 
ATOM     27  C   UNL     1      11.593  12.144  21.445  0.00  0.00    +0.027 A 
ATOM     28  C   UNL     1      11.660  10.060  22.665  0.00  0.00    +0.027 A 
ATOM     29  C   UNL     1      10.977  12.760  22.535  0.00  0.00    +0.047 A 
ATOM     30  C   UNL     1      11.046  10.676  23.755  0.00  0.00    +0.047 A 
ATOM     31  C   UNL     1      10.704  12.027  23.689  0.00  0.00    +0.120 A 
BRANCH  31   4
ATOM      4  O   UNL     1      10.103  12.629  24.752  0.00  0.00    -0.495 OA
ATOM     32  C   UNL     1      10.870  13.594  25.471  0.00  0.00    +0.277 C 
ENDBRANCH  31   4
ENDBRANCH   7  25
ENDBRANCH   2  19
ENDBRANCH  10   2
TORSDOF 6
ENDMDL
MODEL 2
REMARK VINA RESULT:      -7.5     28.667     30.238
REMARK  Name = 40777761
REMARK  10 active torsions:
REMARK  status: ('A' for Active; 'I' for Inactive)
REMARK    1  A    between atoms: O_2  and  C_10
REMARK    2  A    between atoms: O_2  and  C_19
REMARK    3  A    between atoms: O_4  and  C_31
REMARK    4  A    between atoms: O_4  and  C_32
REMARK    5  A    between atoms: N_5  and  C_18
REMARK    6  A    between atoms: N_7  and  C_25
REMARK    7  A    between atoms: C_8  and  C_11
REMARK    8  A    between atoms: C_14  and  C_16
REMARK    9  A    between atoms: C_15  and  C_17
REMARK   10  A    between atoms: C_24  and  C_26
REMARK                            x       y       z     vdW  Elec       q    Type
REMARK                         _______ _______ _______ _____ _____    ______ ____
ROOT
ATOM      8  C   UNL     1      -5.137 -12.998  17.893  0.00  0.00    +0.049 C 
ATOM      9  C   UNL     1      -6.487 -12.348  18.253  0.00  0.00    +0.061 C 
ATOM     10  C   UNL     1      -6.292 -11.716  19.634  0.00  0.00    +0.202 C 
ATOM     12  C   UNL     1      -4.176 -12.271  18.789  0.00  0.00    -0.019 C 
ATOM     13  C   UNL     1      -4.810 -11.568  19.732  0.00  0.00    +0.013 C 
ENDROOT
BRANCH   8  11
ATOM      5  N   UNL     1      -4.412 -12.212  14.389  0.00  0.00    -0.236 N 
ATOM      6  N   UNL     1      -4.247 -13.543  14.297  0.00  0.00    -0.171 NA
ATOM     11  C   UNL     1      -4.807 -12.910  16.420  0.00  0.00    +0.003 A 
ATOM     14  C   UNL     1      -4.747 -11.782  15.639  0.00  0.00    +0.046 A 
ATOM     15  C   UNL     1      -4.490 -13.964  15.541  0.00  0.00    +0.064 A 
ATOM     16  C   UNL     1      -4.976 -10.362  15.975  0.00  0.00    +0.066 C 
ATOM     17  C   UNL     1      -4.405 -15.403  15.849  0.00  0.00    +0.068 C 
BRANCH   5  18
ATOM      1 CL   UNL     1      -1.211  -9.547  11.438  0.00  0.00    -0.083 Cl
ATOM     18  C   UNL     1      -4.236 -11.413  13.258  0.00  0.00    +0.067 A 
ATOM     20  C   UNL     1      -2.968 -10.928  12.936  0.00  0.00    +0.048 A 
ATOM     21  C   UNL     1      -5.329 -11.100  12.449  0.00  0.00    +0.028 A 
ATOM     22  C   UNL     1      -2.793 -10.130  11.806  0.00  0.00    +0.046 A 
ATOM     23  C   UNL     1      -5.154 -10.300  11.320  0.00  0.00    +0.007 A 
ATOM     24  C   UNL     1      -3.886  -9.816  10.998  0.00  0.00    -0.032 A 
ATOM     26  C   UNL     1      -3.741  -8.963   9.779  0.00  0.00    +0.045 C 
ENDBRANCH   5  18
ENDBRANCH   8  11
BRANCH  10   2
ATOM      2  O   UNL     1      -6.938 -10.456  19.687  0.00  0.00    -0.443 OA
BRANCH   2  19
ATOM      3  O   UNL     1      -9.094 -11.001  19.155  0.00  0.00    -0.226 OA
ATOM      7  N   UNL     1      -7.915  -9.344  17.996  0.00  0.00    -0.251 N 
ATOM     19  C   UNL     1      -8.092 -10.326  18.951  0.00  0.00    +0.405 C 
ATOM     33  H   UNL     1      -7.005  -8.890  17.982  0.00  0.00    +0.158 HD
BRANCH   7  25
ATOM     25  C   UNL     1      -8.843  -8.890  17.032  0.00  0.00    +0.037 A 
ATOM     27  C   UNL     1      -8.814  -9.408  15.737  0.00  0.00    +0.027 A 
ATOM     28  C   UNL     1      -9.788  -7.923  17.375  0.00  0.00    +0.027 A 
ATOM     29  C   UNL     1      -9.732  -8.959  14.787  0.00  0.00    +0.047 A 
ATOM     30  C   UNL     1     -10.705  -7.474  16.426  0.00  0.00    +0.047 A 
ATOM     31  C   UNL     1     -10.677  -7.993  15.131  0.00  0.00    +0.120 A 
BRANCH  31   4
ATOM      4  O   UNL     1     -11.573  -7.557  14.203  0.00  0.00    -0.495 OA
ATOM     32  C   UNL     1     -12.106  -6.245  14.382  0.00  0.00    +0.277 C 
ENDBRANCH  31   4
ENDBRANCH   7  25
ENDBRANCH   2  19
ENDBRANCH  10   2
TORSDOF 6
ENDMDL
MODEL 3
REMARK VINA RESULT:      -7.5     27.977     30.897
REMARK  Name = 40777761
REMARK  10 active torsions:
REMARK  status: ('A' for Active; 'I' for Inactive)
REMARK    1  A    between atoms: O_2  and  C_10
REMARK    2  A    between atoms: O_2  and  C_19
REMARK    3  A    between atoms: O_4  and  C_31
REMARK    4  A    between atoms: O_4  and  C_32
REMARK    5  A    between atoms: N_5  and  C_18
REMARK    6  A    between atoms: N_7  and  C_25
REMARK    7  A    between atoms: C_8  and  C_11
REMARK    8  A    between atoms: C_14  and  C_16
REMARK    9  A    between atoms: C_15  and  C_17
REMARK   10  A    between atoms: C_24  and  C_26
REMARK                            x       y       z     vdW  Elec       q    Type
REMARK                         _______ _______ _______ _____ _____    ______ ____
ROOT
ATOM      8  C   UNL     1      -3.773 -10.477  10.733  0.00  0.00    +0.049 C 
ATOM      9  C   UNL     1      -3.641 -11.001  12.176  0.00  0.00    +0.061 C 
ATOM     10  C   UNL     1      -2.182 -10.766  12.575  0.00  0.00    +0.202 C 
ATOM     12  C   UNL     1      -2.599  -9.549  10.615  0.00  0.00    -0.019 C 
ATOM     13  C   UNL     1      -1.737  -9.704  11.625  0.00  0.00    +0.013 C 
ENDROOT
BRANCH   8  11
ATOM      5  N   UNL     1      -6.870  -8.964   9.490  0.00  0.00    -0.236 N 
ATOM      6  N   UNL     1      -7.159  -8.881  10.801  0.00  0.00    -0.171 NA
ATOM     11  C   UNL     1      -5.111  -9.832  10.452  0.00  0.00    +0.003 A 
ATOM     14  C   UNL     1      -5.655  -9.528   9.228  0.00  0.00    +0.046 A 
ATOM     15  C   UNL     1      -6.080  -9.413  11.383  0.00  0.00    +0.064 A 
ATOM     16  C   UNL     1      -5.130  -9.723   7.862  0.00  0.00    +0.066 C 
ATOM     17  C   UNL     1      -6.020  -9.501  12.853  0.00  0.00    +0.068 C 
BRANCH   5  18
ATOM      1 CL   UNL     1     -10.627 -10.042   6.208  0.00  0.00    -0.083 Cl
ATOM     18  C   UNL     1      -7.786  -8.495   8.548  0.00  0.00    +0.067 A 
ATOM     20  C   UNL     1      -8.654  -9.384   7.915  0.00  0.00    +0.048 A 
ATOM     21  C   UNL     1      -7.833  -7.134   8.241  0.00  0.00    +0.028 A 
ATOM     22  C   UNL     1      -9.569  -8.913   6.973  0.00  0.00    +0.046 A 
ATOM     23  C   UNL     1      -8.747  -6.664   7.298  0.00  0.00    +0.007 A 
ATOM     24  C   UNL     1      -9.615  -7.554   6.664  0.00  0.00    -0.032 A 
ATOM     26  C   UNL     1     -10.580  -7.009   5.660  0.00  0.00    +0.045 C 
ENDBRANCH   5  18
ENDBRANCH   8  11
BRANCH  10   2
ATOM      2  O   UNL     1      -2.111 -10.315  13.916  0.00  0.00    -0.443 OA
BRANCH   2  19
ATOM      3  O   UNL     1      -2.739 -12.293  14.876  0.00  0.00    -0.226 OA
ATOM      7  N   UNL     1      -3.456 -10.230  15.716  0.00  0.00    -0.251 N 
ATOM     19  C   UNL     1      -2.778 -11.070  14.854  0.00  0.00    +0.405 C 
ATOM     33  H   UNL     1      -3.365  -9.232  15.536  0.00  0.00    +0.158 HD
BRANCH   7  25
ATOM     25  C   UNL     1      -4.263 -10.584  16.820  0.00  0.00    +0.037 A 
ATOM     27  C   UNL     1      -3.726 -11.332  17.867  0.00  0.00    +0.027 A 
ATOM     28  C   UNL     1      -5.599 -10.184  16.863  0.00  0.00    +0.027 A 
ATOM     29  C   UNL     1      -4.524 -11.679  18.958  0.00  0.00    +0.047 A 
ATOM     30  C   UNL     1      -6.398 -10.531  17.953  0.00  0.00    +0.047 A 
ATOM     31  C   UNL     1      -5.859 -11.279  19.001  0.00  0.00    +0.120 A 
BRANCH  31   4
ATOM      4  O   UNL     1      -6.637 -11.617  20.065  0.00  0.00    -0.495 OA
ATOM     32  C   UNL     1      -7.785 -12.424  19.801  0.00  0.00    +0.277 C 
ENDBRANCH  31   4
ENDBRANCH   7  25
ENDBRANCH   2  19
ENDBRANCH  10   2
TORSDOF 6
ENDMDL
MODEL 4
REMARK VINA RESULT:      -7.2     27.391     30.211
REMARK  Name = 40777761
REMARK  10 active torsions:
REMARK  status: ('A' for Active; 'I' for Inactive)
REMARK    1  A    between atoms: O_2  and  C_10
REMARK    2  A    between atoms: O_2  and  C_19
REMARK    3  A    between atoms: O_4  and  C_31
REMARK    4  A    between atoms: O_4  and  C_32
REMARK    5  A    between atoms: N_5  and  C_18
REMARK    6  A    between atoms: N_7  and  C_25
REMARK    7  A    between atoms: C_8  and  C_11
REMARK    8  A    between atoms: C_14  and  C_16
REMARK    9  A    between atoms: C_15  and  C_17
REMARK   10  A    between atoms: C_24  and  C_26
REMARK                            x       y       z     vdW  Elec       q    Type
REMARK                         _______ _______ _______ _____ _____    ______ ____
ROOT
ATOM      8  C   UNL     1      -3.902 -11.346  16.867  0.00  0.00    +0.049 C 
ATOM      9  C   UNL     1      -4.846 -12.557  17.000  0.00  0.00    +0.061 C 
ATOM     10  C   UNL     1      -5.813 -12.210  18.136  0.00  0.00    +0.202 C 
ATOM     12  C   UNL     1      -4.688 -10.247  17.521  0.00  0.00    -0.019 C 
ATOM     13  C   UNL     1      -5.733 -10.722  18.206  0.00  0.00    +0.013 C 
ENDROOT
BRANCH   8  11
ATOM      5  N   UNL     1      -3.472 -10.787  13.272  0.00  0.00    -0.236 N 
ATOM      6  N   UNL     1      -2.215 -10.481  13.638  0.00  0.00    -0.171 NA
ATOM     11  C   UNL     1      -3.497 -11.060  15.438  0.00  0.00    +0.003 A 
ATOM     14  C   UNL     1      -4.280 -11.139  14.312  0.00  0.00    +0.046 A 
ATOM     15  C   UNL     1      -2.237 -10.651  14.963  0.00  0.00    +0.064 A 
ATOM     16  C   UNL     1      -5.699 -11.512  14.147  0.00  0.00    +0.066 C 
ATOM     17  C   UNL     1      -1.012 -10.404  15.745  0.00  0.00    +0.068 C 
BRANCH   5  18
ATOM      1 CL   UNL     1      -5.501  -8.051   9.471  0.00  0.00    -0.083 Cl
ATOM     18  C   UNL     1      -3.835 -10.723  11.925  0.00  0.00    +0.067 A 
ATOM     20  C   UNL     1      -4.418  -9.564  11.414  0.00  0.00    +0.048 A 
ATOM     21  C   UNL     1      -3.614 -11.820  11.092  0.00  0.00    +0.028 A 
ATOM     22  C   UNL     1      -4.781  -9.501  10.069  0.00  0.00    +0.046 A 
ATOM     23  C   UNL     1      -3.979 -11.757   9.747  0.00  0.00    +0.007 A 
ATOM     24  C   UNL     1      -4.562 -10.597   9.235  0.00  0.00    -0.032 A 
ATOM     26  C   UNL     1      -4.937 -10.571   7.789  0.00  0.00    +0.045 C 
ENDBRANCH   5  18
ENDBRANCH   8  11
BRANCH  10   2
ATOM      2  O   UNL     1      -7.123 -12.638  17.805  0.00  0.00    -0.443 OA
BRANCH   2  19
ATOM      3  O   UNL     1      -8.707 -11.693  19.156  0.00  0.00    -0.226 OA
ATOM      7  N   UNL     1      -8.392 -10.994  16.945  0.00  0.00    -0.251 N 
ATOM     19  C   UNL     1      -8.143 -11.754  18.071  0.00  0.00    +0.405 C 
ATOM     33  H   UNL     1      -7.814 -11.193  16.132  0.00  0.00    +0.158 HD
BRANCH   7  25
ATOM     25  C   UNL     1      -9.354  -9.972  16.780  0.00  0.00    +0.037 A 
ATOM     27  C   UNL     1     -10.568 -10.250  16.153  0.00  0.00    +0.027 A 
ATOM     28  C   UNL     1      -9.089  -8.684  17.245  0.00  0.00    +0.027 A 
ATOM     29  C   UNL     1     -11.517  -9.240  15.992  0.00  0.00    +0.047 A 
ATOM     30  C   UNL     1     -10.037  -7.674  17.084  0.00  0.00    +0.047 A 
ATOM     31  C   UNL     1     -11.252  -7.953  16.457  0.00  0.00    +0.120 A 
BRANCH  31   4
ATOM      4  O   UNL     1     -12.179  -6.968  16.300  0.00  0.00    -0.495 OA
ATOM     32  C   UNL     1     -11.943  -6.014  15.265  0.00  0.00    +0.277 C 
ENDBRANCH  31   4
ENDBRANCH   7  25
ENDBRANCH   2  19
ENDBRANCH  10   2
TORSDOF 6
ENDMDL
MODEL 5
REMARK VINA RESULT:      -7.1     28.113     30.854
REMARK  Name = 40777761
REMARK  10 active torsions:
REMARK  status: ('A' for Active; 'I' for Inactive)
REMARK    1  A    between atoms: O_2  and  C_10
REMARK    2  A    between atoms: O_2  and  C_19
REMARK    3  A    between atoms: O_4  and  C_31
REMARK    4  A    between atoms: O_4  and  C_32
REMARK    5  A    between atoms: N_5  and  C_18
REMARK    6  A    between atoms: N_7  and  C_25
REMARK    7  A    between atoms: C_8  and  C_11
REMARK    8  A    between atoms: C_14  and  C_16
REMARK    9  A    between atoms: C_15  and  C_17
REMARK   10  A    between atoms: C_24  and  C_26
REMARK                            x       y       z     vdW  Elec       q    Type
REMARK                         _______ _______ _______ _____ _____    ______ ____
ROOT
ATOM      8  C   UNL     1      -3.491 -11.282  10.986  0.00  0.00    +0.049 C 
ATOM      9  C   UNL     1      -3.806 -11.463  12.484  0.00  0.00    +0.061 C 
ATOM     10  C   UNL     1      -2.541 -11.036  13.232  0.00  0.00    +0.202 C 
ATOM     12  C   UNL     1      -2.343 -10.316  11.009  0.00  0.00    -0.019 C 
ATOM     13  C   UNL     1      -1.832 -10.179  12.237  0.00  0.00    +0.013 C 
ENDROOT
BRANCH   8  11
ATOM      5  N   UNL     1      -6.380  -9.699   9.383  0.00  0.00    -0.236 N 
ATOM      6  N   UNL     1      -6.321 -10.780   8.586  0.00  0.00    -0.171 NA
ATOM     11  C   UNL     1      -4.682 -10.819  10.178  0.00  0.00    +0.003 A 
ATOM     14  C   UNL     1      -5.420  -9.674  10.352  0.00  0.00    +0.046 A 
ATOM     15  C   UNL     1      -5.281 -11.460   9.077  0.00  0.00    +0.064 A 
ATOM     16  C   UNL     1      -5.292  -8.583  11.339  0.00  0.00    +0.066 C 
ATOM     17  C   UNL     1      -4.891 -12.737   8.451  0.00  0.00    +0.068 C 
BRANCH   5  18
ATOM      1 CL   UNL     1     -11.196  -8.200  10.165  0.00  0.00    -0.083 Cl
ATOM     18  C   UNL     1      -7.367  -8.735   9.169  0.00  0.00    +0.067 A 
ATOM     20  C   UNL     1      -8.643  -8.912   9.704  0.00  0.00    +0.048 A 
ATOM     21  C   UNL     1      -7.075  -7.595   8.420  0.00  0.00    +0.028 A 
ATOM     22  C   UNL     1      -9.629  -7.948   9.489  0.00  0.00    +0.046 A 
ATOM     23  C   UNL     1      -8.062  -6.632   8.204  0.00  0.00    +0.007 A 
ATOM     24  C   UNL     1      -9.338  -6.809   8.739  0.00  0.00    -0.032 A 
ATOM     26  C   UNL     1     -10.366  -5.754   8.485  0.00  0.00    +0.045 C 
ENDBRANCH   5  18
ENDBRANCH   8  11
BRANCH  10   2
ATOM      2  O   UNL     1      -2.887 -10.297  14.390  0.00  0.00    -0.443 OA
BRANCH   2  19
ATOM      3  O   UNL     1      -3.537 -12.161  15.543  0.00  0.00    -0.226 OA
ATOM      7  N   UNL     1      -4.450 -10.053  15.988  0.00  0.00    -0.251 N 
ATOM     19  C   UNL     1      -3.630 -10.957  15.341  0.00  0.00    +0.405 C 
ATOM     33  H   UNL     1      -4.384  -9.086  15.678  0.00  0.00    +0.158 HD
BRANCH   7  25
ATOM     25  C   UNL     1      -5.372 -10.303  17.028  0.00  0.00    +0.037 A 
ATOM     27  C   UNL     1      -4.939 -10.885  18.220  0.00  0.00    +0.027 A 
ATOM     28  C   UNL     1      -6.716  -9.968  16.864  0.00  0.00    +0.027 A 
ATOM     29  C   UNL     1      -5.851 -11.131  19.247  0.00  0.00    +0.047 A 
ATOM     30  C   UNL     1      -7.628 -10.214  17.891  0.00  0.00    +0.047 A 
ATOM     31  C   UNL     1      -7.194 -10.795  19.083  0.00  0.00    +0.120 A 
BRANCH  31   4
ATOM      4  O   UNL     1      -8.083 -11.034  20.086  0.00  0.00    -0.495 OA
ATOM     32  C   UNL     1      -9.349 -11.579  19.716  0.00  0.00    +0.277 C 
ENDBRANCH  31   4
ENDBRANCH   7  25
ENDBRANCH   2  19
ENDBRANCH  10   2
TORSDOF 6
ENDMDL
MODEL 6
REMARK VINA RESULT:      -7.1     28.570     31.088
REMARK  Name = 40777761
REMARK  10 active torsions:
REMARK  status: ('A' for Active; 'I' for Inactive)
REMARK    1  A    between atoms: O_2  and  C_10
REMARK    2  A    between atoms: O_2  and  C_19
REMARK    3  A    between atoms: O_4  and  C_31
REMARK    4  A    between atoms: O_4  and  C_32
REMARK    5  A    between atoms: N_5  and  C_18
REMARK    6  A    between atoms: N_7  and  C_25
REMARK    7  A    between atoms: C_8  and  C_11
REMARK    8  A    between atoms: C_14  and  C_16
REMARK    9  A    between atoms: C_15  and  C_17
REMARK   10  A    between atoms: C_24  and  C_26
REMARK                            x       y       z     vdW  Elec       q    Type
REMARK                         _______ _______ _______ _____ _____    ______ ____
ROOT
ATOM      8  C   UNL     1      -5.371 -12.855  18.257  0.00  0.00    +0.049 C 
ATOM      9  C   UNL     1      -6.870 -12.533  18.412  0.00  0.00    +0.061 C 
ATOM     10  C   UNL     1      -6.995 -11.740  19.716  0.00  0.00    +0.202 C 
ATOM     12  C   UNL     1      -4.724 -11.827  19.138  0.00  0.00    -0.019 C 
ATOM     13  C   UNL     1      -5.613 -11.216  19.927  0.00  0.00    +0.013 C 
ENDROOT
BRANCH   8  11
ATOM      5  N   UNL     1      -4.226 -12.220  14.835  0.00  0.00    -0.236 N 
ATOM      6  N   UNL     1      -4.254 -13.561  14.754  0.00  0.00    -0.171 NA
ATOM     11  C   UNL     1      -4.901 -12.832  16.820  0.00  0.00    +0.003 A 
ATOM     14  C   UNL     1      -4.603 -11.732  16.052  0.00  0.00    +0.046 A 
ATOM     15  C   UNL     1      -4.668 -13.929  15.969  0.00  0.00    +0.064 A 
ATOM     16  C   UNL     1      -4.647 -10.291  16.371  0.00  0.00    +0.066 C 
ATOM     17  C   UNL     1      -4.827 -15.362  16.277  0.00  0.00    +0.068 C 
BRANCH   5  18
ATOM      1 CL   UNL     1      -5.612  -9.371  10.834  0.00  0.00    -0.083 Cl
ATOM     18  C   UNL     1      -3.832 -11.467  13.727  0.00  0.00    +0.067 A 
ATOM     20  C   UNL     1      -4.792 -10.859  12.919  0.00  0.00    +0.048 A 
ATOM     21  C   UNL     1      -2.476 -11.324  13.430  0.00  0.00    +0.028 A 
ATOM     22  C   UNL     1      -4.397 -10.108  11.812  0.00  0.00    +0.046 A 
ATOM     23  C   UNL     1      -2.082 -10.574  12.322  0.00  0.00    +0.007 A 
ATOM     24  C   UNL     1      -3.042  -9.966  11.513  0.00  0.00    -0.032 A 
ATOM     26  C   UNL     1      -2.577  -9.171  10.336  0.00  0.00    +0.045 C 
ENDBRANCH   5  18
ENDBRANCH   8  11
BRANCH  10   2
ATOM      2  O   UNL     1      -7.924 -10.683  19.555  0.00  0.00    -0.443 OA
BRANCH   2  19
ATOM      3  O   UNL     1      -9.637 -12.098  20.097  0.00  0.00    -0.226 OA
ATOM      7  N   UNL     1     -10.028  -9.931  19.305  0.00  0.00    -0.251 N 
ATOM     19  C   UNL     1      -9.254 -11.008  19.691  0.00  0.00    +0.405 C 
ATOM     33  H   UNL     1      -9.523  -9.103  18.994  0.00  0.00    +0.158 HD
BRANCH   7  25
ATOM     25  C   UNL     1     -11.437  -9.834  19.287  0.00  0.00    +0.037 A 
ATOM     27  C   UNL     1     -12.159  -9.920  20.477  0.00  0.00    +0.027 A 
ATOM     28  C   UNL     1     -12.108  -9.651  18.077  0.00  0.00    +0.027 A 
ATOM     29  C   UNL     1     -13.550  -9.822  20.458  0.00  0.00    +0.047 A 
ATOM     30  C   UNL     1     -13.499  -9.553  18.057  0.00  0.00    +0.047 A 
ATOM     31  C   UNL     1     -14.220  -9.639  19.249  0.00  0.00    +0.120 A 
BRANCH  31   4
ATOM      4  O   UNL     1     -15.578  -9.543  19.231  0.00  0.00    -0.495 OA
ATOM     32  C   UNL     1     -16.158  -8.744  18.200  0.00  0.00    +0.277 C 
ENDBRANCH  31   4
ENDBRANCH   7  25
ENDBRANCH   2  19
ENDBRANCH  10   2
TORSDOF 6
ENDMDL
MODEL 7
REMARK VINA RESULT:      -7.0     16.765     20.812
REMARK  Name = 40777761
REMARK  10 active torsions:
REMARK  status: ('A' for Active; 'I' for Inactive)
REMARK    1  A    between atoms: O_2  and  C_10
REMARK    2  A    between atoms: O_2  and  C_19
REMARK    3  A    between atoms: O_4  and  C_31
REMARK    4  A    between atoms: O_4  and  C_32
REMARK    5  A    between atoms: N_5  and  C_18
REMARK    6  A    between atoms: N_7  and  C_25
REMARK    7  A    between atoms: C_8  and  C_11
REMARK    8  A    between atoms: C_14  and  C_16
REMARK    9  A    between atoms: C_15  and  C_17
REMARK   10  A    between atoms: C_24  and  C_26
REMARK                            x       y       z     vdW  Elec       q    Type
REMARK                         _______ _______ _______ _____ _____    ______ ____
ROOT
ATOM      8  C   UNL     1       9.549   8.875   7.241  0.00  0.00    +0.049 C 
ATOM      9  C   UNL     1      10.873   8.216   6.811  0.00  0.00    +0.061 C 
ATOM     10  C   UNL     1      10.990   6.933   7.639  0.00  0.00    +0.202 C 
ATOM     12  C   UNL     1       8.793   7.727   7.842  0.00  0.00    -0.019 C 
ATOM     13  C   UNL     1       9.580   6.667   8.052  0.00  0.00    +0.013 C 
ENDROOT
BRANCH   8  11
ATOM      5  N   UNL     1       7.677  10.020   4.307  0.00  0.00    -0.236 N 
ATOM      6  N   UNL     1       8.011  11.235   4.774  0.00  0.00    -0.171 NA
ATOM     11  C   UNL     1       8.832   9.569   6.104  0.00  0.00    +0.003 A 
ATOM     14  C   UNL     1       8.143   8.988   5.068  0.00  0.00    +0.046 A 
ATOM     15  C   UNL     1       8.717  10.953   5.872  0.00  0.00    +0.064 A 
ATOM     16  C   UNL     1       7.896   7.568   4.747  0.00  0.00    +0.066 C 
ATOM     17  C   UNL     1       9.269  12.055   6.682  0.00  0.00    +0.068 C 
BRANCH   5  18
ATOM      1 CL   UNL     1       3.091  10.361   2.091  0.00  0.00    -0.083 Cl
ATOM     18  C   UNL     1       6.917   9.912   3.141  0.00  0.00    +0.067 A 
ATOM     20  C   UNL     1       5.545  10.158   3.176  0.00  0.00    +0.048 A 
ATOM     21  C   UNL     1       7.532   9.557   1.940  0.00  0.00    +0.028 A 
ATOM     22  C   UNL     1       4.786  10.050   2.010  0.00  0.00    +0.046 A 
ATOM     23  C   UNL     1       6.773   9.447   0.774  0.00  0.00    +0.007 A 
ATOM     24  C   UNL     1       5.400   9.693   0.810  0.00  0.00    -0.032 A 
ATOM     26  C   UNL     1       4.624   9.565  -0.461  0.00  0.00    +0.045 C 
ENDBRANCH   5  18
ENDBRANCH   8  11
BRANCH  10   2
ATOM      2  O   UNL     1      11.496   5.881   6.836  0.00  0.00    -0.443 OA
BRANCH   2  19
ATOM      3  O   UNL     1       9.627   4.943   5.911  0.00  0.00    -0.226 OA
ATOM      7  N   UNL     1      11.356   5.810   4.594  0.00  0.00    -0.251 N 
ATOM     19  C   UNL     1      10.715   5.488   5.774  0.00  0.00    +0.405 C 
ATOM     33  H   UNL     1      12.262   6.264   4.684  0.00  0.00    +0.158 HD
BRANCH   7  25
ATOM     25  C   UNL     1      10.911   5.585   3.272  0.00  0.00    +0.037 A 
ATOM     27  C   UNL     1      10.950   4.300   2.730  0.00  0.00    +0.027 A 
ATOM     28  C   UNL     1      10.432   6.649   2.507  0.00  0.00    +0.027 A 
ATOM     29  C   UNL     1      10.508   4.080   1.425  0.00  0.00    +0.047 A 
ATOM     30  C   UNL     1       9.991   6.429   1.202  0.00  0.00    +0.047 A 
ATOM     31  C   UNL     1      10.030   5.143   0.662  0.00  0.00    +0.120 A 
BRANCH  31   4
ATOM      4  O   UNL     1       9.598   4.927  -0.611  0.00  0.00    -0.495 OA
ATOM     32  C   UNL     1      10.586   4.580  -1.581  0.00  0.00    +0.277 C 
ENDBRANCH  31   4
ENDBRANCH   7  25
ENDBRANCH   2  19
ENDBRANCH  10   2
TORSDOF 6
ENDMDL
MODEL 8
REMARK VINA RESULT:      -7.0     28.874     32.860
REMARK  Name = 40777761
REMARK  10 active torsions:
REMARK  status: ('A' for Active; 'I' for Inactive)
REMARK    1  A    between atoms: O_2  and  C_10
REMARK    2  A    between atoms: O_2  and  C_19
REMARK    3  A    between atoms: O_4  and  C_31
REMARK    4  A    between atoms: O_4  and  C_32
REMARK    5  A    between atoms: N_5  and  C_18
REMARK    6  A    between atoms: N_7  and  C_25
REMARK    7  A    between atoms: C_8  and  C_11
REMARK    8  A    between atoms: C_14  and  C_16
REMARK    9  A    between atoms: C_15  and  C_17
REMARK   10  A    between atoms: C_24  and  C_26
REMARK                            x       y       z     vdW  Elec       q    Type
REMARK                         _______ _______ _______ _____ _____    ______ ____
ROOT
ATOM      8  C   UNL     1     -10.002  -7.329   7.722  0.00  0.00    +0.049 C 
ATOM      9  C   UNL     1      -8.900  -7.932   8.615  0.00  0.00    +0.061 C 
ATOM     10  C   UNL     1      -7.889  -8.570   7.657  0.00  0.00    +0.202 C 
ATOM     12  C   UNL     1      -9.313  -7.199   6.395  0.00  0.00    -0.019 C 
ATOM     13  C   UNL     1      -8.158  -7.871   6.366  0.00  0.00    +0.013 C 
ENDROOT
BRANCH   8  11
ATOM      5  N   UNL     1     -11.887  -4.458   8.998  0.00  0.00    -0.236 N 
ATOM      6  N   UNL     1     -10.667  -3.898   9.065  0.00  0.00    -0.171 NA
ATOM     11  C   UNL     1     -10.567  -6.035   8.263  0.00  0.00    +0.003 A 
ATOM     14  C   UNL     1     -11.882  -5.738   8.526  0.00  0.00    +0.046 A 
ATOM     15  C   UNL     1      -9.865  -4.866   8.614  0.00  0.00    +0.064 A 
ATOM     16  C   UNL     1     -13.105  -6.550   8.369  0.00  0.00    +0.066 C 
ATOM     17  C   UNL     1      -8.412  -4.626   8.537  0.00  0.00    +0.068 C 
BRANCH   5  18
ATOM      1 CL   UNL     1     -14.982  -3.027  12.796  0.00  0.00    -0.083 Cl
ATOM     18  C   UNL     1     -13.007  -3.727   9.398  0.00  0.00    +0.067 A 
ATOM     20  C   UNL     1     -13.402  -3.730  10.735  0.00  0.00    +0.048 A 
ATOM     21  C   UNL     1     -13.731  -2.993   8.457  0.00  0.00    +0.028 A 
ATOM     22  C   UNL     1     -14.522  -3.000  11.134  0.00  0.00    +0.046 A 
ATOM     23  C   UNL     1     -14.851  -2.264   8.856  0.00  0.00    +0.007 A 
ATOM     24  C   UNL     1     -15.246  -2.267  10.194  0.00  0.00    -0.032 A 
ATOM     26  C   UNL     1     -16.452  -1.473  10.579  0.00  0.00    +0.045 C 
ENDBRANCH   5  18
ENDBRANCH   8  11
BRANCH  10   2
ATOM      2  O   UNL     1      -6.569  -8.323   8.109  0.00  0.00    -0.443 OA
BRANCH   2  19
ATOM      3  O   UNL     1      -6.251 -10.493   8.755  0.00  0.00    -0.226 OA
ATOM      7  N   UNL     1      -5.106  -8.722   9.768  0.00  0.00    -0.251 N 
ATOM     19  C   UNL     1      -5.989  -9.303   8.880  0.00  0.00    +0.405 C 
ATOM     33  H   UNL     1      -5.023  -7.708   9.721  0.00  0.00    +0.158 HD
BRANCH   7  25
ATOM     25  C   UNL     1      -4.301  -9.359  10.739  0.00  0.00    +0.037 A 
ATOM     27  C   UNL     1      -2.931  -9.507  10.522  0.00  0.00    +0.027 A 
ATOM     28  C   UNL     1      -4.876  -9.841  11.914  0.00  0.00    +0.027 A 
ATOM     29  C   UNL     1      -2.137 -10.135  11.482  0.00  0.00    +0.047 A 
ATOM     30  C   UNL     1      -4.083 -10.469  12.875  0.00  0.00    +0.047 A 
ATOM     31  C   UNL     1      -2.713 -10.616  12.657  0.00  0.00    +0.120 A 
BRANCH  31   4
ATOM      4  O   UNL     1      -1.937 -11.228  13.594  0.00  0.00    -0.495 OA
ATOM     32  C   UNL     1      -1.927 -10.658  14.902  0.00  0.00    +0.277 C 
ENDBRANCH  31   4
ENDBRANCH   7  25
ENDBRANCH   2  19
ENDBRANCH  10   2
TORSDOF 6
ENDMDL
MODEL 9
REMARK VINA RESULT:      -6.9     28.166     30.898
REMARK  Name = 40777761
REMARK  10 active torsions:
REMARK  status: ('A' for Active; 'I' for Inactive)
REMARK    1  A    between atoms: O_2  and  C_10
REMARK    2  A    between atoms: O_2  and  C_19
REMARK    3  A    between atoms: O_4  and  C_31
REMARK    4  A    between atoms: O_4  and  C_32
REMARK    5  A    between atoms: N_5  and  C_18
REMARK    6  A    between atoms: N_7  and  C_25
REMARK    7  A    between atoms: C_8  and  C_11
REMARK    8  A    between atoms: C_14  and  C_16
REMARK    9  A    between atoms: C_15  and  C_17
REMARK   10  A    between atoms: C_24  and  C_26
REMARK                            x       y       z     vdW  Elec       q    Type
REMARK                         _______ _______ _______ _____ _____    ______ ____
ROOT
ATOM      8  C   UNL     1      -3.939 -11.078  16.942  0.00  0.00    +0.049 C 
ATOM      9  C   UNL     1      -4.776 -12.349  17.184  0.00  0.00    +0.061 C 
ATOM     10  C   UNL     1      -5.807 -11.974  18.253  0.00  0.00    +0.202 C 
ATOM     12  C   UNL     1      -4.839  -9.992  17.455  0.00  0.00    -0.019 C 
ATOM     13  C   UNL     1      -5.860 -10.485  18.163  0.00  0.00    +0.013 C 
ENDROOT
BRANCH   8  11
ATOM      5  N   UNL     1      -3.472 -10.754  13.322  0.00  0.00    -0.236 N 
ATOM      6  N   UNL     1      -2.189 -10.558  13.673  0.00  0.00    -0.171 NA
ATOM     11  C   UNL     1      -3.515 -10.910  15.500  0.00  0.00    +0.003 A 
ATOM     14  C   UNL     1      -4.307 -10.968  14.380  0.00  0.00    +0.046 A 
ATOM     15  C   UNL     1      -2.222 -10.654  15.004  0.00  0.00    +0.064 A 
ATOM     16  C   UNL     1      -5.757 -11.205  14.234  0.00  0.00    +0.066 C 
ATOM     17  C   UNL     1      -0.974 -10.491  15.773  0.00  0.00    +0.068 C 
BRANCH   5  18
ATOM      1 CL   UNL     1      -5.538  -8.132   9.461  0.00  0.00    -0.083 Cl
ATOM     18  C   UNL     1      -3.834 -10.725  11.974  0.00  0.00    +0.067 A 
ATOM     20  C   UNL     1      -4.435  -9.586  11.438  0.00  0.00    +0.048 A 
ATOM     21  C   UNL     1      -3.594 -11.835  11.165  0.00  0.00    +0.028 A 
ATOM     22  C   UNL     1      -4.796  -9.557  10.090  0.00  0.00    +0.046 A 
ATOM     23  C   UNL     1      -3.957 -11.807   9.818  0.00  0.00    +0.007 A 
ATOM     24  C   UNL     1      -4.558 -10.668   9.281  0.00  0.00    -0.032 A 
ATOM     26  C   UNL     1      -4.931 -10.679   7.834  0.00  0.00    +0.045 C 
ENDBRANCH   5  18
ENDBRANCH   8  11
BRANCH  10   2
ATOM      2  O   UNL     1      -7.062 -12.551  17.941  0.00  0.00    -0.443 OA
BRANCH   2  19
ATOM      3  O   UNL     1      -7.857 -12.942  20.049  0.00  0.00    -0.226 OA
ATOM      7  N   UNL     1      -9.151 -11.872  18.418  0.00  0.00    -0.251 N 
ATOM     19  C   UNL     1      -8.026 -12.495  18.921  0.00  0.00    +0.405 C 
ATOM     33  H   UNL     1      -9.100 -11.566  17.449  0.00  0.00    +0.158 HD
BRANCH   7  25
ATOM     25  C   UNL     1     -10.369 -11.606  19.083  0.00  0.00    +0.037 A 
ATOM     27  C   UNL     1     -10.599 -10.350  19.645  0.00  0.00    +0.027 A 
ATOM     28  C   UNL     1     -11.343 -12.600  19.177  0.00  0.00    +0.027 A 
ATOM     29  C   UNL     1     -11.803 -10.089  20.299  0.00  0.00    +0.047 A 
ATOM     30  C   UNL     1     -12.547 -12.340  19.832  0.00  0.00    +0.047 A 
ATOM     31  C   UNL     1     -12.776 -11.083  20.393  0.00  0.00    +0.120 A 
BRANCH  31   4
ATOM      4  O   UNL     1     -13.951 -10.827  21.031  0.00  0.00    -0.495 OA
ATOM     32  C   UNL     1     -14.914 -11.880  21.067  0.00  0.00    +0.277 C 
ENDBRANCH  31   4
ENDBRANCH   7  25
ENDBRANCH   2  19
ENDBRANCH  10   2
TORSDOF 6
ENDMDL
MODEL 10
REMARK VINA RESULT:      -6.8     28.419     31.195
REMARK  Name = 40777761
REMARK  10 active torsions:
REMARK  status: ('A' for Active; 'I' for Inactive)
REMARK    1  A    between atoms: O_2  and  C_10
REMARK    2  A    between atoms: O_2  and  C_19
REMARK    3  A    between atoms: O_4  and  C_31
REMARK    4  A    between atoms: O_4  and  C_32
REMARK    5  A    between atoms: N_5  and  C_18
REMARK    6  A    between atoms: N_7  and  C_25
REMARK    7  A    between atoms: C_8  and  C_11
REMARK    8  A    between atoms: C_14  and  C_16
REMARK    9  A    between atoms: C_15  and  C_17
REMARK   10  A    between atoms: C_24  and  C_26
REMARK                            x       y       z     vdW  Elec       q    Type
REMARK                         _______ _______ _______ _____ _____    ______ ____
ROOT
ATOM      8  C   UNL     1      -4.722 -11.708  17.043  0.00  0.00    +0.049 C 
ATOM      9  C   UNL     1      -3.641 -10.671  16.679  0.00  0.00    +0.061 C 
ATOM     10  C   UNL     1      -2.840 -11.288  15.529  0.00  0.00    +0.202 C 
ATOM     12  C   UNL     1      -4.800 -12.547  15.800  0.00  0.00    -0.019 C 
ATOM     13  C   UNL     1      -3.776 -12.310  14.975  0.00  0.00    +0.013 C 
ENDROOT
BRANCH   8  11
ATOM      5  N   UNL     1      -7.979 -10.087  17.480  0.00  0.00    -0.236 N 
ATOM      6  N   UNL     1      -7.752 -10.354  18.778  0.00  0.00    -0.171 NA
ATOM     11  C   UNL     1      -6.034 -11.081  17.458  0.00  0.00    +0.003 A 
ATOM     14  C   UNL     1      -6.981 -10.503  16.648  0.00  0.00    +0.046 A 
ATOM     15  C   UNL     1      -6.562 -10.962  18.757  0.00  0.00    +0.064 A 
ATOM     16  C   UNL     1      -7.016 -10.316  15.183  0.00  0.00    +0.066 C 
ATOM     17  C   UNL     1      -5.960 -11.419  20.023  0.00  0.00    +0.068 C 
BRANCH   5  18
ATOM      1 CL   UNL     1     -12.758 -10.485  15.733  0.00  0.00    -0.083 Cl
ATOM     18  C   UNL     1      -9.156  -9.439  17.103  0.00  0.00    +0.067 A 
ATOM     20  C   UNL     1     -10.249 -10.182  16.657  0.00  0.00    +0.048 A 
ATOM     21  C   UNL     1      -9.238  -8.048  17.172  0.00  0.00    +0.028 A 
ATOM     22  C   UNL     1     -11.426  -9.534  16.280  0.00  0.00    +0.046 A 
ATOM     23  C   UNL     1     -10.415  -7.400  16.793  0.00  0.00    +0.007 A 
ATOM     24  C   UNL     1     -11.508  -8.143  16.347  0.00  0.00    -0.032 A 
ATOM     26  C   UNL     1     -12.749  -7.410  15.951  0.00  0.00    +0.045 C 
ENDBRANCH   5  18
ENDBRANCH   8  11
BRANCH  10   2
ATOM      2  O   UNL     1      -2.534 -10.296  14.565  0.00  0.00    -0.443 OA
BRANCH   2  19
ATOM      3  O   UNL     1      -1.639 -11.470  12.818  0.00  0.00    -0.226 OA
ATOM      7  N   UNL     1      -3.539 -10.129  12.561  0.00  0.00    -0.251 N 
ATOM     19  C   UNL     1      -2.493 -10.707  13.252  0.00  0.00    +0.405 C 
ATOM     33  H   UNL     1      -4.151  -9.518  13.099  0.00  0.00    +0.158 HD
BRANCH   7  25
ATOM     25  C   UNL     1      -3.869 -10.279  11.196  0.00  0.00    +0.037 A 
ATOM     27  C   UNL     1      -3.806  -9.182  10.337  0.00  0.00    +0.027 A 
ATOM     28  C   UNL     1      -4.259 -11.526  10.705  0.00  0.00    +0.027 A 
ATOM     29  C   UNL     1      -4.131  -9.332   8.988  0.00  0.00    +0.047 A 
ATOM     30  C   UNL     1      -4.584 -11.676   9.357  0.00  0.00    +0.047 A 
ATOM     31  C   UNL     1      -4.519 -10.578   8.499  0.00  0.00    +0.120 A 
BRANCH  31   4
ATOM      4  O   UNL     1      -4.835 -10.724   7.183  0.00  0.00    -0.495 OA
ATOM     32  C   UNL     1      -5.931  -9.954   6.689  0.00  0.00    +0.277 C 
ENDBRANCH  31   4
ENDBRANCH   7  25
ENDBRANCH   2  19
ENDBRANCH  10   2
TORSDOF 6
ENDMDL
