MODEL 1
REMARK VINA RESULT:      -5.9      0.000      0.000
REMARK  Name = 75536911
REMARK  3 active torsions:
REMARK  status: ('A' for Active; 'I' for Inactive)
REMARK    1  A    between atoms: O_2  and  C_10
REMARK    2  A    between atoms: O_2  and  C_13
REMARK    3  A    between atoms: N_3  and  C_4
REMARK                            x       y       z     vdW  Elec       q    Type
REMARK                         _______ _______ _______ _____ _____    ______ ____
ROOT
ATOM      1  O   UNL     1      11.568   7.251  19.931  0.00  0.00    -0.375 OA
ATOM      3  N   UNL     1      12.882   9.842  20.631  0.00  0.00    -0.294 NA
ATOM      8  C   UNL     1      13.785   8.736  20.978  0.00  0.00    +0.131 C 
ATOM      9  C   UNL     1      11.484   9.492  20.944  0.00  0.00    +0.113 C 
ATOM     10  C   UNL     1      13.973   7.714  19.852  0.00  0.00    +0.213 C 
ATOM     11  C   UNL     1      10.869   8.493  19.967  0.00  0.00    +0.175 C 
ATOM     12  C   UNL     1      12.719   7.296  19.091  0.00  0.00    +0.205 C 
ENDROOT
BRANCH   3   4
ATOM      4  C   UNL     1      13.249  11.021  21.444  0.00  0.00    +0.057 C 
ATOM      5  C   UNL     1      14.093  10.562  22.653  0.00  0.00    +0.019 C 
ATOM      6  C   UNL     1      12.113  11.322  22.445  0.00  0.00    +0.019 C 
ATOM      7  C   UNL     1      13.217  11.505  23.510  0.00  0.00    +0.003 C 
ENDBRANCH   3   4
BRANCH  10   2
ATOM      2  O   UNL     1      14.537   6.532  20.431  0.00  0.00    -0.485 OA
BRANCH   2  13
ATOM     13  C   UNL     1      15.892   6.393  20.329  0.00  0.00    +0.121 A 
ATOM     14  C   UNL     1      16.708   6.675  21.425  0.00  0.00    +0.045 A 
ATOM     15  C   UNL     1      16.460   5.968  19.127  0.00  0.00    +0.045 A 
ATOM     16  C   UNL     1      18.091   6.533  21.319  0.00  0.00    +0.004 A 
ATOM     17  C   UNL     1      17.844   5.826  19.023  0.00  0.00    +0.004 A 
ATOM     18  C   UNL     1      18.659   6.108  20.119  0.00  0.00    +0.000 A 
ENDBRANCH   2  13
ENDBRANCH  10   2
TORSDOF 3
ENDMDL
MODEL 2
REMARK VINA RESULT:      -5.6     15.815     17.611
REMARK  Name = 75536911
REMARK  3 active torsions:
REMARK  status: ('A' for Active; 'I' for Inactive)
REMARK    1  A    between atoms: O_2  and  C_10
REMARK    2  A    between atoms: O_2  and  C_13
REMARK    3  A    between atoms: N_3  and  C_4
REMARK                            x       y       z     vdW  Elec       q    Type
REMARK                         _______ _______ _______ _____ _____    ______ ____
ROOT
ATOM      1  O   UNL     1       8.607   7.072   3.826  0.00  0.00    -0.375 OA
ATOM      3  N   UNL     1      10.226   6.261   6.204  0.00  0.00    -0.294 NA
ATOM      8  C   UNL     1      10.191   5.150   5.243  0.00  0.00    +0.131 C 
ATOM      9  C   UNL     1       8.917   6.938   6.263  0.00  0.00    +0.113 C 
ATOM     10  C   UNL     1      10.536   5.562   3.807  0.00  0.00    +0.213 C 
ATOM     11  C   UNL     1       8.622   7.810   5.045  0.00  0.00    +0.175 C 
ATOM     12  C   UNL     1       9.916   6.860   3.301  0.00  0.00    +0.205 C 
ENDROOT
BRANCH   3   4
ATOM      4  C   UNL     1      10.515   5.713   7.546  0.00  0.00    +0.057 C 
ATOM      5  C   UNL     1       9.966   4.274   7.637  0.00  0.00    +0.019 C 
ATOM      6  C   UNL     1       9.391   6.127   8.518  0.00  0.00    +0.019 C 
ATOM      7  C   UNL     1       9.412   4.667   9.026  0.00  0.00    +0.003 C 
ENDBRANCH   3   4
BRANCH  10   2
ATOM      2  O   UNL     1      10.100   4.509   2.940  0.00  0.00    -0.485 OA
BRANCH   2  13
ATOM     13  C   UNL     1      10.940   4.181   1.914  0.00  0.00    +0.121 A 
ATOM     14  C   UNL     1      10.559   4.425   0.594  0.00  0.00    +0.045 A 
ATOM     15  C   UNL     1      12.180   3.604   2.187  0.00  0.00    +0.045 A 
ATOM     16  C   UNL     1      11.417   4.089  -0.453  0.00  0.00    +0.004 A 
ATOM     17  C   UNL     1      13.039   3.269   1.139  0.00  0.00    +0.004 A 
ATOM     18  C   UNL     1      12.657   3.512  -0.180  0.00  0.00    +0.000 A 
ENDBRANCH   2  13
ENDBRANCH  10   2
TORSDOF 3
ENDMDL
MODEL 3
REMARK VINA RESULT:      -5.3     25.300     27.554
REMARK  Name = 75536911
REMARK  3 active torsions:
REMARK  status: ('A' for Active; 'I' for Inactive)
REMARK    1  A    between atoms: O_2  and  C_10
REMARK    2  A    between atoms: O_2  and  C_13
REMARK    3  A    between atoms: N_3  and  C_4
REMARK                            x       y       z     vdW  Elec       q    Type
REMARK                         _______ _______ _______ _____ _____    ______ ____
ROOT
ATOM      1  O   UNL     1      -1.493  -9.983  14.281  0.00  0.00    -0.375 OA
ATOM      3  N   UNL     1      -3.622 -11.484  15.746  0.00  0.00    -0.294 NA
ATOM      8  C   UNL     1      -4.237 -10.725  14.647  0.00  0.00    +0.131 C 
ATOM      9  C   UNL     1      -2.550 -10.699  16.384  0.00  0.00    +0.113 C 
ATOM     10  C   UNL     1      -3.535 -10.912  13.297  0.00  0.00    +0.213 C 
ATOM     11  C   UNL     1      -1.277 -10.602  15.546  0.00  0.00    +0.175 C 
ATOM     12  C   UNL     1      -2.011 -10.890  13.310  0.00  0.00    +0.205 C 
ENDROOT
BRANCH   3   4
ATOM      4  C   UNL     1      -4.656 -11.756  16.766  0.00  0.00    +0.057 C 
ATOM      5  C   UNL     1      -5.452 -10.462  17.041  0.00  0.00    +0.019 C 
ATOM      6  C   UNL     1      -4.041 -11.589  18.171  0.00  0.00    +0.019 C 
ATOM      7  C   UNL     1      -5.320 -10.803  18.542  0.00  0.00    +0.003 C 
ENDBRANCH   3   4
BRANCH  10   2
ATOM      2  O   UNL     1      -3.974  -9.857  12.433  0.00  0.00    -0.485 OA
BRANCH   2  13
ATOM     13  C   UNL     1      -4.167 -10.187  11.122  0.00  0.00    +0.121 A 
ATOM     14  C   UNL     1      -4.283  -9.185  10.159  0.00  0.00    +0.045 A 
ATOM     15  C   UNL     1      -4.248 -11.529  10.746  0.00  0.00    +0.045 A 
ATOM     16  C   UNL     1      -4.481  -9.523   8.821  0.00  0.00    +0.004 A 
ATOM     17  C   UNL     1      -4.444 -11.866   9.407  0.00  0.00    +0.004 A 
ATOM     18  C   UNL     1      -4.561 -10.864   8.445  0.00  0.00    +0.000 A 
ENDBRANCH   2  13
ENDBRANCH  10   2
TORSDOF 3
ENDMDL
MODEL 4
REMARK VINA RESULT:      -5.2     26.033     28.167
REMARK  Name = 75536911
REMARK  3 active torsions:
REMARK  status: ('A' for Active; 'I' for Inactive)
REMARK    1  A    between atoms: O_2  and  C_10
REMARK    2  A    between atoms: O_2  and  C_13
REMARK    3  A    between atoms: N_3  and  C_4
REMARK                            x       y       z     vdW  Elec       q    Type
REMARK                         _______ _______ _______ _____ _____    ______ ____
ROOT
ATOM      1  O   UNL     1      -6.175 -11.980  19.515  0.00  0.00    -0.375 OA
ATOM      3  N   UNL     1      -8.231 -11.010  17.576  0.00  0.00    -0.294 NA
ATOM      8  C   UNL     1      -6.945 -10.365  17.277  0.00  0.00    +0.131 C 
ATOM      9  C   UNL     1      -8.430 -11.123  19.033  0.00  0.00    +0.113 C 
ATOM     10  C   UNL     1      -5.769 -11.344  17.184  0.00  0.00    +0.213 C 
ATOM     11  C   UNL     1      -7.572 -12.203  19.687  0.00  0.00    +0.175 C 
ATOM     12  C   UNL     1      -5.701 -12.433  18.249  0.00  0.00    +0.205 C 
ENDROOT
BRANCH   3   4
ATOM      4  C   UNL     1      -9.317 -10.167  17.033  0.00  0.00    +0.057 C 
ATOM      5  C   UNL     1      -8.773  -8.748  16.763  0.00  0.00    +0.019 C 
ATOM      6  C   UNL     1     -10.121  -9.558  18.201  0.00  0.00    +0.019 C 
ATOM      7  C   UNL     1     -10.066  -8.221  17.427  0.00  0.00    +0.003 C 
ENDBRANCH   3   4
BRANCH  10   2
ATOM      2  O   UNL     1      -4.562 -10.578  17.276  0.00  0.00    -0.485 OA
BRANCH   2  13
ATOM     13  C   UNL     1      -3.727 -10.629  16.196  0.00  0.00    +0.121 A 
ATOM     14  C   UNL     1      -2.346 -10.682  16.382  0.00  0.00    +0.045 A 
ATOM     15  C   UNL     1      -4.257 -10.630  14.905  0.00  0.00    +0.045 A 
ATOM     16  C   UNL     1      -1.495 -10.735  15.279  0.00  0.00    +0.004 A 
ATOM     17  C   UNL     1      -3.405 -10.684  13.802  0.00  0.00    +0.004 A 
ATOM     18  C   UNL     1      -2.024 -10.736  13.989  0.00  0.00    +0.000 A 
ENDBRANCH   2  13
ENDBRANCH  10   2
TORSDOF 3
ENDMDL
MODEL 5
REMARK VINA RESULT:      -5.2     26.047     27.844
REMARK  Name = 75536911
REMARK  3 active torsions:
REMARK  status: ('A' for Active; 'I' for Inactive)
REMARK    1  A    between atoms: O_2  and  C_10
REMARK    2  A    between atoms: O_2  and  C_13
REMARK    3  A    between atoms: N_3  and  C_4
REMARK                            x       y       z     vdW  Elec       q    Type
REMARK                         _______ _______ _______ _____ _____    ______ ____
ROOT
ATOM      1  O   UNL     1      -6.895  -9.821  13.224  0.00  0.00    -0.375 OA
ATOM      3  N   UNL     1      -4.287 -10.954  12.305  0.00  0.00    -0.294 NA
ATOM      8  C   UNL     1      -4.114 -10.371  13.643  0.00  0.00    +0.131 C 
ATOM      9  C   UNL     1      -5.181 -10.116  11.484  0.00  0.00    +0.113 C 
ATOM     10  C   UNL     1      -5.174 -10.819  14.655  0.00  0.00    +0.213 C 
ATOM     11  C   UNL     1      -6.652 -10.221  11.878  0.00  0.00    +0.175 C 
ATOM     12  C   UNL     1      -6.617 -10.860  14.161  0.00  0.00    +0.205 C 
ENDROOT
BRANCH   3   4
ATOM      4  C   UNL     1      -2.968 -11.000  11.638  0.00  0.00    +0.057 C 
ATOM      5  C   UNL     1      -1.903 -10.393  12.576  0.00  0.00    +0.019 C 
ATOM      6  C   UNL     1      -2.800  -9.745  10.755  0.00  0.00    +0.019 C 
ATOM      7  C   UNL     1      -1.373  -9.633  11.339  0.00  0.00    +0.003 C 
ENDBRANCH   3   4
BRANCH  10   2
ATOM      2  O   UNL     1      -5.125  -9.911  15.762  0.00  0.00    -0.485 OA
BRANCH   2  13
ATOM     13  C   UNL     1      -5.167 -10.470  17.007  0.00  0.00    +0.121 A 
ATOM     14  C   UNL     1      -6.279 -10.272  17.825  0.00  0.00    +0.045 A 
ATOM     15  C   UNL     1      -4.096 -11.242  17.461  0.00  0.00    +0.045 A 
ATOM     16  C   UNL     1      -6.321 -10.844  19.096  0.00  0.00    +0.004 A 
ATOM     17  C   UNL     1      -4.139 -11.814  18.732  0.00  0.00    +0.004 A 
ATOM     18  C   UNL     1      -5.251 -11.615  19.550  0.00  0.00    +0.000 A 
ENDBRANCH   2  13
ENDBRANCH  10   2
TORSDOF 3
ENDMDL
MODEL 6
REMARK VINA RESULT:      -5.2     31.053     32.059
REMARK  Name = 75536911
REMARK  3 active torsions:
REMARK  status: ('A' for Active; 'I' for Inactive)
REMARK    1  A    between atoms: O_2  and  C_10
REMARK    2  A    between atoms: O_2  and  C_13
REMARK    3  A    between atoms: N_3  and  C_4
REMARK                            x       y       z     vdW  Elec       q    Type
REMARK                         _______ _______ _______ _____ _____    ______ ____
ROOT
ATOM      1  O   UNL     1     -14.649   0.575  31.855  0.00  0.00    -0.375 OA
ATOM      3  N   UNL     1     -15.736   1.956  29.438  0.00  0.00    -0.294 NA
ATOM      8  C   UNL     1     -16.023   2.771  30.627  0.00  0.00    +0.131 C 
ATOM      9  C   UNL     1     -15.901   0.522  29.738  0.00  0.00    +0.113 C 
ATOM     10  C   UNL     1     -14.805   2.999  31.529  0.00  0.00    +0.213 C 
ATOM     11  C   UNL     1     -14.773  -0.061  30.586  0.00  0.00    +0.175 C 
ATOM     12  C   UNL     1     -13.909   1.792  31.786  0.00  0.00    +0.205 C 
ENDROOT
BRANCH   3   4
ATOM      4  C   UNL     1     -16.704   2.314  28.379  0.00  0.00    +0.057 C 
ATOM      5  C   UNL     1     -16.555   1.329  27.200  0.00  0.00    +0.019 C 
ATOM      6  C   UNL     1     -16.082   3.390  27.464  0.00  0.00    +0.019 C 
ATOM      7  C   UNL     1     -16.623   2.564  26.274  0.00  0.00    +0.003 C 
ENDBRANCH   3   4
BRANCH  10   2
ATOM      2  O   UNL     1     -15.287   3.454  32.799  0.00  0.00    -0.485 OA
BRANCH   2  13
ATOM     13  C   UNL     1     -14.708   4.586  33.298  0.00  0.00    +0.121 A 
ATOM     14  C   UNL     1     -14.423   4.683  34.660  0.00  0.00    +0.045 A 
ATOM     15  C   UNL     1     -14.401   5.645  32.444  0.00  0.00    +0.045 A 
ATOM     16  C   UNL     1     -13.832   5.839  35.168  0.00  0.00    +0.004 A 
ATOM     17  C   UNL     1     -13.809   6.801  32.952  0.00  0.00    +0.004 A 
ATOM     18  C   UNL     1     -13.524   6.898  34.315  0.00  0.00    +0.000 A 
ENDBRANCH   2  13
ENDBRANCH  10   2
TORSDOF 3
ENDMDL
MODEL 7
REMARK VINA RESULT:      -5.1     27.046     28.034
REMARK  Name = 75536911
REMARK  3 active torsions:
REMARK  status: ('A' for Active; 'I' for Inactive)
REMARK    1  A    between atoms: O_2  and  C_10
REMARK    2  A    between atoms: O_2  and  C_13
REMARK    3  A    between atoms: N_3  and  C_4
REMARK                            x       y       z     vdW  Elec       q    Type
REMARK                         _______ _______ _______ _____ _____    ______ ____
ROOT
ATOM      1  O   UNL     1      -4.335 -13.801  14.982  0.00  0.00    -0.375 OA
ATOM      3  N   UNL     1      -5.282 -11.528  16.675  0.00  0.00    -0.294 NA
ATOM      8  C   UNL     1      -4.375 -11.012  15.640  0.00  0.00    +0.131 C 
ATOM      9  C   UNL     1      -4.801 -12.823  17.191  0.00  0.00    +0.113 C 
ATOM     10  C   UNL     1      -4.707 -11.500  14.226  0.00  0.00    +0.213 C 
ATOM     11  C   UNL     1      -5.010 -13.985  16.223  0.00  0.00    +0.175 C 
ATOM     12  C   UNL     1      -5.066 -12.975  14.079  0.00  0.00    +0.205 C 
ENDROOT
BRANCH   3   4
ATOM      4  C   UNL     1      -5.304 -10.570  17.800  0.00  0.00    +0.057 C 
ATOM      5  C   UNL     1      -5.210 -11.346  19.131  0.00  0.00    +0.019 C 
ATOM      6  C   UNL     1      -6.769 -10.255  18.172  0.00  0.00    +0.019 C 
ATOM      7  C   UNL     1      -6.340 -10.425  19.647  0.00  0.00    +0.003 C 
ENDBRANCH   3   4
BRANCH  10   2
ATOM      2  O   UNL     1      -3.561 -11.253  13.403  0.00  0.00    -0.485 OA
BRANCH   2  13
ATOM     13  C   UNL     1      -3.753 -10.436  12.326  0.00  0.00    +0.121 A 
ATOM     14  C   UNL     1      -2.708 -10.200  11.433  0.00  0.00    +0.045 A 
ATOM     15  C   UNL     1      -4.996  -9.837  12.118  0.00  0.00    +0.045 A 
ATOM     16  C   UNL     1      -2.904  -9.366  10.333  0.00  0.00    +0.004 A 
ATOM     17  C   UNL     1      -5.192  -9.003  11.017  0.00  0.00    +0.004 A 
ATOM     18  C   UNL     1      -4.146  -8.767  10.125  0.00  0.00    +0.000 A 
ENDBRANCH   2  13
ENDBRANCH  10   2
TORSDOF 3
ENDMDL
MODEL 8
REMARK VINA RESULT:      -5.0     26.770     27.927
REMARK  Name = 75536911
REMARK  3 active torsions:
REMARK  status: ('A' for Active; 'I' for Inactive)
REMARK    1  A    between atoms: O_2  and  C_10
REMARK    2  A    between atoms: O_2  and  C_13
REMARK    3  A    between atoms: N_3  and  C_4
REMARK                            x       y       z     vdW  Elec       q    Type
REMARK                         _______ _______ _______ _____ _____    ______ ____
ROOT
ATOM      1  O   UNL     1      -7.993 -11.015  14.665  0.00  0.00    -0.375 OA
ATOM      3  N   UNL     1      -5.976 -10.220  16.722  0.00  0.00    -0.294 NA
ATOM      8  C   UNL     1      -5.277 -10.748  15.542  0.00  0.00    +0.131 C 
ATOM      9  C   UNL     1      -7.199 -10.997  16.994  0.00  0.00    +0.113 C 
ATOM     10  C   UNL     1      -5.750 -10.136  14.218  0.00  0.00    +0.213 C 
ATOM     11  C   UNL     1      -8.336 -10.714  16.015  0.00  0.00    +0.175 C 
ATOM     12  C   UNL     1      -7.255  -9.966  14.042  0.00  0.00    +0.205 C 
ENDROOT
BRANCH   3   4
ATOM      4  C   UNL     1      -5.084 -10.351  17.894  0.00  0.00    +0.057 C 
ATOM      5  C   UNL     1      -4.065 -11.480  17.634  0.00  0.00    +0.019 C 
ATOM      6  C   UNL     1      -5.743 -11.283  18.932  0.00  0.00    +0.019 C 
ATOM      7  C   UNL     1      -4.359 -11.958  19.074  0.00  0.00    +0.003 C 
ENDBRANCH   3   4
BRANCH  10   2
ATOM      2  O   UNL     1      -5.287 -10.985  13.161  0.00  0.00    -0.485 OA
BRANCH   2  13
ATOM     13  C   UNL     1      -4.386 -10.437  12.293  0.00  0.00    +0.121 A 
ATOM     14  C   UNL     1      -4.827  -9.622  11.251  0.00  0.00    +0.045 A 
ATOM     15  C   UNL     1      -3.023 -10.693  12.450  0.00  0.00    +0.045 A 
ATOM     16  C   UNL     1      -3.907  -9.063  10.365  0.00  0.00    +0.004 A 
ATOM     17  C   UNL     1      -2.103 -10.133  11.564  0.00  0.00    +0.004 A 
ATOM     18  C   UNL     1      -2.544  -9.318  10.522  0.00  0.00    +0.000 A 
ENDBRANCH   2  13
ENDBRANCH  10   2
TORSDOF 3
ENDMDL
MODEL 9
REMARK VINA RESULT:      -5.0     28.507     31.056
REMARK  Name = 75536911
REMARK  3 active torsions:
REMARK  status: ('A' for Active; 'I' for Inactive)
REMARK    1  A    between atoms: O_2  and  C_10
REMARK    2  A    between atoms: O_2  and  C_13
REMARK    3  A    between atoms: N_3  and  C_4
REMARK                            x       y       z     vdW  Elec       q    Type
REMARK                         _______ _______ _______ _____ _____    ______ ____
ROOT
ATOM      1  O   UNL     1     -16.568   5.733  32.956  0.00  0.00    -0.375 OA
ATOM      3  N   UNL     1     -14.450   3.629  32.823  0.00  0.00    -0.294 NA
ATOM      8  C   UNL     1     -13.902   4.896  32.317  0.00  0.00    +0.131 C 
ATOM      9  C   UNL     1     -15.845   3.452  32.382  0.00  0.00    +0.113 C 
ATOM     10  C   UNL     1     -14.161   6.093  33.238  0.00  0.00    +0.213 C 
ATOM     11  C   UNL     1     -16.840   4.344  33.121  0.00  0.00    +0.175 C 
ATOM     12  C   UNL     1     -15.556   6.201  33.845  0.00  0.00    +0.205 C 
ENDROOT
BRANCH   3   4
ATOM      4  C   UNL     1     -13.652   2.517  32.265  0.00  0.00    +0.057 C 
ATOM      5  C   UNL     1     -13.455   2.741  30.751  0.00  0.00    +0.019 C 
ATOM      6  C   UNL     1     -14.593   1.350  31.896  0.00  0.00    +0.019 C 
ATOM      7  C   UNL     1     -13.801   1.245  30.573  0.00  0.00    +0.003 C 
ENDBRANCH   3   4
BRANCH  10   2
ATOM      2  O   UNL     1     -13.932   7.283  32.474  0.00  0.00    -0.485 OA
BRANCH   2  13
ATOM     13  C   UNL     1     -12.886   8.067  32.871  0.00  0.00    +0.121 A 
ATOM     14  C   UNL     1     -12.752   8.427  34.211  0.00  0.00    +0.045 A 
ATOM     15  C   UNL     1     -11.950   8.506  31.933  0.00  0.00    +0.045 A 
ATOM     16  C   UNL     1     -11.684   9.228  34.615  0.00  0.00    +0.004 A 
ATOM     17  C   UNL     1     -10.881   9.306  32.337  0.00  0.00    +0.004 A 
ATOM     18  C   UNL     1     -10.748   9.667  33.678  0.00  0.00    +0.000 A 
ENDBRANCH   2  13
ENDBRANCH  10   2
TORSDOF 3
ENDMDL
MODEL 10
REMARK VINA RESULT:      -4.9     11.869     14.205
REMARK  Name = 75536911
REMARK  3 active torsions:
REMARK  status: ('A' for Active; 'I' for Inactive)
REMARK    1  A    between atoms: O_2  and  C_10
REMARK    2  A    between atoms: O_2  and  C_13
REMARK    3  A    between atoms: N_3  and  C_4
REMARK                            x       y       z     vdW  Elec       q    Type
REMARK                         _______ _______ _______ _____ _____    ______ ____
ROOT
ATOM      1  O   UNL     1      20.293  -3.761  26.217  0.00  0.00    -0.375 OA
ATOM      3  N   UNL     1      18.136  -1.976  25.173  0.00  0.00    -0.294 NA
ATOM      8  C   UNL     1      17.602  -2.779  26.283  0.00  0.00    +0.131 C 
ATOM      9  C   UNL     1      19.043  -2.783  24.337  0.00  0.00    +0.113 C 
ATOM     10  C   UNL     1      18.484  -2.767  27.536  0.00  0.00    +0.213 C 
ATOM     11  C   UNL     1      20.399  -3.051  24.986  0.00  0.00    +0.175 C 
ATOM     12  C   UNL     1      19.986  -2.906  27.316  0.00  0.00    +0.205 C 
ENDROOT
BRANCH   3   4
ATOM      4  C   UNL     1      17.007  -1.536  24.326  0.00  0.00    +0.057 C 
ATOM      5  C   UNL     1      15.964  -2.670  24.238  0.00  0.00    +0.019 C 
ATOM      6  C   UNL     1      17.339  -1.825  22.847  0.00  0.00    +0.019 C 
ATOM      7  C   UNL     1      15.899  -2.375  22.722  0.00  0.00    +0.003 C 
ENDBRANCH   3   4
BRANCH  10   2
ATOM      2  O   UNL     1      18.068  -3.856  28.367  0.00  0.00    -0.485 OA
BRANCH   2  13
ATOM     13  C   UNL     1      17.266  -3.540  29.426  0.00  0.00    +0.121 A 
ATOM     14  C   UNL     1      17.274  -2.247  29.947  0.00  0.00    +0.045 A 
ATOM     15  C   UNL     1      16.436  -4.513  29.986  0.00  0.00    +0.045 A 
ATOM     16  C   UNL     1      16.455  -1.925  31.029  0.00  0.00    +0.004 A 
ATOM     17  C   UNL     1      15.616  -4.190  31.068  0.00  0.00    +0.004 A 
ATOM     18  C   UNL     1      15.625  -2.896  31.589  0.00  0.00    +0.000 A 
ENDBRANCH   2  13
ENDBRANCH  10   2
TORSDOF 3
ENDMDL
