REMARK  Name = 45783285
REMARK  6 active torsions:
REMARK  status: ('A' for Active; 'I' for Inactive)
REMARK    1  A    between atoms: O_3  and  C_32
REMARK    2  A    between atoms: N_5  and  C_14
REMARK    3  A    between atoms: C_10  and  C_15
REMARK    4  A    between atoms: C_14  and  C_16
REMARK    5  A    between atoms: C_17  and  C_22
REMARK    6  A    between atoms: C_29  and  C_32
REMARK                            x       y       z     vdW  Elec       q    Type
REMARK                         _______ _______ _______ _____ _____    ______ ____
ROOT
ATOM      1  O   UNL     1      -2.743  -1.022   2.205  0.00  0.00    -0.336 OA
ATOM      6  N   UNL     1      -1.309  -1.132   0.488  0.00  0.00    -0.190 NA
ATOM      8  N   UNL     1      -1.463  -0.884   2.757  0.00  0.00    -0.056 NA
ATOM     15  C   UNL     1      -2.562  -1.163   0.866  0.00  0.00    +0.245 A 
ATOM     17  C   UNL     1      -0.672  -0.959   1.682  0.00  0.00    +0.202 A 
ENDROOT
BRANCH  17  22
ATOM      2  O   UNL     1       5.386  -0.930  -2.643  0.00  0.00    -0.377 OA
ATOM      7  N   UNL     1       3.674  -0.941  -0.414  0.00  0.00    -0.311 N 
ATOM      9  N   UNL     1       3.541  -0.680   1.934  0.00  0.00    -0.240 NA
ATOM     20  C   UNL     1       3.481   0.036  -1.492  0.00  0.00    +0.134 C 
ATOM     21  C   UNL     1       5.029  -1.502  -0.313  0.00  0.00    +0.134 C 
ATOM     22  C   UNL     1       0.757  -0.865   1.768  0.00  0.00    +0.027 A 
ATOM     23  C   UNL     1       2.908  -0.852   0.752  0.00  0.00    +0.122 A 
ATOM     24  C   UNL     1       4.026  -0.526  -2.800  0.00  0.00    +0.178 C 
ATOM     25  C   UNL     1       5.490  -1.982  -1.685  0.00  0.00    +0.178 C 
ATOM     26  C   UNL     1       1.532  -0.950   0.617  0.00  0.00    +0.055 A 
ATOM     30  C   UNL     1       1.372  -0.689   3.002  0.00  0.00    +0.031 A 
ATOM     31  C   UNL     1       2.755  -0.603   3.031  0.00  0.00    +0.113 A 
ENDBRANCH  17  22
BRANCH  15  10
ATOM      5  N   UNL     1      -3.640  -0.847  -1.355  0.00  0.00    -0.287 NA
ATOM     10  C   UNL     1      -3.813  -1.332   0.029  0.00  0.00    +0.146 C 
ATOM     11  C   UNL     1      -4.233  -2.805  -0.122  0.00  0.00    +0.030 C 
ATOM     12  C   UNL     1      -4.329  -3.039  -1.623  0.00  0.00    +0.017 C 
ATOM     13  C   UNL     1      -4.536  -1.649  -2.188  0.00  0.00    +0.085 C 
BRANCH   5  14
ATOM     14  C   UNL     1      -3.889   0.582  -1.498  0.00  0.00    +0.120 C 
BRANCH  14  16
ATOM     16  C   UNL     1      -2.711   1.405  -1.052  0.00  0.00    -0.033 A 
ATOM     18  C   UNL     1      -2.862   2.341  -0.029  0.00  0.00    +0.006 A 
ATOM     19  C   UNL     1      -1.468   1.231  -1.660  0.00  0.00    +0.006 A 
ATOM     27  C   UNL     1      -1.770   3.103   0.386  0.00  0.00    +0.015 A 
ATOM     28  C   UNL     1      -0.376   1.994  -1.246  0.00  0.00    +0.015 A 
ATOM     29  C   UNL     1      -0.527   2.930  -0.223  0.00  0.00    +0.059 A 
BRANCH  29  32
ATOM      4  O   UNL     1       0.593   4.578   1.102  0.00  0.00    -0.245 OA
ATOM     32  C   UNL     1       0.612   3.724   0.209  0.00  0.00    +0.337 C 
BRANCH  32   3
ATOM      3  O   UNL     1       1.746   3.430  -0.485  0.00  0.00    -0.477 OA
ATOM     33  H   UNL     1       2.508   3.969  -0.185  0.00  0.00    +0.295 HD
ENDBRANCH  32   3
ENDBRANCH  29  32
ENDBRANCH  14  16
ENDBRANCH   5  14
ENDBRANCH  15  10
TORSDOF 6
