MODEL 1
REMARK VINA RESULT:      -7.4      0.000      0.000
REMARK  Name = 26743622
REMARK  8 active torsions:
REMARK  status: ('A' for Active; 'I' for Inactive)
REMARK    1  A    between atoms: O_4  and  C_13
REMARK    2  A    between atoms: O_7  and  C_23
REMARK    3  A    between atoms: N_8  and  C_15
REMARK    4  A    between atoms: C_11  and  C_16
REMARK    5  A    between atoms: C_15  and  C_17
REMARK    6  A    between atoms: C_19  and  C_22
REMARK    7  A    between atoms: C_20  and  C_23
REMARK    8  A    between atoms: C_28  and  C_29
REMARK                            x       y       z     vdW  Elec       q    Type
REMARK                         _______ _______ _______ _____ _____    ______ ____
ROOT
ATOM      8  N   UNL     1      12.376   8.869  20.417  0.00  0.00    -0.282 NA
ATOM     11  C   UNL     1      13.106   8.087  21.435  0.00  0.00    +0.149 C 
ATOM     12  C   UNL     1      12.082   7.058  21.949  0.00  0.00    +0.061 C 
ATOM     13  C   UNL     1      10.796   7.371  21.195  0.00  0.00    +0.130 C 
ATOM     14  C   UNL     1      10.965   8.824  20.793  0.00  0.00    +0.117 C 
ENDROOT
BRANCH  11  16
ATOM      5  O   UNL     1      14.239   6.808  19.688  0.00  0.00    -0.336 OA
ATOM      9  N   UNL     1      15.563   7.390  21.399  0.00  0.00    -0.190 NA
ATOM     10  N   UNL     1      15.508   6.295  19.391  0.00  0.00    -0.056 NA
ATOM     16  C   UNL     1      14.359   7.439  20.886  0.00  0.00    +0.245 A 
ATOM     19  C   UNL     1      16.233   6.679  20.446  0.00  0.00    +0.202 A 
BRANCH  19  22
ATOM     22  C   UNL     1      17.627   6.370  20.578  0.00  0.00    +0.022 A 
ATOM     24  C   UNL     1      18.387   6.988  21.572  0.00  0.00    +0.012 A 
ATOM     25  C   UNL     1      18.222   5.451  19.715  0.00  0.00    +0.012 A 
ATOM     26  C   UNL     1      19.743   6.687  21.701  0.00  0.00    +0.013 A 
ATOM     27  C   UNL     1      19.578   5.150  19.844  0.00  0.00    +0.013 A 
ATOM     28  C   UNL     1      20.338   5.768  20.837  0.00  0.00    +0.055 A 
BRANCH  28  29
ATOM      1  F   UNL     1      22.595   6.190  20.162  0.00  0.00    -0.166 F 
ATOM      2  F   UNL     1      22.066   4.144  20.674  0.00  0.00    -0.166 F 
ATOM      3  F   UNL     1      22.274   5.641  22.236  0.00  0.00    -0.166 F 
ATOM     29  C   UNL     1      21.788   5.445  20.975  0.00  0.00    +0.417 C 
ENDBRANCH  28  29
ENDBRANCH  19  22
ENDBRANCH  11  16
BRANCH  13   4
ATOM      4  O   UNL     1       9.667   7.185  22.028  0.00  0.00    -0.390 OA
ATOM     30  H   UNL     1       9.578   7.982  22.581  0.00  0.00    +0.210 HD
ENDBRANCH  13   4
BRANCH   8  15
ATOM     15  C   UNL     1      12.865  10.236  20.285  0.00  0.00    +0.159 C 
BRANCH  15  17
ATOM      6  O   UNL     1      13.340   9.480  18.021  0.00  0.00    -0.461 OA
ATOM     17  C   UNL     1      13.440  10.495  18.918  0.00  0.00    +0.119 A 
ATOM     18  C   UNL     1      14.070  11.580  18.353  0.00  0.00    +0.046 A 
ATOM     20  C   UNL     1      13.913   9.919  16.870  0.00  0.00    +0.131 A 
ATOM     21  C   UNL     1      14.377  11.205  17.022  0.00  0.00    +0.047 A 
BRANCH  20  23
ATOM     23  C   UNL     1      13.920   8.974  15.744  0.00  0.00    +0.230 C 
BRANCH  23   7
ATOM      7  O   UNL     1      12.600   8.828  15.214  0.00  0.00    -0.387 OA
ATOM     31  H   UNL     1      12.697   8.529  14.293  0.00  0.00    +0.210 HD
ENDBRANCH  23   7
ENDBRANCH  20  23
ENDBRANCH  15  17
ENDBRANCH   8  15
TORSDOF 8
ENDMDL
MODEL 2
REMARK VINA RESULT:      -6.7     26.651     28.817
REMARK  Name = 26743622
REMARK  8 active torsions:
REMARK  status: ('A' for Active; 'I' for Inactive)
REMARK    1  A    between atoms: O_4  and  C_13
REMARK    2  A    between atoms: O_7  and  C_23
REMARK    3  A    between atoms: N_8  and  C_15
REMARK    4  A    between atoms: C_11  and  C_16
REMARK    5  A    between atoms: C_15  and  C_17
REMARK    6  A    between atoms: C_19  and  C_22
REMARK    7  A    between atoms: C_20  and  C_23
REMARK    8  A    between atoms: C_28  and  C_29
REMARK                            x       y       z     vdW  Elec       q    Type
REMARK                         _______ _______ _______ _____ _____    ______ ____
ROOT
ATOM      8  N   UNL     1      -4.399  -9.819  10.148  0.00  0.00    -0.282 NA
ATOM     11  C   UNL     1      -5.366  -8.829  10.665  0.00  0.00    +0.149 C 
ATOM     12  C   UNL     1      -6.401  -8.664   9.535  0.00  0.00    +0.061 C 
ATOM     13  C   UNL     1      -5.905  -9.565   8.412  0.00  0.00    +0.130 C 
ATOM     14  C   UNL     1      -4.420  -9.698   8.692  0.00  0.00    +0.117 C 
ENDROOT
BRANCH  11  16
ATOM      5  O   UNL     1      -7.333  -9.483  11.959  0.00  0.00    -0.336 OA
ATOM      9  N   UNL     1      -5.434  -9.436  13.144  0.00  0.00    -0.190 NA
ATOM     10  N   UNL     1      -7.679  -9.857  13.263  0.00  0.00    -0.056 NA
ATOM     16  C   UNL     1      -5.994  -9.255  11.975  0.00  0.00    +0.245 A 
ATOM     19  C   UNL     1      -6.507  -9.806  13.902  0.00  0.00    +0.202 A 
BRANCH  19  22
ATOM     22  C   UNL     1      -6.372 -10.119  15.295  0.00  0.00    +0.022 A 
ATOM     24  C   UNL     1      -5.104 -10.239  15.864  0.00  0.00    +0.012 A 
ATOM     25  C   UNL     1      -7.510 -10.300  16.081  0.00  0.00    +0.012 A 
ATOM     26  C   UNL     1      -4.974 -10.542  17.219  0.00  0.00    +0.013 A 
ATOM     27  C   UNL     1      -7.379 -10.604  17.437  0.00  0.00    +0.013 A 
ATOM     28  C   UNL     1      -6.111 -10.725  18.005  0.00  0.00    +0.055 A 
BRANCH  28  29
ATOM      1  F   UNL     1      -6.877 -11.971  19.899  0.00  0.00    -0.166 F 
ATOM      2  F   UNL     1      -6.141  -9.956  20.254  0.00  0.00    -0.166 F 
ATOM      3  F   UNL     1      -4.750 -11.560  19.786  0.00  0.00    -0.166 F 
ATOM     29  C   UNL     1      -5.972 -11.049  19.455  0.00  0.00    +0.417 C 
ENDBRANCH  28  29
ENDBRANCH  19  22
ENDBRANCH  11  16
BRANCH  13   4
ATOM      4  O   UNL     1      -6.149  -8.975   7.149  0.00  0.00    -0.390 OA
ATOM     30  H   UNL     1      -7.112  -8.856   7.064  0.00  0.00    +0.210 HD
ENDBRANCH  13   4
BRANCH   8  15
ATOM     15  C   UNL     1      -3.058  -9.650  10.693  0.00  0.00    +0.159 C 
BRANCH  15  17
ATOM      6  O   UNL     1      -2.257 -10.252  12.911  0.00  0.00    -0.461 OA
ATOM     17  C   UNL     1      -2.734 -10.701  11.721  0.00  0.00    +0.119 A 
ATOM     18  C   UNL     1      -2.820 -12.074  11.721  0.00  0.00    +0.046 A 
ATOM     20  C   UNL     1      -2.034 -11.350  13.680  0.00  0.00    +0.131 A 
ATOM     21  C   UNL     1      -2.364 -12.495  12.995  0.00  0.00    +0.047 A 
BRANCH  20  23
ATOM     23  C   UNL     1      -1.509 -11.102  15.030  0.00  0.00    +0.230 C 
BRANCH  23   7
ATOM      7  O   UNL     1      -1.528  -9.701  15.319  0.00  0.00    -0.387 OA
ATOM     31  H   UNL     1      -2.454  -9.412  15.253  0.00  0.00    +0.210 HD
ENDBRANCH  23   7
ENDBRANCH  20  23
ENDBRANCH  15  17
ENDBRANCH   8  15
TORSDOF 8
ENDMDL
MODEL 3
REMARK VINA RESULT:      -6.6     27.370     29.882
REMARK  Name = 26743622
REMARK  8 active torsions:
REMARK  status: ('A' for Active; 'I' for Inactive)
REMARK    1  A    between atoms: O_4  and  C_13
REMARK    2  A    between atoms: O_7  and  C_23
REMARK    3  A    between atoms: N_8  and  C_15
REMARK    4  A    between atoms: C_11  and  C_16
REMARK    5  A    between atoms: C_15  and  C_17
REMARK    6  A    between atoms: C_19  and  C_22
REMARK    7  A    between atoms: C_20  and  C_23
REMARK    8  A    between atoms: C_28  and  C_29
REMARK                            x       y       z     vdW  Elec       q    Type
REMARK                         _______ _______ _______ _____ _____    ______ ____
ROOT
ATOM      8  N   UNL     1      -4.224 -10.727  14.820  0.00  0.00    -0.282 NA
ATOM     11  C   UNL     1      -4.789 -11.245  16.083  0.00  0.00    +0.149 C 
ATOM     12  C   UNL     1      -3.651 -11.100  17.111  0.00  0.00    +0.061 C 
ATOM     13  C   UNL     1      -2.476 -10.536  16.322  0.00  0.00    +0.130 C 
ATOM     14  C   UNL     1      -2.780 -10.942  14.892  0.00  0.00    +0.117 C 
ENDROOT
BRANCH  11  16
ATOM      5  O   UNL     1      -6.259 -10.386  17.836  0.00  0.00    -0.336 OA
ATOM      9  N   UNL     1      -6.988  -9.990  15.756  0.00  0.00    -0.190 NA
ATOM     10  N   UNL     1      -7.468  -9.693  17.973  0.00  0.00    -0.056 NA
ATOM     16  C   UNL     1      -6.049 -10.518  16.500  0.00  0.00    +0.245 A 
ATOM     19  C   UNL     1      -7.836  -9.494  16.704  0.00  0.00    +0.202 A 
BRANCH  19  22
ATOM     22  C   UNL     1      -9.043  -8.806  16.349  0.00  0.00    +0.022 A 
ATOM     24  C   UNL     1      -9.654  -7.950  17.265  0.00  0.00    +0.012 A 
ATOM     25  C   UNL     1      -9.605  -8.992  15.086  0.00  0.00    +0.012 A 
ATOM     26  C   UNL     1     -10.827  -7.281  16.920  0.00  0.00    +0.013 A 
ATOM     27  C   UNL     1     -10.779  -8.323  14.740  0.00  0.00    +0.013 A 
ATOM     28  C   UNL     1     -11.390  -7.467  15.657  0.00  0.00    +0.055 A 
BRANCH  28  29
ATOM      1  F   UNL     1     -13.173  -7.153  14.092  0.00  0.00    -0.166 F 
ATOM      2  F   UNL     1     -12.465  -5.403  15.171  0.00  0.00    -0.166 F 
ATOM      3  F   UNL     1     -13.654  -6.909  16.194  0.00  0.00    -0.166 F 
ATOM     29  C   UNL     1     -12.645  -6.751  15.286  0.00  0.00    +0.417 C 
ENDBRANCH  28  29
ENDBRANCH  19  22
ENDBRANCH  11  16
BRANCH  13   4
ATOM      4  O   UNL     1      -1.255 -11.087  16.775  0.00  0.00    -0.390 OA
ATOM     30  H   UNL     1      -1.330 -12.056  16.710  0.00  0.00    +0.210 HD
ENDBRANCH  13   4
BRANCH   8  15
ATOM     15  C   UNL     1      -4.811 -11.339  13.635  0.00  0.00    +0.159 C 
BRANCH  15  17
ATOM      6  O   UNL     1      -4.151 -10.219  11.578  0.00  0.00    -0.461 OA
ATOM     17  C   UNL     1      -5.087 -10.325  12.558  0.00  0.00    +0.119 A 
ATOM     18  C   UNL     1      -6.121  -9.445  12.336  0.00  0.00    +0.046 A 
ATOM     20  C   UNL     1      -4.592  -9.260  10.722  0.00  0.00    +0.131 A 
ATOM     21  C   UNL     1      -5.799  -8.753  11.143  0.00  0.00    +0.047 A 
BRANCH  20  23
ATOM     23  C   UNL     1      -3.728  -8.971   9.568  0.00  0.00    +0.230 C 
BRANCH  23   7
ATOM      7  O   UNL     1      -4.520  -8.589   8.441  0.00  0.00    -0.387 OA
ATOM     31  H   UNL     1      -5.264  -8.065   8.783  0.00  0.00    +0.210 HD
ENDBRANCH  23   7
ENDBRANCH  20  23
ENDBRANCH  15  17
ENDBRANCH   8  15
TORSDOF 8
ENDMDL
MODEL 4
REMARK VINA RESULT:      -6.6     14.987     18.471
REMARK  Name = 26743622
REMARK  8 active torsions:
REMARK  status: ('A' for Active; 'I' for Inactive)
REMARK    1  A    between atoms: O_4  and  C_13
REMARK    2  A    between atoms: O_7  and  C_23
REMARK    3  A    between atoms: N_8  and  C_15
REMARK    4  A    between atoms: C_11  and  C_16
REMARK    5  A    between atoms: C_15  and  C_17
REMARK    6  A    between atoms: C_19  and  C_22
REMARK    7  A    between atoms: C_20  and  C_23
REMARK    8  A    between atoms: C_28  and  C_29
REMARK                            x       y       z     vdW  Elec       q    Type
REMARK                         _______ _______ _______ _____ _____    ______ ____
ROOT
ATOM      8  N   UNL     1      12.253   7.373   6.097  0.00  0.00    -0.282 NA
ATOM     11  C   UNL     1      12.285   8.055   4.786  0.00  0.00    +0.149 C 
ATOM     12  C   UNL     1      13.770   8.391   4.554  0.00  0.00    +0.061 C 
ATOM     13  C   UNL     1      14.486   7.902   5.806  0.00  0.00    +0.130 C 
ATOM     14  C   UNL     1      13.391   7.885   6.857  0.00  0.00    +0.117 C 
ENDROOT
BRANCH  11  16
ATOM      5  O   UNL     1      10.339   7.166   3.604  0.00  0.00    -0.336 OA
ATOM      9  N   UNL     1      12.305   6.503   2.758  0.00  0.00    -0.190 NA
ATOM     10  N   UNL     1      10.036   6.337   2.517  0.00  0.00    -0.056 NA
ATOM     16  C   UNL     1      11.696   7.211   3.676  0.00  0.00    +0.245 A 
ATOM     19  C   UNL     1      11.245   5.986   2.071  0.00  0.00    +0.202 A 
BRANCH  19  22
ATOM     22  C   UNL     1      11.431   5.122   0.942  0.00  0.00    +0.022 A 
ATOM     24  C   UNL     1      10.486   5.102  -0.085  0.00  0.00    +0.012 A 
ATOM     25  C   UNL     1      12.557   4.302   0.869  0.00  0.00    +0.012 A 
ATOM     26  C   UNL     1      10.667   4.262  -1.183  0.00  0.00    +0.013 A 
ATOM     27  C   UNL     1      12.738   3.461  -0.229  0.00  0.00    +0.013 A 
ATOM     28  C   UNL     1      11.793   3.441  -1.255  0.00  0.00    +0.055 A 
BRANCH  28  29
ATOM      1  F   UNL     1      13.114   2.819  -3.151  0.00  0.00    -0.166 F 
ATOM      2  F   UNL     1      10.956   2.613  -3.320  0.00  0.00    -0.166 F 
ATOM      3  F   UNL     1      12.093   1.222  -2.096  0.00  0.00    -0.166 F 
ATOM     29  C   UNL     1      11.987   2.542  -2.430  0.00  0.00    +0.417 C 
ENDBRANCH  28  29
ENDBRANCH  19  22
ENDBRANCH  11  16
BRANCH  13   4
ATOM      4  O   UNL     1      15.538   8.779   6.159  0.00  0.00    -0.390 OA
ATOM     30  H   UNL     1      16.372   8.284   6.073  0.00  0.00    +0.210 HD
ENDBRANCH  13   4
BRANCH   8  15
ATOM     15  C   UNL     1      10.994   7.555   6.807  0.00  0.00    +0.159 C 
BRANCH  15  17
ATOM      6  O   UNL     1      10.000   6.175   8.548  0.00  0.00    -0.461 OA
ATOM     17  C   UNL     1      10.409   6.241   7.254  0.00  0.00    +0.119 A 
ATOM     18  C   UNL     1      10.186   5.044   6.614  0.00  0.00    +0.046 A 
ATOM     20  C   UNL     1       9.512   4.920   8.738  0.00  0.00    +0.131 A 
ATOM     21  C   UNL     1       9.604   4.186   7.578  0.00  0.00    +0.047 A 
BRANCH  20  23
ATOM     23  C   UNL     1       9.007   4.616  10.084  0.00  0.00    +0.230 C 
BRANCH  23   7
ATOM      7  O   UNL     1      10.094   4.490  11.003  0.00  0.00    -0.387 OA
ATOM     31  H   UNL     1       9.942   3.675  11.512  0.00  0.00    +0.210 HD
ENDBRANCH  23   7
ENDBRANCH  20  23
ENDBRANCH  15  17
ENDBRANCH   8  15
TORSDOF 8
ENDMDL
MODEL 5
REMARK VINA RESULT:      -6.3     16.080     19.528
REMARK  Name = 26743622
REMARK  8 active torsions:
REMARK  status: ('A' for Active; 'I' for Inactive)
REMARK    1  A    between atoms: O_4  and  C_13
REMARK    2  A    between atoms: O_7  and  C_23
REMARK    3  A    between atoms: N_8  and  C_15
REMARK    4  A    between atoms: C_11  and  C_16
REMARK    5  A    between atoms: C_15  and  C_17
REMARK    6  A    between atoms: C_19  and  C_22
REMARK    7  A    between atoms: C_20  and  C_23
REMARK    8  A    between atoms: C_28  and  C_29
REMARK                            x       y       z     vdW  Elec       q    Type
REMARK                         _______ _______ _______ _____ _____    ______ ____
ROOT
ATOM      8  N   UNL     1      13.273   7.212   4.743  0.00  0.00    -0.282 NA
ATOM     11  C   UNL     1      14.027   7.505   3.507  0.00  0.00    +0.149 C 
ATOM     12  C   UNL     1      15.480   7.714   3.973  0.00  0.00    +0.061 C 
ATOM     13  C   UNL     1      15.433   7.566   5.488  0.00  0.00    +0.130 C 
ATOM     14  C   UNL     1      13.988   7.875   5.831  0.00  0.00    +0.117 C 
ENDROOT
BRANCH  11  16
ATOM      5  O   UNL     1      14.928   5.524   2.394  0.00  0.00    -0.336 OA
ATOM      9  N   UNL     1      12.930   6.178   1.621  0.00  0.00    -0.190 NA
ATOM     10  N   UNL     1      14.587   4.619   1.381  0.00  0.00    -0.056 NA
ATOM     16  C   UNL     1      13.898   6.408   2.471  0.00  0.00    +0.245 A 
ATOM     19  C   UNL     1      13.397   5.070   0.974  0.00  0.00    +0.202 A 
BRANCH  19  22
ATOM     22  C   UNL     1      12.649   4.439  -0.073  0.00  0.00    +0.022 A 
ATOM     24  C   UNL     1      11.444   4.996  -0.504  0.00  0.00    +0.012 A 
ATOM     25  C   UNL     1      13.127   3.269  -0.664  0.00  0.00    +0.012 A 
ATOM     26  C   UNL     1      10.717   4.382  -1.523  0.00  0.00    +0.013 A 
ATOM     27  C   UNL     1      12.399   2.655  -1.683  0.00  0.00    +0.013 A 
ATOM     28  C   UNL     1      11.194   3.211  -2.113  0.00  0.00    +0.055 A 
BRANCH  28  29
ATOM      1  F   UNL     1       9.249   3.195  -3.507  0.00  0.00    -0.166 F 
ATOM      2  F   UNL     1      10.063   1.273  -2.895  0.00  0.00    -0.166 F 
ATOM      3  F   UNL     1      11.096   2.472  -4.386  0.00  0.00    -0.166 F 
ATOM     29  C   UNL     1      10.417   2.554  -3.203  0.00  0.00    +0.417 C 
ENDBRANCH  28  29
ENDBRANCH  19  22
ENDBRANCH  11  16
BRANCH  13   4
ATOM      4  O   UNL     1      16.325   8.471   6.110  0.00  0.00    -0.390 OA
ATOM     30  H   UNL     1      15.905   9.349   6.099  0.00  0.00    +0.210 HD
ENDBRANCH  13   4
BRANCH   8  15
ATOM     15  C   UNL     1      11.877   7.623   4.674  0.00  0.00    +0.159 C 
BRANCH  15  17
ATOM      6  O   UNL     1      10.876   6.317   6.467  0.00  0.00    -0.461 OA
ATOM     17  C   UNL     1      10.947   6.528   5.127  0.00  0.00    +0.119 A 
ATOM     18  C   UNL     1      10.118   5.660   4.455  0.00  0.00    +0.046 A 
ATOM     20  C   UNL     1       9.993   5.300   6.654  0.00  0.00    +0.131 A 
ATOM     21  C   UNL     1       9.499   4.862   5.448  0.00  0.00    +0.047 A 
BRANCH  20  23
ATOM     23  C   UNL     1       9.755   4.894   8.046  0.00  0.00    +0.230 C 
BRANCH  23   7
ATOM      7  O   UNL     1      10.575   3.771   8.380  0.00  0.00    -0.387 OA
ATOM     31  H   UNL     1       9.990   3.102   8.776  0.00  0.00    +0.210 HD
ENDBRANCH  23   7
ENDBRANCH  20  23
ENDBRANCH  15  17
ENDBRANCH   8  15
TORSDOF 8
ENDMDL
MODEL 6
REMARK VINA RESULT:      -6.3     27.305     29.492
REMARK  Name = 26743622
REMARK  8 active torsions:
REMARK  status: ('A' for Active; 'I' for Inactive)
REMARK    1  A    between atoms: O_4  and  C_13
REMARK    2  A    between atoms: O_7  and  C_23
REMARK    3  A    between atoms: N_8  and  C_15
REMARK    4  A    between atoms: C_11  and  C_16
REMARK    5  A    between atoms: C_15  and  C_17
REMARK    6  A    between atoms: C_19  and  C_22
REMARK    7  A    between atoms: C_20  and  C_23
REMARK    8  A    between atoms: C_28  and  C_29
REMARK                            x       y       z     vdW  Elec       q    Type
REMARK                         _______ _______ _______ _____ _____    ______ ____
ROOT
ATOM      8  N   UNL     1      -6.006 -10.916   6.059  0.00  0.00    -0.282 NA
ATOM     11  C   UNL     1      -5.245 -11.786   6.979  0.00  0.00    +0.149 C 
ATOM     12  C   UNL     1      -4.129 -12.396   6.110  0.00  0.00    +0.061 C 
ATOM     13  C   UNL     1      -4.374 -11.846   4.711  0.00  0.00    +0.130 C 
ATOM     14  C   UNL     1      -5.848 -11.487   4.723  0.00  0.00    +0.117 C 
ENDROOT
BRANCH  11  16
ATOM      5  O   UNL     1      -4.667  -9.681   8.079  0.00  0.00    -0.336 OA
ATOM      9  N   UNL     1      -4.264 -11.502   9.320  0.00  0.00    -0.190 NA
ATOM     10  N   UNL     1      -4.140  -9.218   9.291  0.00  0.00    -0.056 NA
ATOM     16  C   UNL     1      -4.707 -11.036   8.180  0.00  0.00    +0.245 A 
ATOM     19  C   UNL     1      -3.928 -10.349   9.969  0.00  0.00    +0.202 A 
BRANCH  19  22
ATOM     22  C   UNL     1      -3.384 -10.364  11.296  0.00  0.00    +0.022 A 
ATOM     24  C   UNL     1      -4.203 -10.669  12.384  0.00  0.00    +0.012 A 
ATOM     25  C   UNL     1      -2.034 -10.076  11.498  0.00  0.00    +0.012 A 
ATOM     26  C   UNL     1      -3.674 -10.683  13.673  0.00  0.00    +0.013 A 
ATOM     27  C   UNL     1      -1.504 -10.091  12.789  0.00  0.00    +0.013 A 
ATOM     28  C   UNL     1      -2.324 -10.394  13.876  0.00  0.00    +0.055 A 
BRANCH  28  29
ATOM      1  F   UNL     1      -0.891  -9.383  15.504  0.00  0.00    -0.166 F 
ATOM      2  F   UNL     1      -1.057 -11.552  15.521  0.00  0.00    -0.166 F 
ATOM      3  F   UNL     1      -2.703 -10.325  16.237  0.00  0.00    -0.166 F 
ATOM     29  C   UNL     1      -1.757 -10.410  15.256  0.00  0.00    +0.417 C 
ENDBRANCH  28  29
ENDBRANCH  19  22
ENDBRANCH  11  16
BRANCH  13   4
ATOM      4  O   UNL     1      -4.080 -12.822   3.729  0.00  0.00    -0.390 OA
ATOM     30  H   UNL     1      -4.549 -13.637   3.979  0.00  0.00    +0.210 HD
ENDBRANCH  13   4
BRANCH   8  15
ATOM     15  C   UNL     1      -7.408 -10.774   6.432  0.00  0.00    +0.159 C 
BRANCH  15  17
ATOM      6  O   UNL     1      -7.804  -8.533   7.293  0.00  0.00    -0.461 OA
ATOM     17  C   UNL     1      -7.903  -9.368   6.226  0.00  0.00    +0.119 A 
ATOM     18  C   UNL     1      -8.455  -8.713   5.149  0.00  0.00    +0.046 A 
ATOM     20  C   UNL     1      -8.300  -7.332   6.895  0.00  0.00    +0.131 A 
ATOM     21  C   UNL     1      -8.713  -7.390   5.584  0.00  0.00    +0.047 A 
BRANCH  20  23
ATOM     23  C   UNL     1      -8.294  -6.261   7.901  0.00  0.00    +0.230 C 
BRANCH  23   7
ATOM      7  O   UNL     1      -6.951  -5.942   8.276  0.00  0.00    -0.387 OA
ATOM     31  H   UNL     1      -6.955  -5.020   8.585  0.00  0.00    +0.210 HD
ENDBRANCH  23   7
ENDBRANCH  20  23
ENDBRANCH  15  17
ENDBRANCH   8  15
TORSDOF 8
ENDMDL
MODEL 7
REMARK VINA RESULT:      -6.3     13.814     15.970
REMARK  Name = 26743622
REMARK  8 active torsions:
REMARK  status: ('A' for Active; 'I' for Inactive)
REMARK    1  A    between atoms: O_4  and  C_13
REMARK    2  A    between atoms: O_7  and  C_23
REMARK    3  A    between atoms: N_8  and  C_15
REMARK    4  A    between atoms: C_11  and  C_16
REMARK    5  A    between atoms: C_15  and  C_17
REMARK    6  A    between atoms: C_19  and  C_22
REMARK    7  A    between atoms: C_20  and  C_23
REMARK    8  A    between atoms: C_28  and  C_29
REMARK                            x       y       z     vdW  Elec       q    Type
REMARK                         _______ _______ _______ _____ _____    ______ ____
ROOT
ATOM      8  N   UNL     1      11.801   6.498   4.644  0.00  0.00    -0.282 NA
ATOM     11  C   UNL     1      12.047   7.883   5.097  0.00  0.00    +0.149 C 
ATOM     12  C   UNL     1      11.698   7.873   6.597  0.00  0.00    +0.061 C 
ATOM     13  C   UNL     1      11.223   6.454   6.883  0.00  0.00    +0.130 C 
ATOM     14  C   UNL     1      10.772   5.951   5.525  0.00  0.00    +0.117 C 
ENDROOT
BRANCH  11  16
ATOM      5  O   UNL     1      13.610   9.412   4.006  0.00  0.00    -0.336 OA
ATOM      9  N   UNL     1      14.594   7.853   5.276  0.00  0.00    -0.190 NA
ATOM     10  N   UNL     1      14.987   9.644   3.910  0.00  0.00    -0.056 NA
ATOM     16  C   UNL     1      13.465   8.341   4.830  0.00  0.00    +0.245 A 
ATOM     19  C   UNL     1      15.500   8.686   4.686  0.00  0.00    +0.202 A 
BRANCH  19  22
ATOM     22  C   UNL     1      16.910   8.531   4.893  0.00  0.00    +0.022 A 
ATOM     24  C   UNL     1      17.467   8.807   6.142  0.00  0.00    +0.012 A 
ATOM     25  C   UNL     1      17.726   8.103   3.845  0.00  0.00    +0.012 A 
ATOM     26  C   UNL     1      18.838   8.657   6.343  0.00  0.00    +0.013 A 
ATOM     27  C   UNL     1      19.098   7.953   4.046  0.00  0.00    +0.013 A 
ATOM     28  C   UNL     1      19.654   8.230   5.296  0.00  0.00    +0.055 A 
BRANCH  28  29
ATOM      1  F   UNL     1      21.886   8.729   4.590  0.00  0.00    -0.166 F 
ATOM      2  F   UNL     1      21.519   6.765   5.449  0.00  0.00    -0.166 F 
ATOM      3  F   UNL     1      21.550   8.526   6.724  0.00  0.00    -0.166 F 
ATOM     29  C   UNL     1      21.122   8.069   5.510  0.00  0.00    +0.417 C 
ENDBRANCH  28  29
ENDBRANCH  19  22
ENDBRANCH  11  16
BRANCH  13   4
ATOM      4  O   UNL     1      10.164   6.458   7.820  0.00  0.00    -0.390 OA
ATOM     30  H   UNL     1      10.556   6.559   8.705  0.00  0.00    +0.210 HD
ENDBRANCH  13   4
BRANCH   8  15
ATOM     15  C   UNL     1      11.423   6.413   3.240  0.00  0.00    +0.159 C 
BRANCH  15  17
ATOM      6  O   UNL     1      13.258   5.219   2.176  0.00  0.00    -0.461 OA
ATOM     17  C   UNL     1      11.965   5.168   2.589  0.00  0.00    +0.119 A 
ATOM     18  C   UNL     1      11.416   3.938   2.309  0.00  0.00    +0.046 A 
ATOM     20  C   UNL     1      13.539   4.009   1.625  0.00  0.00    +0.131 A 
ATOM     21  C   UNL     1      12.439   3.185   1.683  0.00  0.00    +0.047 A 
BRANCH  20  23
ATOM     23  C   UNL     1      14.901   3.832   1.103  0.00  0.00    +0.230 C 
BRANCH  23   7
ATOM      7  O   UNL     1      15.689   3.073   2.024  0.00  0.00    -0.387 OA
ATOM     31  H   UNL     1      15.691   3.562   2.864  0.00  0.00    +0.210 HD
ENDBRANCH  23   7
ENDBRANCH  20  23
ENDBRANCH  15  17
ENDBRANCH   8  15
TORSDOF 8
ENDMDL
MODEL 8
REMARK VINA RESULT:      -6.2     27.152     28.518
REMARK  Name = 26743622
REMARK  8 active torsions:
REMARK  status: ('A' for Active; 'I' for Inactive)
REMARK    1  A    between atoms: O_4  and  C_13
REMARK    2  A    between atoms: O_7  and  C_23
REMARK    3  A    between atoms: N_8  and  C_15
REMARK    4  A    between atoms: C_11  and  C_16
REMARK    5  A    between atoms: C_15  and  C_17
REMARK    6  A    between atoms: C_19  and  C_22
REMARK    7  A    between atoms: C_20  and  C_23
REMARK    8  A    between atoms: C_28  and  C_29
REMARK                            x       y       z     vdW  Elec       q    Type
REMARK                         _______ _______ _______ _____ _____    ______ ____
ROOT
ATOM      8  N   UNL     1     -11.850  12.292  15.419  0.00  0.00    -0.282 NA
ATOM     11  C   UNL     1     -10.615  11.856  16.103  0.00  0.00    +0.149 C 
ATOM     12  C   UNL     1     -10.249  13.025  17.037  0.00  0.00    +0.061 C 
ATOM     13  C   UNL     1     -11.309  14.087  16.773  0.00  0.00    +0.130 C 
ATOM     14  C   UNL     1     -11.808  13.752  15.380  0.00  0.00    +0.117 C 
ENDROOT
BRANCH  11  16
ATOM      5  O   UNL     1      -9.981   9.524  16.464  0.00  0.00    -0.336 OA
ATOM      9  N   UNL     1     -11.618  10.245  17.811  0.00  0.00    -0.190 NA
ATOM     10  N   UNL     1     -10.323   8.437  17.278  0.00  0.00    -0.056 NA
ATOM     16  C   UNL     1     -10.790  10.548  16.844  0.00  0.00    +0.245 A 
ATOM     19  C   UNL     1     -11.294   8.940  18.045  0.00  0.00    +0.202 A 
BRANCH  19  22
ATOM     22  C   UNL     1     -11.961   8.168  19.053  0.00  0.00    +0.022 A 
ATOM     24  C   UNL     1     -13.353   8.085  19.062  0.00  0.00    +0.012 A 
ATOM     25  C   UNL     1     -11.216   7.499  20.024  0.00  0.00    +0.012 A 
ATOM     26  C   UNL     1     -14.001   7.334  20.042  0.00  0.00    +0.013 A 
ATOM     27  C   UNL     1     -11.864   6.748  21.005  0.00  0.00    +0.013 A 
ATOM     28  C   UNL     1     -13.256   6.666  21.014  0.00  0.00    +0.055 A 
BRANCH  28  29
ATOM      1  F   UNL     1     -14.982   5.109  21.583  0.00  0.00    -0.166 F 
ATOM      2  F   UNL     1     -14.487   6.638  23.047  0.00  0.00    -0.166 F 
ATOM      3  F   UNL     1     -13.129   4.976  22.702  0.00  0.00    -0.166 F 
ATOM     29  C   UNL     1     -13.948   5.862  22.063  0.00  0.00    +0.417 C 
ENDBRANCH  28  29
ENDBRANCH  19  22
ENDBRANCH  11  16
BRANCH  13   4
ATOM      4  O   UNL     1     -10.747  15.384  16.831  0.00  0.00    -0.390 OA
ATOM     30  H   UNL     1     -10.477  15.544  17.753  0.00  0.00    +0.210 HD
ENDBRANCH  13   4
BRANCH   8  15
ATOM     15  C   UNL     1     -12.005  11.713  14.091  0.00  0.00    +0.159 C 
BRANCH  15  17
ATOM      6  O   UNL     1     -11.405   9.374  13.786  0.00  0.00    -0.461 OA
ATOM     17  C   UNL     1     -12.372  10.254  14.155  0.00  0.00    +0.119 A 
ATOM     18  C   UNL     1     -13.518   9.588  14.523  0.00  0.00    +0.046 A 
ATOM     20  C   UNL     1     -11.940   8.132  13.917  0.00  0.00    +0.131 A 
ATOM     21  C   UNL     1     -13.237   8.209  14.367  0.00  0.00    +0.047 A 
BRANCH  20  23
ATOM     23  C   UNL     1     -11.062   7.006  13.567  0.00  0.00    +0.230 C 
BRANCH  23   7
ATOM      7  O   UNL     1     -10.071   6.819  14.581  0.00  0.00    -0.387 OA
ATOM     31  H   UNL     1      -9.971   7.671  15.040  0.00  0.00    +0.210 HD
ENDBRANCH  23   7
ENDBRANCH  20  23
ENDBRANCH  15  17
ENDBRANCH   8  15
TORSDOF 8
ENDMDL
MODEL 9
REMARK VINA RESULT:      -6.1     15.243     17.941
REMARK  Name = 26743622
REMARK  8 active torsions:
REMARK  status: ('A' for Active; 'I' for Inactive)
REMARK    1  A    between atoms: O_4  and  C_13
REMARK    2  A    between atoms: O_7  and  C_23
REMARK    3  A    between atoms: N_8  and  C_15
REMARK    4  A    between atoms: C_11  and  C_16
REMARK    5  A    between atoms: C_15  and  C_17
REMARK    6  A    between atoms: C_19  and  C_22
REMARK    7  A    between atoms: C_20  and  C_23
REMARK    8  A    between atoms: C_28  and  C_29
REMARK                            x       y       z     vdW  Elec       q    Type
REMARK                         _______ _______ _______ _____ _____    ______ ____
ROOT
ATOM      8  N   UNL     1      11.929   7.964   6.294  0.00  0.00    -0.282 NA
ATOM     11  C   UNL     1      10.796   7.025   6.420  0.00  0.00    +0.149 C 
ATOM     12  C   UNL     1       9.542   7.920   6.420  0.00  0.00    +0.061 C 
ATOM     13  C   UNL     1      10.075   9.345   6.337  0.00  0.00    +0.130 C 
ATOM     14  C   UNL     1      11.487   9.228   6.879  0.00  0.00    +0.117 C 
ENDROOT
BRANCH  11  16
ATOM      5  O   UNL     1      10.148   4.814   5.604  0.00  0.00    -0.336 OA
ATOM      9  N   UNL     1      11.275   6.046   4.111  0.00  0.00    -0.190 NA
ATOM     10  N   UNL     1      10.256   4.027   4.451  0.00  0.00    -0.056 NA
ATOM     16  C   UNL     1      10.773   5.987   5.318  0.00  0.00    +0.245 A 
ATOM     19  C   UNL     1      10.932   4.820   3.617  0.00  0.00    +0.202 A 
BRANCH  19  22
ATOM     22  C   UNL     1      11.281   4.422   2.284  0.00  0.00    +0.022 A 
ATOM     24  C   UNL     1      10.461   4.776   1.212  0.00  0.00    +0.012 A 
ATOM     25  C   UNL     1      12.442   3.681   2.060  0.00  0.00    +0.012 A 
ATOM     26  C   UNL     1      10.801   4.389  -0.083  0.00  0.00    +0.013 A 
ATOM     27  C   UNL     1      12.781   3.293   0.763  0.00  0.00    +0.013 A 
ATOM     28  C   UNL     1      11.961   3.648  -0.308  0.00  0.00    +0.055 A 
BRANCH  28  29
ATOM      1  F   UNL     1      12.292   1.882  -1.889  0.00  0.00    -0.166 F 
ATOM      2  F   UNL     1      13.586   3.622  -2.042  0.00  0.00    -0.166 F 
ATOM      3  F   UNL     1      11.503   3.753  -2.654  0.00  0.00    -0.166 F 
ATOM     29  C   UNL     1      12.325   3.233  -1.694  0.00  0.00    +0.417 C 
ENDBRANCH  28  29
ENDBRANCH  19  22
ENDBRANCH  11  16
BRANCH  13   4
ATOM      4  O   UNL     1       9.286  10.223   7.116  0.00  0.00    -0.390 OA
ATOM     30  H   UNL     1       9.767  11.066   7.184  0.00  0.00    +0.210 HD
ENDBRANCH  13   4
BRANCH   8  15
ATOM     15  C   UNL     1      13.153   7.472   6.914  0.00  0.00    +0.159 C 
BRANCH  15  17
ATOM      6  O   UNL     1      14.225   7.214   4.744  0.00  0.00    -0.461 OA
ATOM     17  C   UNL     1      14.350   7.664   6.020  0.00  0.00    +0.119 A 
ATOM     18  C   UNL     1      15.593   8.219   6.219  0.00  0.00    +0.046 A 
ATOM     20  C   UNL     1      15.403   7.483   4.121  0.00  0.00    +0.131 A 
ATOM     21  C   UNL     1      16.277   8.101   4.984  0.00  0.00    +0.047 A 
BRANCH  20  23
ATOM     23  C   UNL     1      15.499   7.079   2.711  0.00  0.00    +0.230 C 
BRANCH  23   7
ATOM      7  O   UNL     1      15.240   5.678   2.580  0.00  0.00    -0.387 OA
ATOM     31  H   UNL     1      14.704   5.417   3.348  0.00  0.00    +0.210 HD
ENDBRANCH  23   7
ENDBRANCH  20  23
ENDBRANCH  15  17
ENDBRANCH   8  15
TORSDOF 8
ENDMDL
MODEL 10
REMARK VINA RESULT:      -6.1     14.474     17.180
REMARK  Name = 26743622
REMARK  8 active torsions:
REMARK  status: ('A' for Active; 'I' for Inactive)
REMARK    1  A    between atoms: O_4  and  C_13
REMARK    2  A    between atoms: O_7  and  C_23
REMARK    3  A    between atoms: N_8  and  C_15
REMARK    4  A    between atoms: C_11  and  C_16
REMARK    5  A    between atoms: C_15  and  C_17
REMARK    6  A    between atoms: C_19  and  C_22
REMARK    7  A    between atoms: C_20  and  C_23
REMARK    8  A    between atoms: C_28  and  C_29
REMARK                            x       y       z     vdW  Elec       q    Type
REMARK                         _______ _______ _______ _____ _____    ______ ____
ROOT
ATOM      8  N   UNL     1       9.212   9.899   6.215  0.00  0.00    -0.282 NA
ATOM     11  C   UNL     1       8.172   9.069   5.572  0.00  0.00    +0.149 C 
ATOM     12  C   UNL     1       7.520   9.995   4.528  0.00  0.00    +0.061 C 
ATOM     13  C   UNL     1       8.228  11.334   4.692  0.00  0.00    +0.130 C 
ATOM     14  C   UNL     1       8.759  11.284   6.112  0.00  0.00    +0.117 C 
ENDROOT
BRANCH  11  16
ATOM      5  O   UNL     1       8.180   6.633   5.379  0.00  0.00    -0.336 OA
ATOM      9  N   UNL     1       9.686   7.658   4.076  0.00  0.00    -0.190 NA
ATOM     10  N   UNL     1       8.851   5.618   4.686  0.00  0.00    -0.056 NA
ATOM     16  C   UNL     1       8.732   7.802   4.960  0.00  0.00    +0.245 A 
ATOM     19  C   UNL     1       9.723   6.301   3.938  0.00  0.00    +0.202 A 
BRANCH  19  22
ATOM     22  C   UNL     1      10.643   5.659   3.045  0.00  0.00    +0.022 A 
ATOM     24  C   UNL     1      11.279   6.400   2.048  0.00  0.00    +0.012 A 
ATOM     25  C   UNL     1      10.902   4.295   3.173  0.00  0.00    +0.012 A 
ATOM     26  C   UNL     1      12.174   5.776   1.180  0.00  0.00    +0.013 A 
ATOM     27  C   UNL     1      11.797   3.670   2.304  0.00  0.00    +0.013 A 
ATOM     28  C   UNL     1      12.433   4.411   1.307  0.00  0.00    +0.055 A 
BRANCH  28  29
ATOM      1  F   UNL     1      14.471   3.194   1.008  0.00  0.00    -0.166 F 
ATOM      2  F   UNL     1      13.904   4.601  -0.550  0.00  0.00    -0.166 F 
ATOM      3  F   UNL     1      12.835   2.719  -0.336  0.00  0.00    -0.166 F 
ATOM     29  C   UNL     1      13.390   3.743   0.379  0.00  0.00    +0.417 C 
ENDBRANCH  28  29
ENDBRANCH  19  22
ENDBRANCH  11  16
BRANCH  13   4
ATOM      4  O   UNL     1       7.325  12.407   4.507  0.00  0.00    -0.390 OA
ATOM     30  H   UNL     1       7.456  13.029   5.244  0.00  0.00    +0.210 HD
ENDBRANCH  13   4
BRANCH   8  15
ATOM     15  C   UNL     1       9.484   9.511   7.593  0.00  0.00    +0.159 C 
BRANCH  15  17
ATOM      6  O   UNL     1       9.460   7.182   8.299  0.00  0.00    -0.461 OA
ATOM     17  C   UNL     1      10.157   8.167   7.675  0.00  0.00    +0.119 A 
ATOM     18  C   UNL     1      11.373   7.696   7.237  0.00  0.00    +0.046 A 
ATOM     20  C   UNL     1      10.239   6.070   8.261  0.00  0.00    +0.131 A 
ATOM     21  C   UNL     1      11.426   6.333   7.618  0.00  0.00    +0.047 A 
BRANCH  20  23
ATOM     23  C   UNL     1       9.680   4.863   8.886  0.00  0.00    +0.230 C 
BRANCH  23   7
ATOM      7  O   UNL     1      10.223   3.691   8.271  0.00  0.00    -0.387 OA
ATOM     31  H   UNL     1       9.806   2.926   8.703  0.00  0.00    +0.210 HD
ENDBRANCH  23   7
ENDBRANCH  20  23
ENDBRANCH  15  17
ENDBRANCH   8  15
TORSDOF 8
ENDMDL
