MODEL 1
REMARK VINA RESULT:      -7.3      0.000      0.000
REMARK  Name = 40724251
REMARK  6 active torsions:
REMARK  status: ('A' for Active; 'I' for Inactive)
REMARK    1  A    between atoms: S_1  and  N_5
REMARK    2  A    between atoms: S_1  and  C_16
REMARK    3  A    between atoms: C_16  and  C_19
REMARK    4  A    between atoms: C_17  and  C_20
REMARK    5  A    between atoms: C_19  and  C_21
REMARK    6  A    between atoms: C_22  and  C_25
REMARK                            x       y       z     vdW  Elec       q    Type
REMARK                         _______ _______ _______ _____ _____    ______ ____
ROOT
ATOM      4  O   UNL     1      13.969  11.273  22.591  0.00  0.00    -0.267 OA
ATOM      5  N   UNL     1      13.497   8.278  18.635  0.00  0.00    -0.180 NA
ATOM      6  N   UNL     1      13.495   9.187  21.661  0.00  0.00    -0.311 N 
ATOM      7  C   UNL     1      15.237   7.826  20.368  0.00  0.00    +0.025 C 
ATOM      8  C   UNL     1      12.966   6.937  20.661  0.00  0.00    +0.052 C 
ATOM      9  C   UNL     1      14.446   6.618  20.854  0.00  0.00    +0.017 C 
ATOM     10  C   UNL     1      14.956   8.093  18.880  0.00  0.00    +0.114 C 
ATOM     11  C   UNL     1      12.675   7.148  19.164  0.00  0.00    +0.118 C 
ATOM     12  C   UNL     1      14.898   9.030  21.254  0.00  0.00    +0.130 C 
ATOM     13  C   UNL     1      12.566   8.166  21.455  0.00  0.00    +0.026 A 
ATOM     14  C   UNL     1      11.318   8.283  21.939  0.00  0.00    +0.022 A 
ATOM     15  C   UNL     1      13.167  10.366  22.359  0.00  0.00    +0.259 A 
ATOM     17  C   UNL     1      11.753  10.485  22.859  0.00  0.00    +0.047 A 
ATOM     18  C   UNL     1      10.908   9.464  22.646  0.00  0.00    +0.015 A 
ENDROOT
BRANCH  17  20
ATOM     20  C   UNL     1      11.289  11.694  23.560  0.00  0.00    -0.010 A 
ATOM     22  C   UNL     1      10.994  12.868  22.866  0.00  0.00    -0.043 A 
ATOM     23  C   UNL     1      11.148  11.651  24.948  0.00  0.00    +0.009 A 
ATOM     24  C   UNL     1      10.558  13.997  23.559  0.00  0.00    +0.004 A 
ATOM     25  C   UNL     1      11.134  12.951  21.380  0.00  0.00    +0.044 C 
ATOM     26  C   UNL     1      10.712  12.780  25.640  0.00  0.00    +0.001 A 
ATOM     27  C   UNL     1      10.417  13.953  24.945  0.00  0.00    +0.000 A 
ENDBRANCH  17  20
BRANCH   5   1
ATOM      1  S   UNL     1      13.073   8.834  17.074  0.00  0.00    +0.032 S 
ATOM      2  O   UNL     1      11.631   8.833  16.954  0.00  0.00    -0.158 OA
ATOM      3  O   UNL     1      13.916   8.176  16.100  0.00  0.00    -0.158 OA
BRANCH   1  16
ATOM     16  C   UNL     1      13.610  10.519  17.216  0.00  0.00    +0.185 C 
BRANCH  16  19
ATOM     19  C   UNL     1      13.243  11.105  18.570  0.00  0.00    +0.021 C 
ATOM     21  C   UNL     1      14.329  12.033  19.087  0.00  0.00    +0.005 C 
ENDBRANCH  16  19
ENDBRANCH   1  16
ENDBRANCH   5   1
TORSDOF 4
ENDMDL
MODEL 2
REMARK VINA RESULT:      -6.4     16.667     19.947
REMARK  Name = 40724251
REMARK  6 active torsions:
REMARK  status: ('A' for Active; 'I' for Inactive)
REMARK    1  A    between atoms: S_1  and  N_5
REMARK    2  A    between atoms: S_1  and  C_16
REMARK    3  A    between atoms: C_16  and  C_19
REMARK    4  A    between atoms: C_17  and  C_20
REMARK    5  A    between atoms: C_19  and  C_21
REMARK    6  A    between atoms: C_22  and  C_25
REMARK                            x       y       z     vdW  Elec       q    Type
REMARK                         _______ _______ _______ _____ _____    ______ ____
ROOT
ATOM      4  O   UNL     1      12.363   7.584   3.127  0.00  0.00    -0.267 OA
ATOM      5  N   UNL     1      13.299   4.585  -0.743  0.00  0.00    -0.180 NA
ATOM      6  N   UNL     1      12.876   5.481   2.257  0.00  0.00    -0.311 N 
ATOM      7  C   UNL     1      15.049   5.006   0.988  0.00  0.00    +0.025 C 
ATOM      8  C   UNL     1      13.413   3.206   1.323  0.00  0.00    +0.052 C 
ATOM      9  C   UNL     1      14.879   3.586   1.512  0.00  0.00    +0.017 C 
ATOM     10  C   UNL     1      14.686   5.079  -0.505  0.00  0.00    +0.114 C 
ATOM     11  C   UNL     1      13.066   3.222  -0.177  0.00  0.00    +0.118 C 
ATOM     12  C   UNL     1      14.203   5.956   1.843  0.00  0.00    +0.130 C 
ATOM     13  C   UNL     1      12.502   4.147   2.087  0.00  0.00    +0.026 A 
ATOM     14  C   UNL     1      11.331   3.708   2.577  0.00  0.00    +0.022 A 
ATOM     15  C   UNL     1      12.052   6.408   2.926  0.00  0.00    +0.259 A 
ATOM     17  C   UNL     1      10.731   5.896   3.433  0.00  0.00    +0.047 A 
ATOM     18  C   UNL     1      10.433   4.599   3.254  0.00  0.00    +0.015 A 
ENDROOT
BRANCH  17  20
ATOM     20  C   UNL     1       9.772   6.790   4.105  0.00  0.00    -0.010 A 
ATOM     22  C   UNL     1       9.763   6.932   5.493  0.00  0.00    -0.043 A 
ATOM     23  C   UNL     1       8.861   7.502   3.325  0.00  0.00    +0.009 A 
ATOM     24  C   UNL     1       8.842   7.785   6.100  0.00  0.00    +0.004 A 
ATOM     25  C   UNL     1      10.724   6.185   6.360  0.00  0.00    +0.044 C 
ATOM     26  C   UNL     1       7.940   8.355   3.932  0.00  0.00    +0.001 A 
ATOM     27  C   UNL     1       7.931   8.497   5.321  0.00  0.00    +0.000 A 
ENDBRANCH  17  20
BRANCH   5   1
ATOM      1  S   UNL     1      12.679   4.849  -2.315  0.00  0.00    +0.032 S 
ATOM      2  O   UNL     1      13.406   4.017  -3.249  0.00  0.00    -0.158 OA
ATOM      3  O   UNL     1      12.529   6.273  -2.524  0.00  0.00    -0.158 OA
BRANCH   1  16
ATOM     16  C   UNL     1      11.062   4.152  -2.104  0.00  0.00    +0.185 C 
BRANCH  16  19
ATOM     19  C   UNL     1      10.028   5.227  -1.812  0.00  0.00    +0.021 C 
ATOM     21  C   UNL     1       9.838   5.424  -0.317  0.00  0.00    +0.005 C 
ENDBRANCH  16  19
ENDBRANCH   1  16
ENDBRANCH   5   1
TORSDOF 4
ENDMDL
MODEL 3
REMARK VINA RESULT:      -6.0     16.195     19.424
REMARK  Name = 40724251
REMARK  6 active torsions:
REMARK  status: ('A' for Active; 'I' for Inactive)
REMARK    1  A    between atoms: S_1  and  N_5
REMARK    2  A    between atoms: S_1  and  C_16
REMARK    3  A    between atoms: C_16  and  C_19
REMARK    4  A    between atoms: C_17  and  C_20
REMARK    5  A    between atoms: C_19  and  C_21
REMARK    6  A    between atoms: C_22  and  C_25
REMARK                            x       y       z     vdW  Elec       q    Type
REMARK                         _______ _______ _______ _____ _____    ______ ____
ROOT
ATOM      4  O   UNL     1      12.334   7.298   3.896  0.00  0.00    -0.267 OA
ATOM      5  N   UNL     1      12.301   5.301  -0.670  0.00  0.00    -0.180 NA
ATOM      6  N   UNL     1      12.640   5.481   2.466  0.00  0.00    -0.311 N 
ATOM      7  C   UNL     1      14.427   5.455   0.632  0.00  0.00    +0.025 C 
ATOM      8  C   UNL     1      12.955   3.512   0.929  0.00  0.00    +0.052 C 
ATOM      9  C   UNL     1      14.416   3.946   0.838  0.00  0.00    +0.017 C 
ATOM     10  C   UNL     1      13.695   5.828  -0.669  0.00  0.00    +0.114 C 
ATOM     11  C   UNL     1      12.239   3.833  -0.396  0.00  0.00    +0.118 C 
ATOM     12  C   UNL     1      13.812   6.130   1.863  0.00  0.00    +0.130 C 
ATOM     13  C   UNL     1      12.254   4.194   2.088  0.00  0.00    +0.026 A 
ATOM     14  C   UNL     1      11.252   3.574   2.733  0.00  0.00    +0.022 A 
ATOM     15  C   UNL     1      11.999   6.176   3.511  0.00  0.00    +0.259 A 
ATOM     17  C   UNL     1      10.858   5.470   4.192  0.00  0.00    +0.047 A 
ATOM     18  C   UNL     1      10.543   4.227   3.796  0.00  0.00    +0.015 A 
ENDROOT
BRANCH  17  20
ATOM     20  C   UNL     1      10.088   6.123   5.265  0.00  0.00    -0.010 A 
ATOM     22  C   UNL     1       9.048   7.006   4.979  0.00  0.00    -0.043 A 
ATOM     23  C   UNL     1      10.418   5.841   6.592  0.00  0.00    +0.009 A 
ATOM     24  C   UNL     1       8.339   7.609   6.017  0.00  0.00    +0.004 A 
ATOM     25  C   UNL     1       8.666   7.332   3.570  0.00  0.00    +0.044 C 
ATOM     26  C   UNL     1       9.709   6.444   7.630  0.00  0.00    +0.001 A 
ATOM     27  C   UNL     1       8.668   7.328   7.342  0.00  0.00    +0.000 A 
ENDBRANCH  17  20
BRANCH   5   1
ATOM      1  S   UNL     1      11.299   5.859  -1.939  0.00  0.00    +0.032 S 
ATOM      2  O   UNL     1      11.007   4.752  -2.824  0.00  0.00    -0.158 OA
ATOM      3  O   UNL     1      11.829   7.110  -2.436  0.00  0.00    -0.158 OA
BRANCH   1  16
ATOM     16  C   UNL     1       9.833   6.217  -1.007  0.00  0.00    +0.185 C 
BRANCH  16  19
ATOM     19  C   UNL     1      10.170   6.828   0.344  0.00  0.00    +0.021 C 
ATOM     21  C   UNL     1      10.011   8.339   0.326  0.00  0.00    +0.005 C 
ENDBRANCH  16  19
ENDBRANCH   1  16
ENDBRANCH   5   1
TORSDOF 4
ENDMDL
MODEL 4
REMARK VINA RESULT:      -6.0     24.260     25.733
REMARK  Name = 40724251
REMARK  6 active torsions:
REMARK  status: ('A' for Active; 'I' for Inactive)
REMARK    1  A    between atoms: S_1  and  N_5
REMARK    2  A    between atoms: S_1  and  C_16
REMARK    3  A    between atoms: C_16  and  C_19
REMARK    4  A    between atoms: C_17  and  C_20
REMARK    5  A    between atoms: C_19  and  C_21
REMARK    6  A    between atoms: C_22  and  C_25
REMARK                            x       y       z     vdW  Elec       q    Type
REMARK                         _______ _______ _______ _____ _____    ______ ____
ROOT
ATOM      4  O   UNL     1     -12.536   9.970  20.664  0.00  0.00    -0.267 OA
ATOM      5  N   UNL     1     -12.194  11.849  16.060  0.00  0.00    -0.180 NA
ATOM      6  N   UNL     1     -11.354  10.294  18.680  0.00  0.00    -0.311 N 
ATOM      7  C   UNL     1     -10.643  12.615  17.861  0.00  0.00    +0.025 C 
ATOM      8  C   UNL     1     -10.080  10.628  16.533  0.00  0.00    +0.052 C 
ATOM      9  C   UNL     1      -9.493  11.872  17.194  0.00  0.00    +0.017 C 
ATOM     10  C   UNL     1     -11.695  13.031  16.820  0.00  0.00    +0.114 C 
ATOM     11  C   UNL     1     -11.091  11.048  15.450  0.00  0.00    +0.118 C 
ATOM     12  C   UNL     1     -11.232  11.731  18.967  0.00  0.00    +0.130 C 
ATOM     13  C   UNL     1     -10.746   9.729  17.557  0.00  0.00    +0.026 A 
ATOM     14  C   UNL     1     -10.772   8.398  17.377  0.00  0.00    +0.022 A 
ATOM     15  C   UNL     1     -12.018   9.511  19.644  0.00  0.00    +0.259 A 
ATOM     17  C   UNL     1     -12.062   8.028  19.396  0.00  0.00    +0.047 A 
ATOM     18  C   UNL     1     -11.445   7.539  18.309  0.00  0.00    +0.015 A 
ENDROOT
BRANCH  17  20
ATOM     20  C   UNL     1     -12.770   7.120  20.316  0.00  0.00    -0.010 A 
ATOM     22  C   UNL     1     -14.162   7.036  20.323  0.00  0.00    -0.043 A 
ATOM     23  C   UNL     1     -12.019   6.335  21.192  0.00  0.00    +0.009 A 
ATOM     24  C   UNL     1     -14.804   6.168  21.206  0.00  0.00    +0.004 A 
ATOM     25  C   UNL     1     -14.999   7.862  19.399  0.00  0.00    +0.044 C 
ATOM     26  C   UNL     1     -12.661   5.467  22.075  0.00  0.00    +0.001 A 
ATOM     27  C   UNL     1     -14.054   5.384  22.081  0.00  0.00    +0.000 A 
ENDBRANCH  17  20
BRANCH   5   1
ATOM      1  S   UNL     1     -13.547  12.133  15.053  0.00  0.00    +0.032 S 
ATOM      2  O   UNL     1     -13.085  12.681  13.795  0.00  0.00    -0.158 OA
ATOM      3  O   UNL     1     -14.579  12.783  15.830  0.00  0.00    -0.158 OA
BRANCH   1  16
ATOM     16  C   UNL     1     -14.048  10.455  14.768  0.00  0.00    +0.185 C 
BRANCH  16  19
ATOM     19  C   UNL     1     -14.208   9.696  16.075  0.00  0.00    +0.021 C 
ATOM     21  C   UNL     1     -14.182   8.193  15.852  0.00  0.00    +0.005 C 
ENDBRANCH  16  19
ENDBRANCH   1  16
ENDBRANCH   5   1
TORSDOF 4
ENDMDL
MODEL 5
REMARK VINA RESULT:      -5.8     17.018     20.232
REMARK  Name = 40724251
REMARK  6 active torsions:
REMARK  status: ('A' for Active; 'I' for Inactive)
REMARK    1  A    between atoms: S_1  and  N_5
REMARK    2  A    between atoms: S_1  and  C_16
REMARK    3  A    between atoms: C_16  and  C_19
REMARK    4  A    between atoms: C_17  and  C_20
REMARK    5  A    between atoms: C_19  and  C_21
REMARK    6  A    between atoms: C_22  and  C_25
REMARK                            x       y       z     vdW  Elec       q    Type
REMARK                         _______ _______ _______ _____ _____    ______ ____
ROOT
ATOM      4  O   UNL     1      12.403   7.407   3.496  0.00  0.00    -0.267 OA
ATOM      5  N   UNL     1      13.140   4.894  -0.745  0.00  0.00    -0.180 NA
ATOM      6  N   UNL     1      12.876   5.427   2.359  0.00  0.00    -0.311 N 
ATOM      7  C   UNL     1      14.980   5.126   0.928  0.00  0.00    +0.025 C 
ATOM      8  C   UNL     1      13.371   3.282   1.135  0.00  0.00    +0.052 C 
ATOM      9  C   UNL     1      14.844   3.653   1.290  0.00  0.00    +0.017 C 
ATOM     10  C   UNL     1      14.536   5.370  -0.524  0.00  0.00    +0.114 C 
ATOM     11  C   UNL     1      12.944   3.472  -0.332  0.00  0.00    +0.118 C 
ATOM     12  C   UNL     1      14.178   5.961   1.934  0.00  0.00    +0.130 C 
ATOM     13  C   UNL     1      12.498   4.118   2.052  0.00  0.00    +0.026 A 
ATOM     14  C   UNL     1      11.358   3.613   2.548  0.00  0.00    +0.022 A 
ATOM     15  C   UNL     1      12.086   6.260   3.175  0.00  0.00    +0.259 A 
ATOM     17  C   UNL     1      10.797   5.678   3.687  0.00  0.00    +0.047 A 
ATOM     18  C   UNL     1      10.494   4.409   3.373  0.00  0.00    +0.015 A 
ENDROOT
BRANCH  17  20
ATOM     20  C   UNL     1       9.872   6.477   4.511  0.00  0.00    -0.010 A 
ATOM     22  C   UNL     1       8.996   7.396   3.933  0.00  0.00    -0.043 A 
ATOM     23  C   UNL     1       9.886   6.301   5.895  0.00  0.00    +0.009 A 
ATOM     24  C   UNL     1       8.133   8.138   4.739  0.00  0.00    +0.004 A 
ATOM     25  C   UNL     1       8.953   7.611   2.454  0.00  0.00    +0.044 C 
ATOM     26  C   UNL     1       9.023   7.044   6.701  0.00  0.00    +0.001 A 
ATOM     27  C   UNL     1       8.146   7.962   6.122  0.00  0.00    +0.000 A 
ENDBRANCH  17  20
BRANCH   5   1
ATOM      1  S   UNL     1      12.436   5.336  -2.239  0.00  0.00    +0.032 S 
ATOM      2  O   UNL     1      13.460   5.903  -3.088  0.00  0.00    -0.158 OA
ATOM      3  O   UNL     1      11.192   6.028  -1.982  0.00  0.00    -0.158 OA
BRANCH   1  16
ATOM     16  C   UNL     1      12.046   3.719  -2.858  0.00  0.00    +0.185 C 
BRANCH  16  19
ATOM     19  C   UNL     1      12.829   3.406  -4.123  0.00  0.00    +0.021 C 
ATOM     21  C   UNL     1      11.904   3.106  -5.291  0.00  0.00    +0.005 C 
ENDBRANCH  16  19
ENDBRANCH   1  16
ENDBRANCH   5   1
TORSDOF 4
ENDMDL
MODEL 6
REMARK VINA RESULT:      -5.8     27.253     28.938
REMARK  Name = 40724251
REMARK  6 active torsions:
REMARK  status: ('A' for Active; 'I' for Inactive)
REMARK    1  A    between atoms: S_1  and  N_5
REMARK    2  A    between atoms: S_1  and  C_16
REMARK    3  A    between atoms: C_16  and  C_19
REMARK    4  A    between atoms: C_17  and  C_20
REMARK    5  A    between atoms: C_19  and  C_21
REMARK    6  A    between atoms: C_22  and  C_25
REMARK                            x       y       z     vdW  Elec       q    Type
REMARK                         _______ _______ _______ _____ _____    ______ ____
ROOT
ATOM      4  O   UNL     1      -6.846 -11.577  14.800  0.00  0.00    -0.267 OA
ATOM      5  N   UNL     1      -2.422 -13.189  13.166  0.00  0.00    -0.180 NA
ATOM      6  N   UNL     1      -4.567 -11.245  14.433  0.00  0.00    -0.311 N 
ATOM      7  C   UNL     1      -3.535 -11.230  12.089  0.00  0.00    +0.025 C 
ATOM      8  C   UNL     1      -2.103 -10.888  14.054  0.00  0.00    +0.052 C 
ATOM      9  C   UNL     1      -2.500 -10.297  12.704  0.00  0.00    +0.017 C 
ATOM     10  C   UNL     1      -2.943 -12.635  11.884  0.00  0.00    +0.114 C 
ATOM     11  C   UNL     1      -1.457 -12.270  13.842  0.00  0.00    +0.118 C 
ATOM     12  C   UNL     1      -4.783 -11.245  12.980  0.00  0.00    +0.130 C 
ATOM     13  C   UNL     1      -3.303 -11.001  14.975  0.00  0.00    +0.026 A 
ATOM     14  C   UNL     1      -3.151 -10.890  16.304  0.00  0.00    +0.022 A 
ATOM     15  C   UNL     1      -5.710 -11.396  15.242  0.00  0.00    +0.259 A 
ATOM     17  C   UNL     1      -5.502 -11.302  16.730  0.00  0.00    +0.047 A 
ATOM     18  C   UNL     1      -4.268 -11.049  17.192  0.00  0.00    +0.015 A 
ENDROOT
BRANCH  17  20
ATOM     20  C   UNL     1      -6.620 -11.490  17.671  0.00  0.00    -0.010 A 
ATOM     22  C   UNL     1      -7.562 -10.485  17.889  0.00  0.00    -0.043 A 
ATOM     23  C   UNL     1      -6.726 -12.704  18.350  0.00  0.00    +0.009 A 
ATOM     24  C   UNL     1      -8.609 -10.693  18.787  0.00  0.00    +0.004 A 
ATOM     25  C   UNL     1      -7.481  -9.172  17.179  0.00  0.00    +0.044 C 
ATOM     26  C   UNL     1      -7.772 -12.912  19.249  0.00  0.00    +0.001 A 
ATOM     27  C   UNL     1      -8.714 -11.906  19.466  0.00  0.00    +0.000 A 
ENDBRANCH  17  20
BRANCH   5   1
ATOM      1  S   UNL     1      -1.971 -14.838  13.130  0.00  0.00    +0.032 S 
ATOM      2  O   UNL     1      -0.543 -14.936  13.339  0.00  0.00    -0.158 OA
ATOM      3  O   UNL     1      -2.620 -15.475  12.005  0.00  0.00    -0.158 OA
BRANCH   1  16
ATOM     16  C   UNL     1      -2.779 -15.386  14.612  0.00  0.00    +0.185 C 
BRANCH  16  19
ATOM     19  C   UNL     1      -4.145 -14.739  14.769  0.00  0.00    +0.021 C 
ATOM     21  C   UNL     1      -4.680 -14.904  16.183  0.00  0.00    +0.005 C 
ENDBRANCH  16  19
ENDBRANCH   1  16
ENDBRANCH   5   1
TORSDOF 4
ENDMDL
MODEL 7
REMARK VINA RESULT:      -5.8     26.846     28.440
REMARK  Name = 40724251
REMARK  6 active torsions:
REMARK  status: ('A' for Active; 'I' for Inactive)
REMARK    1  A    between atoms: S_1  and  N_5
REMARK    2  A    between atoms: S_1  and  C_16
REMARK    3  A    between atoms: C_16  and  C_19
REMARK    4  A    between atoms: C_17  and  C_20
REMARK    5  A    between atoms: C_19  and  C_21
REMARK    6  A    between atoms: C_22  and  C_25
REMARK                            x       y       z     vdW  Elec       q    Type
REMARK                         _______ _______ _______ _____ _____    ______ ____
ROOT
ATOM      4  O   UNL     1      -4.072  -9.953  16.394  0.00  0.00    -0.267 OA
ATOM      5  N   UNL     1      -3.970 -10.650  11.460  0.00  0.00    -0.180 NA
ATOM      6  N   UNL     1      -3.667 -11.303  14.537  0.00  0.00    -0.311 N 
ATOM      7  C   UNL     1      -1.866 -10.756  12.800  0.00  0.00    +0.025 C 
ATOM      8  C   UNL     1      -3.243 -12.771  12.535  0.00  0.00    +0.052 C 
ATOM      9  C   UNL     1      -1.805 -12.264  12.595  0.00  0.00    +0.017 C 
ATOM     10  C   UNL     1      -2.603 -10.080  11.631  0.00  0.00    +0.114 C 
ATOM     11  C   UNL     1      -3.963 -12.139  11.330  0.00  0.00    +0.118 C 
ATOM     12  C   UNL     1      -2.522 -10.465  14.154  0.00  0.00    +0.130 C 
ATOM     13  C   UNL     1      -3.987 -12.458  13.819  0.00  0.00    +0.026 A 
ATOM     14  C   UNL     1      -4.962 -13.272  14.254  0.00  0.00    +0.022 A 
ATOM     15  C   UNL     1      -4.349 -10.944  15.716  0.00  0.00    +0.259 A 
ATOM     17  C   UNL     1      -5.460 -11.856  16.159  0.00  0.00    +0.047 A 
ATOM     18  C   UNL     1      -5.711 -12.960  15.438  0.00  0.00    +0.015 A 
ENDROOT
BRANCH  17  20
ATOM     20  C   UNL     1      -6.269 -11.550  17.351  0.00  0.00    -0.010 A 
ATOM     22  C   UNL     1      -5.815 -11.857  18.634  0.00  0.00    -0.043 A 
ATOM     23  C   UNL     1      -7.514 -10.943  17.178  0.00  0.00    +0.009 A 
ATOM     24  C   UNL     1      -6.605 -11.556  19.743  0.00  0.00    +0.004 A 
ATOM     25  C   UNL     1      -4.488 -12.508  18.857  0.00  0.00    +0.044 C 
ATOM     26  C   UNL     1      -8.303 -10.642  18.288  0.00  0.00    +0.001 A 
ATOM     27  C   UNL     1      -7.848 -10.949  19.571  0.00  0.00    +0.000 A 
ENDBRANCH  17  20
BRANCH   5   1
ATOM      1  S   UNL     1      -4.988  -9.817  10.366  0.00  0.00    +0.032 S 
ATOM      2  O   UNL     1      -5.874 -10.770   9.736  0.00  0.00    -0.158 OA
ATOM      3  O   UNL     1      -4.185  -8.897   9.591  0.00  0.00    -0.158 OA
BRANCH   1  16
ATOM     16  C   UNL     1      -5.938  -8.870  11.527  0.00  0.00    +0.185 C 
BRANCH  16  19
ATOM     19  C   UNL     1      -6.067  -9.592  12.858  0.00  0.00    +0.021 C 
ATOM     21  C   UNL     1      -7.328 -10.439  12.912  0.00  0.00    +0.005 C 
ENDBRANCH  16  19
ENDBRANCH   1  16
ENDBRANCH   5   1
TORSDOF 4
ENDMDL
MODEL 8
REMARK VINA RESULT:      -5.8     27.121     29.339
REMARK  Name = 40724251
REMARK  6 active torsions:
REMARK  status: ('A' for Active; 'I' for Inactive)
REMARK    1  A    between atoms: S_1  and  N_5
REMARK    2  A    between atoms: S_1  and  C_16
REMARK    3  A    between atoms: C_16  and  C_19
REMARK    4  A    between atoms: C_17  and  C_20
REMARK    5  A    between atoms: C_19  and  C_21
REMARK    6  A    between atoms: C_22  and  C_25
REMARK                            x       y       z     vdW  Elec       q    Type
REMARK                         _______ _______ _______ _____ _____    ______ ____
ROOT
ATOM      4  O   UNL     1      -4.916 -12.976   9.895  0.00  0.00    -0.267 OA
ATOM      5  N   UNL     1      -4.062 -11.483  14.573  0.00  0.00    -0.180 NA
ATOM      6  N   UNL     1      -3.494 -12.112  11.529  0.00  0.00    -0.311 N 
ATOM      7  C   UNL     1      -2.830 -13.435  13.619  0.00  0.00    +0.025 C 
ATOM      8  C   UNL     1      -1.959 -11.163  13.285  0.00  0.00    +0.052 C 
ATOM      9  C   UNL     1      -1.552 -12.608  13.564  0.00  0.00    +0.017 C 
ATOM     10  C   UNL     1      -3.752 -12.932  14.743  0.00  0.00    +0.114 C 
ATOM     11  C   UNL     1      -2.835 -10.642  14.440  0.00  0.00    +0.118 C 
ATOM     12  C   UNL     1      -3.507 -13.395  12.244  0.00  0.00    +0.130 C 
ATOM     13  C   UNL     1      -2.700 -11.050  11.967  0.00  0.00    +0.026 A 
ATOM     14  C   UNL     1      -2.613  -9.928  11.234  0.00  0.00    +0.022 A 
ATOM     15  C   UNL     1      -4.233 -12.048  10.331  0.00  0.00    +0.259 A 
ATOM     17  C   UNL     1      -4.144 -10.765   9.550  0.00  0.00    +0.047 A 
ATOM     18  C   UNL     1      -3.352  -9.785  10.012  0.00  0.00    +0.015 A 
ENDROOT
BRANCH  17  20
ATOM     20  C   UNL     1      -4.912 -10.572   8.308  0.00  0.00    -0.010 A 
ATOM     22  C   UNL     1      -6.029  -9.737   8.267  0.00  0.00    -0.043 A 
ATOM     23  C   UNL     1      -4.503 -11.245   7.156  0.00  0.00    +0.009 A 
ATOM     24  C   UNL     1      -6.736  -9.576   7.076  0.00  0.00    +0.004 A 
ATOM     25  C   UNL     1      -6.497  -9.000   9.481  0.00  0.00    +0.044 C 
ATOM     26  C   UNL     1      -5.210 -11.084   5.965  0.00  0.00    +0.001 A 
ATOM     27  C   UNL     1      -6.327 -10.248   5.926  0.00  0.00    +0.000 A 
ENDBRANCH  17  20
BRANCH   5   1
ATOM      1  S   UNL     1      -5.277 -10.861  15.603  0.00  0.00    +0.032 S 
ATOM      2  O   UNL     1      -6.149 -11.944  16.003  0.00  0.00    -0.158 OA
ATOM      3  O   UNL     1      -5.797  -9.640  15.027  0.00  0.00    -0.158 OA
BRANCH   1  16
ATOM     16  C   UNL     1      -4.272 -10.424  16.998  0.00  0.00    +0.185 C 
BRANCH  16  19
ATOM     19  C   UNL     1      -4.922 -10.848  18.304  0.00  0.00    +0.021 C 
ATOM     21  C   UNL     1      -4.136 -11.957  18.984  0.00  0.00    +0.005 C 
ENDBRANCH  16  19
ENDBRANCH   1  16
ENDBRANCH   5   1
TORSDOF 4
ENDMDL
MODEL 9
REMARK VINA RESULT:      -5.8     25.330     26.995
REMARK  Name = 40724251
REMARK  6 active torsions:
REMARK  status: ('A' for Active; 'I' for Inactive)
REMARK    1  A    between atoms: S_1  and  N_5
REMARK    2  A    between atoms: S_1  and  C_16
REMARK    3  A    between atoms: C_16  and  C_19
REMARK    4  A    between atoms: C_17  and  C_20
REMARK    5  A    between atoms: C_19  and  C_21
REMARK    6  A    between atoms: C_22  and  C_25
REMARK                            x       y       z     vdW  Elec       q    Type
REMARK                         _______ _______ _______ _____ _____    ______ ____
ROOT
ATOM      4  O   UNL     1     -14.051   9.240  17.982  0.00  0.00    -0.267 OA
ATOM      5  N   UNL     1     -15.935   7.949  22.413  0.00  0.00    -0.180 NA
ATOM      6  N   UNL     1     -14.222   7.746  19.765  0.00  0.00    -0.311 N 
ATOM      7  C   UNL     1     -16.418   6.580  20.381  0.00  0.00    +0.025 C 
ATOM      8  C   UNL     1     -14.391   6.137  21.694  0.00  0.00    +0.052 C 
ATOM      9  C   UNL     1     -15.517   5.471  20.908  0.00  0.00    +0.017 C 
ATOM     10  C   UNL     1     -17.011   7.393  21.544  0.00  0.00    +0.114 C 
ATOM     11  C   UNL     1     -14.982   6.902  22.892  0.00  0.00    +0.118 C 
ATOM     12  C   UNL     1     -15.616   7.450  19.406  0.00  0.00    +0.130 C 
ATOM     13  C   UNL     1     -13.589   7.074  20.812  0.00  0.00    +0.026 A 
ATOM     14  C   UNL     1     -12.282   7.274  21.047  0.00  0.00    +0.022 A 
ATOM     15  C   UNL     1     -13.535   8.655  18.937  0.00  0.00    +0.259 A 
ATOM     17  C   UNL     1     -12.081   8.887  19.247  0.00  0.00    +0.047 A 
ATOM     18  C   UNL     1     -11.522   8.199  20.255  0.00  0.00    +0.015 A 
ENDROOT
BRANCH  17  20
ATOM     20  C   UNL     1     -11.279   9.851  18.475  0.00  0.00    -0.010 A 
ATOM     22  C   UNL     1     -10.559   9.457  17.347  0.00  0.00    -0.043 A 
ATOM     23  C   UNL     1     -11.249  11.182  18.891  0.00  0.00    +0.009 A 
ATOM     24  C   UNL     1      -9.808  10.394  16.637  0.00  0.00    +0.004 A 
ATOM     25  C   UNL     1     -10.568   8.040  16.871  0.00  0.00    +0.044 C 
ATOM     26  C   UNL     1     -10.498  12.119  18.181  0.00  0.00    +0.001 A 
ATOM     27  C   UNL     1      -9.778  11.724  17.053  0.00  0.00    +0.000 A 
ENDBRANCH  17  20
BRANCH   5   1
ATOM      1  S   UNL     1     -16.445   9.080  23.589  0.00  0.00    +0.032 S 
ATOM      2  O   UNL     1     -16.833   8.366  24.786  0.00  0.00    -0.158 OA
ATOM      3  O   UNL     1     -17.322  10.043  22.961  0.00  0.00    -0.158 OA
BRANCH   1  16
ATOM     16  C   UNL     1     -14.893   9.879  23.907  0.00  0.00    +0.185 C 
BRANCH  16  19
ATOM     19  C   UNL     1     -14.228  10.332  22.618  0.00  0.00    +0.021 C 
ATOM     21  C   UNL     1     -12.743  10.585  22.817  0.00  0.00    +0.005 C 
ENDBRANCH  16  19
ENDBRANCH   1  16
ENDBRANCH   5   1
TORSDOF 4
ENDMDL
MODEL 10
REMARK VINA RESULT:      -5.7     22.481     24.893
REMARK  Name = 40724251
REMARK  6 active torsions:
REMARK  status: ('A' for Active; 'I' for Inactive)
REMARK    1  A    between atoms: S_1  and  N_5
REMARK    2  A    between atoms: S_1  and  C_16
REMARK    3  A    between atoms: C_16  and  C_19
REMARK    4  A    between atoms: C_17  and  C_20
REMARK    5  A    between atoms: C_19  and  C_21
REMARK    6  A    between atoms: C_22  and  C_25
REMARK                            x       y       z     vdW  Elec       q    Type
REMARK                         _______ _______ _______ _____ _____    ______ ____
ROOT
ATOM      4  O   UNL     1       9.255 -11.717  31.929  0.00  0.00    -0.267 OA
ATOM      5  N   UNL     1       7.245  -8.482  35.144  0.00  0.00    -0.180 NA
ATOM      6  N   UNL     1       8.604  -9.552  32.500  0.00  0.00    -0.311 N 
ATOM      7  C   UNL     1       9.638  -8.273  34.464  0.00  0.00    +0.025 C 
ATOM      8  C   UNL     1       7.889  -7.214  33.104  0.00  0.00    +0.052 C 
ATOM      9  C   UNL     1       9.304  -7.031  33.648  0.00  0.00    +0.017 C 
ATOM     10  C   UNL     1       8.652  -8.435  35.633  0.00  0.00    +0.114 C 
ATOM     11  C   UNL     1       6.896  -7.317  34.276  0.00  0.00    +0.118 C 
ATOM     12  C   UNL     1       9.648  -9.491  33.533  0.00  0.00    +0.130 C 
ATOM     13  C   UNL     1       7.798  -8.446  32.224  0.00  0.00    +0.026 A 
ATOM     14  C   UNL     1       6.931  -8.484  31.199  0.00  0.00    +0.022 A 
ATOM     15  C   UNL     1       8.536 -10.735  31.738  0.00  0.00    +0.259 A 
ATOM     17  C   UNL     1       7.530 -10.761  30.619  0.00  0.00    +0.047 A 
ATOM     18  C   UNL     1       6.795  -9.662  30.390  0.00  0.00    +0.015 A 
ENDROOT
BRANCH  17  20
ATOM     20  C   UNL     1       7.342 -11.964  29.789  0.00  0.00    -0.010 A 
ATOM     22  C   UNL     1       6.437 -12.961  30.152  0.00  0.00    -0.043 A 
ATOM     23  C   UNL     1       8.091 -12.094  28.620  0.00  0.00    +0.009 A 
ATOM     24  C   UNL     1       6.282 -14.088  29.346  0.00  0.00    +0.004 A 
ATOM     25  C   UNL     1       5.617 -12.855  31.398  0.00  0.00    +0.044 C 
ATOM     26  C   UNL     1       7.936 -13.222  27.814  0.00  0.00    +0.001 A 
ATOM     27  C   UNL     1       7.030 -14.219  28.178  0.00  0.00    +0.000 A 
ENDBRANCH  17  20
BRANCH   5   1
ATOM      1  S   UNL     1       6.070  -8.914  36.310  0.00  0.00    +0.032 S 
ATOM      2  O   UNL     1       5.662  -7.723  37.024  0.00  0.00    -0.158 OA
ATOM      3  O   UNL     1       6.518 -10.101  37.005  0.00  0.00    -0.158 OA
BRANCH   1  16
ATOM     16  C   UNL     1       4.749  -9.381  35.223  0.00  0.00    +0.185 C 
BRANCH  16  19
ATOM     19  C   UNL     1       5.139 -10.563  34.351  0.00  0.00    +0.021 C 
ATOM     21  C   UNL     1       4.261 -11.772  34.627  0.00  0.00    +0.005 C 
ENDBRANCH  16  19
ENDBRANCH   1  16
ENDBRANCH   5   1
TORSDOF 4
ENDMDL
