MODEL 1
REMARK VINA RESULT:      -8.0      0.000      0.000
REMARK  Name = 26744872
REMARK  4 active torsions:
REMARK  status: ('A' for Active; 'I' for Inactive)
REMARK    1  A    between atoms: N_2  and  C_13
REMARK    2  A    between atoms: C_8  and  C_14
REMARK    3  A    between atoms: C_13  and  C_15
REMARK    4  A    between atoms: C_19  and  C_22
REMARK                            x       y       z     vdW  Elec       q    Type
REMARK                         _______ _______ _______ _____ _____    ______ ____
ROOT
ATOM      2  N   UNL     1      13.774   7.539  19.018  0.00  0.00    -0.281 NA
ATOM      3  N   UNL     1      10.733   8.016  16.923  0.00  0.00    -0.347 N 
ATOM      4  N   UNL     1      11.927   9.630  15.937  0.00  0.00    -0.240 NA
ATOM      8  C   UNL     1      14.281   8.939  18.884  0.00  0.00    +0.152 C 
ATOM      9  C   UNL     1      13.947   9.545  17.473  0.00  0.00    +0.086 C 
ATOM     10  C   UNL     1      12.317   7.373  18.829  0.00  0.00    +0.140 C 
ATOM     11  C   UNL     1      11.893   8.123  17.627  0.00  0.00    +0.053 A 
ATOM     12  C   UNL     1      12.604   9.121  17.008  0.00  0.00    +0.065 A 
ATOM     16  C   UNL     1      10.800   8.945  15.913  0.00  0.00    +0.197 A 
ATOM     28  H   UNL     1       9.966   7.382  17.105  0.00  0.00    +0.167 HD
ENDROOT
BRANCH   8  14
ATOM      1  O   UNL     1      14.964  10.551  20.609  0.00  0.00    -0.336 OA
ATOM      5  N   UNL     1      12.763  10.132  20.577  0.00  0.00    -0.190 NA
ATOM      6  N   UNL     1      14.404  11.331  21.628  0.00  0.00    -0.056 NA
ATOM     14  C   UNL     1      13.929   9.877  20.040  0.00  0.00    +0.245 A 
ATOM     19  C   UNL     1      13.104  11.030  21.547  0.00  0.00    +0.202 A 
BRANCH  19  22
ATOM      7  N   UNL     1      10.205  12.734  24.112  0.00  0.00    -0.263 NA
ATOM     22  C   UNL     1      12.121  11.607  22.417  0.00  0.00    +0.025 A 
ATOM     24  C   UNL     1      11.841  11.016  23.644  0.00  0.00    +0.031 A 
ATOM     25  C   UNL     1      11.444  12.761  22.037  0.00  0.00    +0.031 A 
ATOM     26  C   UNL     1      10.883  11.614  24.447  0.00  0.00    +0.111 A 
ATOM     27  C   UNL     1      10.504  13.280  22.912  0.00  0.00    +0.111 A 
ENDBRANCH  19  22
ENDBRANCH   8  14
BRANCH   2  13
ATOM     13  C   UNL     1      14.239   6.850  20.217  0.00  0.00    +0.120 C 
BRANCH  13  15
ATOM     15  C   UNL     1      15.722   6.591  20.175  0.00  0.00    -0.033 A 
ATOM     17  C   UNL     1      16.515   6.897  21.282  0.00  0.00    +0.005 A 
ATOM     18  C   UNL     1      16.303   6.044  19.031  0.00  0.00    +0.005 A 
ATOM     20  C   UNL     1      17.888   6.657  21.243  0.00  0.00    +0.000 A 
ATOM     21  C   UNL     1      17.676   5.804  18.992  0.00  0.00    +0.000 A 
ATOM     23  C   UNL     1      18.469   6.111  20.098  0.00  0.00    +0.000 A 
ENDBRANCH  13  15
ENDBRANCH   2  13
TORSDOF 4
ENDMDL
MODEL 2
REMARK VINA RESULT:      -6.6      2.065      2.877
REMARK  Name = 26744872
REMARK  4 active torsions:
REMARK  status: ('A' for Active; 'I' for Inactive)
REMARK    1  A    between atoms: N_2  and  C_13
REMARK    2  A    between atoms: C_8  and  C_14
REMARK    3  A    between atoms: C_13  and  C_15
REMARK    4  A    between atoms: C_19  and  C_22
REMARK                            x       y       z     vdW  Elec       q    Type
REMARK                         _______ _______ _______ _____ _____    ______ ____
ROOT
ATOM      2  N   UNL     1      15.208   8.562  20.823  0.00  0.00    -0.281 NA
ATOM      3  N   UNL     1      12.463   6.192  21.671  0.00  0.00    -0.347 N 
ATOM      4  N   UNL     1      11.350   7.232  20.033  0.00  0.00    -0.240 NA
ATOM      8  C   UNL     1      14.326   9.637  20.276  0.00  0.00    +0.152 C 
ATOM      9  C   UNL     1      13.064   9.042  19.553  0.00  0.00    +0.086 C 
ATOM     10  C   UNL     1      14.565   7.649  21.793  0.00  0.00    +0.140 C 
ATOM     11  C   UNL     1      13.247   7.228  21.267  0.00  0.00    +0.053 A 
ATOM     12  C   UNL     1      12.543   7.853  20.269  0.00  0.00    +0.065 A 
ATOM     16  C   UNL     1      11.329   6.235  20.897  0.00  0.00    +0.197 A 
ATOM     28  H   UNL     1      12.666   5.521  22.400  0.00  0.00    +0.167 HD
ENDROOT
BRANCH   8  14
ATOM      1  O   UNL     1      14.923  11.736  21.407  0.00  0.00    -0.336 OA
ATOM      5  N   UNL     1      12.908  10.938  21.975  0.00  0.00    -0.190 NA
ATOM      6  N   UNL     1      14.393  12.641  22.335  0.00  0.00    -0.056 NA
ATOM     14  C   UNL     1      13.985  10.765  21.252  0.00  0.00    +0.245 A 
ATOM     19  C   UNL     1      13.205  12.102  22.623  0.00  0.00    +0.202 A 
BRANCH  19  22
ATOM      7  N   UNL     1      10.507  13.870  25.359  0.00  0.00    -0.263 NA
ATOM     22  C   UNL     1      12.290  12.702  23.551  0.00  0.00    +0.025 A 
ATOM     24  C   UNL     1      11.766  11.951  24.598  0.00  0.00    +0.031 A 
ATOM     25  C   UNL     1      11.923  14.035  23.407  0.00  0.00    +0.031 A 
ATOM     26  C   UNL     1      10.886  12.577  25.467  0.00  0.00    +0.111 A 
ATOM     27  C   UNL     1      11.036  14.567  24.330  0.00  0.00    +0.111 A 
ENDBRANCH  19  22
ENDBRANCH   8  14
BRANCH   2  13
ATOM     13  C   UNL     1      16.496   9.039  21.312  0.00  0.00    +0.120 C 
BRANCH  13  15
ATOM     15  C   UNL     1      17.590   8.028  21.090  0.00  0.00    -0.033 A 
ATOM     17  C   UNL     1      17.396   6.976  20.195  0.00  0.00    +0.005 A 
ATOM     18  C   UNL     1      18.797   8.145  21.779  0.00  0.00    +0.005 A 
ATOM     20  C   UNL     1      18.410   6.039  19.990  0.00  0.00    +0.000 A 
ATOM     21  C   UNL     1      19.811   7.209  21.574  0.00  0.00    +0.000 A 
ATOM     23  C   UNL     1      19.617   6.156  20.679  0.00  0.00    +0.000 A 
ENDBRANCH  13  15
ENDBRANCH   2  13
TORSDOF 4
ENDMDL
MODEL 3
REMARK VINA RESULT:      -6.6     26.673     28.402
REMARK  Name = 26744872
REMARK  4 active torsions:
REMARK  status: ('A' for Active; 'I' for Inactive)
REMARK    1  A    between atoms: N_2  and  C_13
REMARK    2  A    between atoms: C_8  and  C_14
REMARK    3  A    between atoms: C_13  and  C_15
REMARK    4  A    between atoms: C_19  and  C_22
REMARK                            x       y       z     vdW  Elec       q    Type
REMARK                         _______ _______ _______ _____ _____    ______ ____
ROOT
ATOM      2  N   UNL     1      -3.095 -11.911  15.061  0.00  0.00    -0.281 NA
ATOM      3  N   UNL     1      -4.078 -15.335  13.975  0.00  0.00    -0.347 N 
ATOM      4  N   UNL     1      -1.970 -15.475  13.242  0.00  0.00    -0.240 NA
ATOM      8  C   UNL     1      -2.015 -11.726  14.045  0.00  0.00    +0.152 C 
ATOM      9  C   UNL     1      -1.283 -13.078  13.722  0.00  0.00    +0.086 C 
ATOM     10  C   UNL     1      -4.151 -12.879  14.692  0.00  0.00    +0.140 C 
ATOM     11  C   UNL     1      -3.524 -14.105  14.155  0.00  0.00    +0.053 A 
ATOM     12  C   UNL     1      -2.235 -14.214  13.694  0.00  0.00    +0.065 A 
ATOM     16  C   UNL     1      -3.102 -16.128  13.422  0.00  0.00    +0.197 A 
ATOM     28  H   UNL     1      -5.024 -15.616  14.198  0.00  0.00    +0.167 HD
ENDROOT
BRANCH   8  14
ATOM      1  O   UNL     1      -1.453 -10.190  12.210  0.00  0.00    -0.336 OA
ATOM      5  N   UNL     1      -3.579 -10.897  12.185  0.00  0.00    -0.190 NA
ATOM      6  N   UNL     1      -2.053  -9.581  11.101  0.00  0.00    -0.056 NA
ATOM     14  C   UNL     1      -2.421 -10.947  12.792  0.00  0.00    +0.245 A 
ATOM     19  C   UNL     1      -3.305 -10.046  11.153  0.00  0.00    +0.202 A 
BRANCH  19  22
ATOM      7  N   UNL     1      -6.253  -8.976   8.316  0.00  0.00    -0.263 NA
ATOM     22  C   UNL     1      -4.305  -9.683  10.191  0.00  0.00    +0.025 A 
ATOM     24  C   UNL     1      -5.240  -8.699  10.493  0.00  0.00    +0.031 A 
ATOM     25  C   UNL     1      -4.343 -10.313   8.952  0.00  0.00    +0.031 A 
ATOM     26  C   UNL     1      -6.185  -8.385   9.530  0.00  0.00    +0.111 A 
ATOM     27  C   UNL     1      -5.328  -9.927   8.058  0.00  0.00    +0.111 A 
ENDBRANCH  19  22
ENDBRANCH   8  14
BRANCH   2  13
ATOM     13  C   UNL     1      -3.663 -10.664  15.561  0.00  0.00    +0.120 C 
BRANCH  13  15
ATOM     15  C   UNL     1      -4.355 -10.854  16.885  0.00  0.00    -0.033 A 
ATOM     17  C   UNL     1      -3.734 -11.584  17.898  0.00  0.00    +0.005 A 
ATOM     18  C   UNL     1      -5.616 -10.297  17.098  0.00  0.00    +0.005 A 
ATOM     20  C   UNL     1      -4.375 -11.760  19.124  0.00  0.00    +0.000 A 
ATOM     21  C   UNL     1      -6.257 -10.472  18.325  0.00  0.00    +0.000 A 
ATOM     23  C   UNL     1      -5.636 -11.203  19.338  0.00  0.00    +0.000 A 
ENDBRANCH  13  15
ENDBRANCH   2  13
TORSDOF 4
ENDMDL
MODEL 4
REMARK VINA RESULT:      -6.5     12.875     16.305
REMARK  Name = 26744872
REMARK  4 active torsions:
REMARK  status: ('A' for Active; 'I' for Inactive)
REMARK    1  A    between atoms: N_2  and  C_13
REMARK    2  A    between atoms: C_8  and  C_14
REMARK    3  A    between atoms: C_13  and  C_15
REMARK    4  A    between atoms: C_19  and  C_22
REMARK                            x       y       z     vdW  Elec       q    Type
REMARK                         _______ _______ _______ _____ _____    ______ ____
ROOT
ATOM      2  N   UNL     1       9.892   6.239   5.586  0.00  0.00    -0.281 NA
ATOM      3  N   UNL     1       9.480   3.700   8.279  0.00  0.00    -0.347 N 
ATOM      4  N   UNL     1       9.538   5.462   9.654  0.00  0.00    -0.240 NA
ATOM      8  C   UNL     1      10.588   7.256   6.431  0.00  0.00    +0.152 C 
ATOM      9  C   UNL     1      10.066   7.235   7.914  0.00  0.00    +0.086 C 
ATOM     10  C   UNL     1      10.014   4.840   6.050  0.00  0.00    +0.140 C 
ATOM     11  C   UNL     1       9.759   4.784   7.505  0.00  0.00    +0.053 A 
ATOM     12  C   UNL     1       9.795   5.850   8.370  0.00  0.00    +0.065 A 
ATOM     16  C   UNL     1       9.355   4.159   9.567  0.00  0.00    +0.197 A 
ATOM     28  H   UNL     1       9.386   2.740   7.972  0.00  0.00    +0.167 HD
ENDROOT
BRANCH   8  14
ATOM      1  O   UNL     1      12.785   6.579   7.298  0.00  0.00    -0.336 OA
ATOM      5  N   UNL     1      12.886   7.827   5.440  0.00  0.00    -0.190 NA
ATOM      6  N   UNL     1      14.146   6.724   6.999  0.00  0.00    -0.056 NA
ATOM     14  C   UNL     1      12.114   7.258   6.331  0.00  0.00    +0.245 A 
ATOM     19  C   UNL     1      14.124   7.471   5.892  0.00  0.00    +0.202 A 
BRANCH  19  22
ATOM      7  N   UNL     1      17.648   8.672   3.885  0.00  0.00    -0.263 NA
ATOM     22  C   UNL     1      15.320   7.878   5.211  0.00  0.00    +0.025 A 
ATOM     24  C   UNL     1      16.348   8.495   5.915  0.00  0.00    +0.031 A 
ATOM     25  C   UNL     1      15.454   7.658   3.845  0.00  0.00    +0.031 A 
ATOM     26  C   UNL     1      17.481   8.869   5.211  0.00  0.00    +0.111 A 
ATOM     27  C   UNL     1      16.627   8.070   3.234  0.00  0.00    +0.111 A 
ENDBRANCH  19  22
ENDBRANCH   8  14
BRANCH   2  13
ATOM     13  C   UNL     1      10.174   6.356   4.160  0.00  0.00    +0.120 C 
BRANCH  13  15
ATOM     15  C   UNL     1       9.274   7.361   3.490  0.00  0.00    -0.033 A 
ATOM     17  C   UNL     1       9.511   7.737   2.168  0.00  0.00    +0.005 A 
ATOM     18  C   UNL     1       8.203   7.914   4.192  0.00  0.00    +0.005 A 
ATOM     20  C   UNL     1       8.678   8.668   1.548  0.00  0.00    +0.000 A 
ATOM     21  C   UNL     1       7.369   8.844   3.572  0.00  0.00    +0.000 A 
ATOM     23  C   UNL     1       7.606   9.221   2.250  0.00  0.00    +0.000 A 
ENDBRANCH  13  15
ENDBRANCH   2  13
TORSDOF 4
ENDMDL
MODEL 5
REMARK VINA RESULT:      -6.4     13.450     16.974
REMARK  Name = 26744872
REMARK  4 active torsions:
REMARK  status: ('A' for Active; 'I' for Inactive)
REMARK    1  A    between atoms: N_2  and  C_13
REMARK    2  A    between atoms: C_8  and  C_14
REMARK    3  A    between atoms: C_13  and  C_15
REMARK    4  A    between atoms: C_19  and  C_22
REMARK                            x       y       z     vdW  Elec       q    Type
REMARK                         _______ _______ _______ _____ _____    ______ ____
ROOT
ATOM      2  N   UNL     1      11.247   5.937   4.065  0.00  0.00    -0.281 NA
ATOM      3  N   UNL     1      11.500   6.211   7.770  0.00  0.00    -0.347 N 
ATOM      4  N   UNL     1       9.569   5.084   7.770  0.00  0.00    -0.240 NA
ATOM      8  C   UNL     1       9.757   5.833   4.014  0.00  0.00    +0.152 C 
ATOM      9  C   UNL     1       9.186   5.064   5.260  0.00  0.00    +0.086 C 
ATOM     10  C   UNL     1      11.794   6.617   5.259  0.00  0.00    +0.140 C 
ATOM     11  C   UNL     1      11.121   6.094   6.468  0.00  0.00    +0.053 A 
ATOM     12  C   UNL     1       9.933   5.406   6.494  0.00  0.00    +0.065 A 
ATOM     16  C   UNL     1      10.532   5.585   8.518  0.00  0.00    +0.197 A 
ATOM     28  H   UNL     1      12.329   6.671   8.125  0.00  0.00    +0.167 HD
ENDROOT
BRANCH   8  14
ATOM      1  O   UNL     1       8.829   7.450   2.414  0.00  0.00    -0.336 OA
ATOM      5  N   UNL     1       8.533   8.023   4.559  0.00  0.00    -0.190 NA
ATOM      6  N   UNL     1       8.144   8.672   2.400  0.00  0.00    -0.056 NA
ATOM     14  C   UNL     1       9.018   7.140   3.724  0.00  0.00    +0.245 A 
ATOM     19  C   UNL     1       8.006   8.944   3.701  0.00  0.00    +0.202 A 
BRANCH  19  22
ATOM      7  N   UNL     1       6.064  12.430   5.104  0.00  0.00    -0.263 NA
ATOM     22  C   UNL     1       7.348  10.126   4.177  0.00  0.00    +0.025 A 
ATOM     24  C   UNL     1       5.981  10.292   3.979  0.00  0.00    +0.031 A 
ATOM     25  C   UNL     1       8.073  11.112   4.838  0.00  0.00    +0.031 A 
ATOM     26  C   UNL     1       5.393  11.451   4.458  0.00  0.00    +0.111 A 
ATOM     27  C   UNL     1       7.391  12.234   5.278  0.00  0.00    +0.111 A 
ENDBRANCH  19  22
ENDBRANCH   8  14
BRANCH   2  13
ATOM     13  C   UNL     1      11.851   6.446   2.838  0.00  0.00    +0.120 C 
BRANCH  13  15
ATOM     15  C   UNL     1      12.780   5.440   2.211  0.00  0.00    -0.033 A 
ATOM     17  C   UNL     1      12.353   4.127   2.011  0.00  0.00    +0.005 A 
ATOM     18  C   UNL     1      14.065   5.822   1.829  0.00  0.00    +0.005 A 
ATOM     20  C   UNL     1      13.214   3.195   1.431  0.00  0.00    +0.000 A 
ATOM     21  C   UNL     1      14.926   4.891   1.247  0.00  0.00    +0.000 A 
ATOM     23  C   UNL     1      14.500   3.577   1.048  0.00  0.00    +0.000 A 
ENDBRANCH  13  15
ENDBRANCH   2  13
TORSDOF 4
ENDMDL
MODEL 6
REMARK VINA RESULT:      -6.3     27.397     28.822
REMARK  Name = 26744872
REMARK  4 active torsions:
REMARK  status: ('A' for Active; 'I' for Inactive)
REMARK    1  A    between atoms: N_2  and  C_13
REMARK    2  A    between atoms: C_8  and  C_14
REMARK    3  A    between atoms: C_13  and  C_15
REMARK    4  A    between atoms: C_19  and  C_22
REMARK                            x       y       z     vdW  Elec       q    Type
REMARK                         _______ _______ _______ _____ _____    ______ ____
ROOT
ATOM      2  N   UNL     1      -3.013 -12.251  13.091  0.00  0.00    -0.281 NA
ATOM      3  N   UNL     1      -0.137 -14.603  13.339  0.00  0.00    -0.347 N 
ATOM      4  N   UNL     1      -1.648 -16.167  12.816  0.00  0.00    -0.240 NA
ATOM      8  C   UNL     1      -4.070 -13.256  13.420  0.00  0.00    +0.152 C 
ATOM      9  C   UNL     1      -3.707 -14.681  12.867  0.00  0.00    +0.086 C 
ATOM     10  C   UNL     1      -1.662 -12.563  13.603  0.00  0.00    +0.140 C 
ATOM     11  C   UNL     1      -1.347 -13.980  13.316  0.00  0.00    +0.053 A 
ATOM     12  C   UNL     1      -2.256 -14.958  12.999  0.00  0.00    +0.065 A 
ATOM     16  C   UNL     1      -0.370 -15.921  13.030  0.00  0.00    +0.197 A 
ATOM     28  H   UNL     1       0.761 -14.185  13.546  0.00  0.00    +0.167 HD
ENDROOT
BRANCH   8  14
ATOM      1  O   UNL     1      -4.321 -14.432  15.563  0.00  0.00    -0.336 OA
ATOM      5  N   UNL     1      -5.094 -12.329  15.584  0.00  0.00    -0.190 NA
ATOM      6  N   UNL     1      -4.812 -14.210  16.856  0.00  0.00    -0.056 NA
ATOM     14  C   UNL     1      -4.525 -13.274  14.880  0.00  0.00    +0.245 A 
ATOM     19  C   UNL     1      -5.251 -12.950  16.790  0.00  0.00    +0.202 A 
BRANCH  19  22
ATOM      7  N   UNL     1      -7.016 -10.978  20.089  0.00  0.00    -0.263 NA
ATOM     22  C   UNL     1      -5.850 -12.281  17.908  0.00  0.00    +0.025 A 
ATOM     24  C   UNL     1      -5.344 -11.061  18.345  0.00  0.00    +0.031 A 
ATOM     25  C   UNL     1      -6.938 -12.850  18.561  0.00  0.00    +0.031 A 
ATOM     26  C   UNL     1      -5.958 -10.456  19.429  0.00  0.00    +0.111 A 
ATOM     27  C   UNL     1      -7.480 -12.165  19.636  0.00  0.00    +0.111 A 
ENDBRANCH  19  22
ENDBRANCH   8  14
BRANCH   2  13
ATOM     13  C   UNL     1      -3.391 -10.873  13.385  0.00  0.00    +0.120 C 
BRANCH  13  15
ATOM     15  C   UNL     1      -3.831 -10.136  12.148  0.00  0.00    -0.033 A 
ATOM     17  C   UNL     1      -2.924  -9.907  11.113  0.00  0.00    +0.005 A 
ATOM     18  C   UNL     1      -5.146  -9.683  12.037  0.00  0.00    +0.005 A 
ATOM     20  C   UNL     1      -3.332  -9.224   9.967  0.00  0.00    +0.000 A 
ATOM     21  C   UNL     1      -5.553  -9.001  10.890  0.00  0.00    +0.000 A 
ATOM     23  C   UNL     1      -4.647  -8.772   9.856  0.00  0.00    +0.000 A 
ENDBRANCH  13  15
ENDBRANCH   2  13
TORSDOF 4
ENDMDL
MODEL 7
REMARK VINA RESULT:      -6.1     21.664     24.741
REMARK  Name = 26744872
REMARK  4 active torsions:
REMARK  status: ('A' for Active; 'I' for Inactive)
REMARK    1  A    between atoms: N_2  and  C_13
REMARK    2  A    between atoms: C_8  and  C_14
REMARK    3  A    between atoms: C_13  and  C_15
REMARK    4  A    between atoms: C_19  and  C_22
REMARK                            x       y       z     vdW  Elec       q    Type
REMARK                         _______ _______ _______ _____ _____    ______ ____
ROOT
ATOM      2  N   UNL     1      -1.469   8.807  37.888  0.00  0.00    -0.281 NA
ATOM      3  N   UNL     1       0.694  11.349  36.237  0.00  0.00    -0.347 N 
ATOM      4  N   UNL     1      -0.214  12.765  37.710  0.00  0.00    -0.240 NA
ATOM      8  C   UNL     1      -2.516   9.767  38.353  0.00  0.00    +0.152 C 
ATOM      9  C   UNL     1      -1.899  11.162  38.730  0.00  0.00    +0.086 C 
ATOM     10  C   UNL     1      -0.686   9.246  36.713  0.00  0.00    +0.140 C 
ATOM     11  C   UNL     1      -0.264  10.650  36.905  0.00  0.00    +0.053 A 
ATOM     12  C   UNL     1      -0.810  11.539  37.797  0.00  0.00    +0.065 A 
ATOM     16  C   UNL     1       0.688  12.619  36.759  0.00  0.00    +0.197 A 
ATOM     28  H   UNL     1       1.295  11.006  35.498  0.00  0.00    +0.167 HD
ENDROOT
BRANCH   8  14
ATOM      1  O   UNL     1      -3.574  10.501  36.260  0.00  0.00    -0.336 OA
ATOM      5  N   UNL     1      -4.971   9.456  37.666  0.00  0.00    -0.190 NA
ATOM      6  N   UNL     1      -4.823  10.482  35.626  0.00  0.00    -0.056 NA
ATOM     14  C   UNL     1      -3.750   9.877  37.455  0.00  0.00    +0.245 A 
ATOM     19  C   UNL     1      -5.593   9.850  36.517  0.00  0.00    +0.202 A 
BRANCH  19  22
ATOM      7  N   UNL     1      -9.700   9.097  35.846  0.00  0.00    -0.263 NA
ATOM     22  C   UNL     1      -6.986   9.594  36.290  0.00  0.00    +0.025 A 
ATOM     24  C   UNL     1      -7.675   8.703  37.105  0.00  0.00    +0.031 A 
ATOM     25  C   UNL     1      -7.654  10.237  35.252  0.00  0.00    +0.031 A 
ATOM     26  C   UNL     1      -9.019   8.491  36.844  0.00  0.00    +0.111 A 
ATOM     27  C   UNL     1      -8.998   9.956  35.074  0.00  0.00    +0.111 A 
ENDBRANCH  19  22
ENDBRANCH   8  14
BRANCH   2  13
ATOM     13  C   UNL     1      -1.945   7.437  37.732  0.00  0.00    +0.120 C 
BRANCH  13  15
ATOM     15  C   UNL     1      -1.610   6.587  38.929  0.00  0.00    -0.033 A 
ATOM     17  C   UNL     1      -2.561   6.386  39.930  0.00  0.00    +0.005 A 
ATOM     18  C   UNL     1      -0.349   6.000  39.037  0.00  0.00    +0.005 A 
ATOM     20  C   UNL     1      -2.251   5.599  41.039  0.00  0.00    +0.000 A 
ATOM     21  C   UNL     1      -0.039   5.213  40.146  0.00  0.00    +0.000 A 
ATOM     23  C   UNL     1      -0.990   5.012  41.147  0.00  0.00    +0.000 A 
ENDBRANCH  13  15
ENDBRANCH   2  13
TORSDOF 4
ENDMDL
MODEL 8
REMARK VINA RESULT:      -6.1     29.194     31.435
REMARK  Name = 26744872
REMARK  4 active torsions:
REMARK  status: ('A' for Active; 'I' for Inactive)
REMARK    1  A    between atoms: N_2  and  C_13
REMARK    2  A    between atoms: C_8  and  C_14
REMARK    3  A    between atoms: C_13  and  C_15
REMARK    4  A    between atoms: C_19  and  C_22
REMARK                            x       y       z     vdW  Elec       q    Type
REMARK                         _______ _______ _______ _____ _____    ______ ____
ROOT
ATOM      2  N   UNL     1     -15.095   4.643  32.957  0.00  0.00    -0.281 NA
ATOM      3  N   UNL     1     -17.702   5.101  35.576  0.00  0.00    -0.347 N 
ATOM      4  N   UNL     1     -18.456   6.726  34.237  0.00  0.00    -0.240 NA
ATOM      8  C   UNL     1     -15.135   6.047  32.445  0.00  0.00    +0.152 C 
ATOM      9  C   UNL     1     -16.582   6.653  32.525  0.00  0.00    +0.086 C 
ATOM     10  C   UNL     1     -15.544   4.466  34.354  0.00  0.00    +0.140 C 
ATOM     11  C   UNL     1     -16.802   5.215  34.562  0.00  0.00    +0.053 A 
ATOM     12  C   UNL     1     -17.281   6.220  33.759  0.00  0.00    +0.065 A 
ATOM     16  C   UNL     1     -18.683   6.032  35.336  0.00  0.00    +0.197 A 
ATOM     28  H   UNL     1     -17.662   4.460  36.358  0.00  0.00    +0.167 HD
ENDROOT
BRANCH   8  14
ATOM      1  O   UNL     1     -13.275   7.615  32.097  0.00  0.00    -0.336 OA
ATOM      5  N   UNL     1     -13.774   7.262  34.252  0.00  0.00    -0.190 NA
ATOM      6  N   UNL     1     -12.380   8.398  32.838  0.00  0.00    -0.056 NA
ATOM     14  C   UNL     1     -14.060   6.979  33.007  0.00  0.00    +0.245 A 
ATOM     19  C   UNL     1     -12.737   8.136  34.099  0.00  0.00    +0.202 A 
BRANCH  19  22
ATOM      7  N   UNL     1     -10.802   9.891  37.425  0.00  0.00    -0.263 NA
ATOM     22  C   UNL     1     -12.081   8.732  35.227  0.00  0.00    +0.025 A 
ATOM     24  C   UNL     1     -11.219   9.807  35.045  0.00  0.00    +0.031 A 
ATOM     25  C   UNL     1     -12.304   8.235  36.506  0.00  0.00    +0.031 A 
ATOM     26  C   UNL     1     -10.610  10.346  36.167  0.00  0.00    +0.111 A 
ATOM     27  C   UNL     1     -11.647   8.844  37.562  0.00  0.00    +0.111 A 
ENDBRANCH  19  22
ENDBRANCH   8  14
BRANCH   2  13
ATOM     13  C   UNL     1     -13.833   3.955  32.709  0.00  0.00    +0.120 C 
BRANCH  13  15
ATOM     15  C   UNL     1     -14.036   2.660  31.967  0.00  0.00    -0.033 A 
ATOM     17  C   UNL     1     -13.636   2.549  30.636  0.00  0.00    +0.005 A 
ATOM     18  C   UNL     1     -14.624   1.572  32.612  0.00  0.00    +0.005 A 
ATOM     20  C   UNL     1     -13.824   1.349  29.949  0.00  0.00    +0.000 A 
ATOM     21  C   UNL     1     -14.812   0.372  31.926  0.00  0.00    +0.000 A 
ATOM     23  C   UNL     1     -14.412   0.261  30.594  0.00  0.00    +0.000 A 
ENDBRANCH  13  15
ENDBRANCH   2  13
TORSDOF 4
ENDMDL
MODEL 9
REMARK VINA RESULT:      -6.0     29.488     32.000
REMARK  Name = 26744872
REMARK  4 active torsions:
REMARK  status: ('A' for Active; 'I' for Inactive)
REMARK    1  A    between atoms: N_2  and  C_13
REMARK    2  A    between atoms: C_8  and  C_14
REMARK    3  A    between atoms: C_13  and  C_15
REMARK    4  A    between atoms: C_19  and  C_22
REMARK                            x       y       z     vdW  Elec       q    Type
REMARK                         _______ _______ _______ _____ _____    ______ ____
ROOT
ATOM      2  N   UNL     1     -14.127  -4.092  10.866  0.00  0.00    -0.281 NA
ATOM      3  N   UNL     1     -14.001  -6.753  13.468  0.00  0.00    -0.347 N 
ATOM      4  N   UNL     1     -12.496  -5.422  14.450  0.00  0.00    -0.240 NA
ATOM      8  C   UNL     1     -12.743  -3.577  11.097  0.00  0.00    +0.152 C 
ATOM      9  C   UNL     1     -12.331  -3.679  12.610  0.00  0.00    +0.086 C 
ATOM     10  C   UNL     1     -14.354  -5.498  11.265  0.00  0.00    +0.140 C 
ATOM     11  C   UNL     1     -13.775  -5.724  12.607  0.00  0.00    +0.053 A 
ATOM     12  C   UNL     1     -12.846  -4.926  13.226  0.00  0.00    +0.065 A 
ATOM     16  C   UNL     1     -13.207  -6.526  14.566  0.00  0.00    +0.197 A 
ATOM     28  H   UNL     1     -14.627  -7.536  13.331  0.00  0.00    +0.167 HD
ENDROOT
BRANCH   8  14
ATOM      1  O   UNL     1     -10.840  -3.200   9.589  0.00  0.00    -0.336 OA
ATOM      5  N   UNL     1     -11.439  -5.351   9.776  0.00  0.00    -0.190 NA
ATOM      6  N   UNL     1      -9.964  -3.922   8.767  0.00  0.00    -0.056 NA
ATOM     14  C   UNL     1     -11.675  -4.118  10.145  0.00  0.00    +0.245 A 
ATOM     19  C   UNL     1     -10.381  -5.181   8.930  0.00  0.00    +0.202 A 
BRANCH  19  22
ATOM      7  N   UNL     1      -8.556  -8.455   6.972  0.00  0.00    -0.263 NA
ATOM     22  C   UNL     1      -9.762  -6.291   8.266  0.00  0.00    +0.025 A 
ATOM     24  C   UNL     1     -10.539  -7.345   7.797  0.00  0.00    +0.031 A 
ATOM     25  C   UNL     1      -8.383  -6.318   8.089  0.00  0.00    +0.031 A 
ATOM     26  C   UNL     1      -9.893  -8.393   7.162  0.00  0.00    +0.111 A 
ATOM     27  C   UNL     1      -7.834  -7.413   7.441  0.00  0.00    +0.111 A 
ENDBRANCH  19  22
ENDBRANCH   8  14
BRANCH   2  13
ATOM     13  C   UNL     1     -14.645  -3.825   9.529  0.00  0.00    +0.120 C 
BRANCH  13  15
ATOM     15  C   UNL     1     -15.189  -2.426   9.406  0.00  0.00    -0.033 A 
ATOM     17  C   UNL     1     -15.953  -1.883  10.439  0.00  0.00    +0.005 A 
ATOM     18  C   UNL     1     -14.927  -1.674   8.261  0.00  0.00    +0.005 A 
ATOM     20  C   UNL     1     -16.457  -0.587  10.325  0.00  0.00    +0.000 A 
ATOM     21  C   UNL     1     -15.430  -0.378   8.148  0.00  0.00    +0.000 A 
ATOM     23  C   UNL     1     -16.195   0.165   9.180  0.00  0.00    +0.000 A 
ENDBRANCH  13  15
ENDBRANCH   2  13
TORSDOF 4
ENDMDL
MODEL 10
REMARK VINA RESULT:      -6.0     31.659     33.791
REMARK  Name = 26744872
REMARK  4 active torsions:
REMARK  status: ('A' for Active; 'I' for Inactive)
REMARK    1  A    between atoms: N_2  and  C_13
REMARK    2  A    between atoms: C_8  and  C_14
REMARK    3  A    between atoms: C_13  and  C_15
REMARK    4  A    between atoms: C_19  and  C_22
REMARK                            x       y       z     vdW  Elec       q    Type
REMARK                         _______ _______ _______ _____ _____    ______ ____
ROOT
ATOM      2  N   UNL     1       2.293 -14.243  -1.894  0.00  0.00    -0.281 NA
ATOM      3  N   UNL     1       5.320 -14.923   0.166  0.00  0.00    -0.347 N 
ATOM      4  N   UNL     1       4.467 -16.982   0.352  0.00  0.00    -0.240 NA
ATOM      8  C   UNL     1       1.429 -15.282  -1.256  0.00  0.00    +0.152 C 
ATOM      9  C   UNL     1       2.261 -16.545  -0.826  0.00  0.00    +0.086 C 
ATOM     10  C   UNL     1       3.405 -13.743  -1.057  0.00  0.00    +0.140 C 
ATOM     11  C   UNL     1       4.096 -14.890  -0.428  0.00  0.00    +0.053 A 
ATOM     12  C   UNL     1       3.591 -16.159  -0.296  0.00  0.00    +0.065 A 
ATOM     16  C   UNL     1       5.500 -16.206   0.621  0.00  0.00    +0.197 A 
ATOM     28  H   UNL     1       5.973 -14.155   0.260  0.00  0.00    +0.167 HD
ENDROOT
BRANCH   8  14
ATOM      1  O   UNL     1      -0.552 -14.008  -0.558  0.00  0.00    -0.336 OA
ATOM      5  N   UNL     1       0.555 -14.965   1.137  0.00  0.00    -0.190 NA
ATOM      6  N   UNL     1      -1.251 -13.665   0.607  0.00  0.00    -0.056 NA
ATOM     14  C   UNL     1       0.496 -14.774  -0.156  0.00  0.00    +0.245 A 
ATOM     19  C   UNL     1      -0.537 -14.266   1.563  0.00  0.00    +0.202 A 
BRANCH  19  22
ATOM      7  N   UNL     1      -1.571 -14.041   5.658  0.00  0.00    -0.263 NA
ATOM     22  C   UNL     1      -0.888 -14.190   2.952  0.00  0.00    +0.025 A 
ATOM     24  C   UNL     1      -2.083 -13.593   3.338  0.00  0.00    +0.031 A 
ATOM     25  C   UNL     1      -0.034 -14.712   3.917  0.00  0.00    +0.031 A 
ATOM     26  C   UNL     1      -2.375 -13.544   4.692  0.00  0.00    +0.111 A 
ATOM     27  C   UNL     1      -0.418 -14.613   5.244  0.00  0.00    +0.111 A 
ENDBRANCH  19  22
ENDBRANCH   8  14
BRANCH   2  13
ATOM     13  C   UNL     1       1.551 -13.147  -2.507  0.00  0.00    +0.120 C 
BRANCH  13  15
ATOM     15  C   UNL     1       1.966 -12.919  -3.937  0.00  0.00    -0.033 A 
ATOM     17  C   UNL     1       2.670 -13.908  -4.625  0.00  0.00    +0.005 A 
ATOM     18  C   UNL     1       1.646 -11.720  -4.574  0.00  0.00    +0.005 A 
ATOM     20  C   UNL     1       3.055 -13.697  -5.949  0.00  0.00    +0.000 A 
ATOM     21  C   UNL     1       2.030 -11.510  -5.898  0.00  0.00    +0.000 A 
ATOM     23  C   UNL     1       2.734 -12.498  -6.585  0.00  0.00    +0.000 A 
ENDBRANCH  13  15
ENDBRANCH   2  13
TORSDOF 4
ENDMDL
