MODEL 1
REMARK VINA RESULT:      -7.7      0.000      0.000
REMARK  Name = 45361005
REMARK  9 active torsions:
REMARK  status: ('A' for Active; 'I' for Inactive)
REMARK    1  A    between atoms: N_3  and  C_17
REMARK    2  A    between atoms: N_4  and  C_19
REMARK    3  A    between atoms: N_6  and  C_25
REMARK    4  A    between atoms: N_8  and  C_28
REMARK    5  A    between atoms: C_14  and  C_18
REMARK    6  A    between atoms: C_17  and  C_20
REMARK    7  A    between atoms: C_18  and  C_21
REMARK    8  A    between atoms: C_21  and  C_22
REMARK    9  A    between atoms: C_28  and  C_31
REMARK                            x       y       z     vdW  Elec       q    Type
REMARK                         _______ _______ _______ _____ _____    ______ ____
ROOT
ATOM      1  O   UNL     1     -14.656   4.304  24.182  0.00  0.00    -0.274 OA
ATOM      3  N   UNL     1     -16.807   4.608  22.577  0.00  0.00    -0.283 NA
ATOM      4  N   UNL     1     -17.510   1.751  24.752  0.00  0.00    -0.296 NA
ATOM      5  N   UNL     1     -15.869   3.744  26.040  0.00  0.00    -0.312 N 
ATOM     10  C   UNL     1     -17.905   2.884  23.887  0.00  0.00    +0.084 C 
ATOM     11  C   UNL     1     -17.079   4.202  23.968  0.00  0.00    +0.161 C 
ATOM     12  C   UNL     1     -17.854   2.567  22.381  0.00  0.00    +0.036 C 
ATOM     13  C   UNL     1     -17.790   3.935  21.735  0.00  0.00    +0.087 C 
ATOM     14  C   UNL     1     -17.636   2.017  26.213  0.00  0.00    +0.074 C 
ATOM     15  C   UNL     1     -15.747   4.085  24.706  0.00  0.00    +0.232 C 
ATOM     16  C   UNL     1     -17.130   3.400  26.666  0.00  0.00    +0.123 C 
ATOM     19  C   UNL     1     -18.253   0.531  24.390  0.00  0.00    +0.105 C 
ATOM     36  H   UNL     1     -15.021   3.672  26.595  0.00  0.00    +0.149 HD
ENDROOT
BRANCH   3  17
ATOM     17  C   UNL     1     -16.818   6.053  22.384  0.00  0.00    +0.159 C 
BRANCH  17  20
ATOM      6  N   UNL     1     -15.220   7.901  21.804  0.00  0.00    -0.330 N 
ATOM      7  N   UNL     1     -14.471   5.827  21.528  0.00  0.00    -0.231 NA
ATOM     20  C   UNL     1     -15.492   6.565  21.901  0.00  0.00    +0.125 A 
ATOM     23  C   UNL     1     -13.938   8.035  21.336  0.00  0.00    +0.069 A 
ATOM     24  C   UNL     1     -13.492   6.727  21.172  0.00  0.00    +0.089 A 
ATOM     25  C   UNL     1     -16.121   8.984  22.133  0.00  0.00    +0.150 C 
ATOM     26  C   UNL     1     -13.154   9.154  21.052  0.00  0.00    +0.028 A 
ATOM     27  C   UNL     1     -12.189   6.502  20.696  0.00  0.00    +0.030 A 
ATOM     29  C   UNL     1     -11.860   8.911  20.579  0.00  0.00    +0.002 A 
ATOM     30  C   UNL     1     -11.383   7.610  20.404  0.00  0.00    +0.002 A 
ENDBRANCH  17  20
ENDBRANCH   3  17
BRANCH  14  18
ATOM     18  C   UNL     1     -16.868   0.953  27.023  0.00  0.00    +0.029 C 
BRANCH  18  21
ATOM     21  C   UNL     1     -17.285   0.985  28.482  0.00  0.00    +0.097 C 
BRANCH  21  22
ATOM      2  O   UNL     1     -16.043  -0.312  30.105  0.00  0.00    -0.276 OA
ATOM      8  N   UNL     1     -15.160   1.700  29.354  0.00  0.00    -0.311 N 
ATOM     22  C   UNL     1     -16.115   0.694  29.406  0.00  0.00    +0.213 C 
ATOM     37  H   UNL     1     -15.311   2.513  28.765  0.00  0.00    +0.149 HD
BRANCH   8  28
ATOM     28  C   UNL     1     -13.952   1.655  30.142  0.00  0.00    +0.141 C 
BRANCH  28  31
ATOM      9  N   UNL     1     -14.709   2.244  33.800  0.00  0.00    -0.263 NA
ATOM     31  C   UNL     1     -14.115   2.358  31.459  0.00  0.00    -0.012 A 
ATOM     32  C   UNL     1     -13.848   3.716  31.586  0.00  0.00    +0.008 A 
ATOM     33  C   UNL     1     -14.539   1.673  32.587  0.00  0.00    +0.115 A 
ATOM     34  C   UNL     1     -14.009   4.339  32.819  0.00  0.00    +0.020 A 
ATOM     35  C   UNL     1     -14.439   3.566  33.885  0.00  0.00    +0.111 A 
ENDBRANCH  28  31
ENDBRANCH   8  28
ENDBRANCH  21  22
ENDBRANCH  18  21
ENDBRANCH  14  18
TORSDOF 7
ENDMDL
MODEL 2
REMARK VINA RESULT:      -7.7      2.206      3.788
REMARK  Name = 45361005
REMARK  9 active torsions:
REMARK  status: ('A' for Active; 'I' for Inactive)
REMARK    1  A    between atoms: N_3  and  C_17
REMARK    2  A    between atoms: N_4  and  C_19
REMARK    3  A    between atoms: N_6  and  C_25
REMARK    4  A    between atoms: N_8  and  C_28
REMARK    5  A    between atoms: C_14  and  C_18
REMARK    6  A    between atoms: C_17  and  C_20
REMARK    7  A    between atoms: C_18  and  C_21
REMARK    8  A    between atoms: C_21  and  C_22
REMARK    9  A    between atoms: C_28  and  C_31
REMARK                            x       y       z     vdW  Elec       q    Type
REMARK                         _______ _______ _______ _____ _____    ______ ____
ROOT
ATOM      1  O   UNL     1     -12.798   4.822  22.339  0.00  0.00    -0.274 OA
ATOM      3  N   UNL     1     -14.126   6.860  21.164  0.00  0.00    -0.283 NA
ATOM      4  N   UNL     1     -16.630   4.345  22.057  0.00  0.00    -0.296 NA
ATOM      5  N   UNL     1     -14.414   4.405  23.904  0.00  0.00    -0.312 N 
ATOM     10  C   UNL     1     -16.190   5.724  21.753  0.00  0.00    +0.084 C 
ATOM     11  C   UNL     1     -14.806   6.197  22.292  0.00  0.00    +0.161 C 
ATOM     12  C   UNL     1     -16.065   6.022  20.247  0.00  0.00    +0.036 C 
ATOM     13  C   UNL     1     -15.157   7.234  20.202  0.00  0.00    +0.087 C 
ATOM     14  C   UNL     1     -16.836   4.069  23.507  0.00  0.00    +0.074 C 
ATOM     15  C   UNL     1     -13.903   5.083  22.814  0.00  0.00    +0.232 C 
ATOM     16  C   UNL     1     -15.744   4.633  24.436  0.00  0.00    +0.123 C 
ATOM     19  C   UNL     1     -17.843   4.002  21.295  0.00  0.00    +0.105 C 
ATOM     36  H   UNL     1     -13.851   3.666  24.315  0.00  0.00    +0.149 HD
ENDROOT
BRANCH   3  17
ATOM     17  C   UNL     1     -13.315   8.001  21.569  0.00  0.00    +0.159 C 
BRANCH  17  20
ATOM      6  N   UNL     1     -12.079   9.829  20.371  0.00  0.00    -0.330 N 
ATOM      7  N   UNL     1     -12.035   7.820  19.419  0.00  0.00    -0.231 NA
ATOM     20  C   UNL     1     -12.475   8.523  20.439  0.00  0.00    +0.125 A 
ATOM     23  C   UNL     1     -11.332   9.981  19.231  0.00  0.00    +0.069 A 
ATOM     24  C   UNL     1     -11.320   8.714  18.653  0.00  0.00    +0.089 A 
ATOM     25  C   UNL     1     -12.388  10.868  21.328  0.00  0.00    +0.150 C 
ATOM     26  C   UNL     1     -10.687  11.084  18.670  0.00  0.00    +0.028 A 
ATOM     27  C   UNL     1     -10.628   8.517  17.447  0.00  0.00    +0.030 A 
ATOM     29  C   UNL     1     -10.003  10.870  17.469  0.00  0.00    +0.002 A 
ATOM     30  C   UNL     1      -9.972   9.610  16.867  0.00  0.00    +0.002 A 
ENDBRANCH  17  20
ENDBRANCH   3  17
BRANCH  14  18
ATOM     18  C   UNL     1     -16.923   2.549  23.760  0.00  0.00    +0.029 C 
BRANCH  18  21
ATOM     21  C   UNL     1     -17.875   2.249  24.903  0.00  0.00    +0.097 C 
BRANCH  21  22
ATOM      2  O   UNL     1     -16.399   0.483  25.654  0.00  0.00    -0.276 OA
ATOM      8  N   UNL     1     -17.730   1.581  27.208  0.00  0.00    -0.311 N 
ATOM     22  C   UNL     1     -17.240   1.333  25.934  0.00  0.00    +0.213 C 
ATOM     37  H   UNL     1     -18.445   2.288  27.349  0.00  0.00    +0.149 HD
BRANCH   8  28
ATOM     28  C   UNL     1     -17.282   0.840  28.363  0.00  0.00    +0.141 C 
BRANCH  28  31
ATOM      9  N   UNL     1     -13.883   1.220  29.977  0.00  0.00    -0.263 NA
ATOM     31  C   UNL     1     -16.084   1.474  29.007  0.00  0.00    -0.012 A 
ATOM     32  C   UNL     1     -16.036   2.844  29.242  0.00  0.00    +0.008 A 
ATOM     33  C   UNL     1     -14.991   0.714  29.390  0.00  0.00    +0.115 A 
ATOM     34  C   UNL     1     -14.913   3.403  29.842  0.00  0.00    +0.020 A 
ATOM     35  C   UNL     1     -13.874   2.556  30.188  0.00  0.00    +0.111 A 
ENDBRANCH  28  31
ENDBRANCH   8  28
ENDBRANCH  21  22
ENDBRANCH  18  21
ENDBRANCH  14  18
TORSDOF 7
ENDMDL
MODEL 3
REMARK VINA RESULT:      -7.6     31.584     35.588
REMARK  Name = 45361005
REMARK  9 active torsions:
REMARK  status: ('A' for Active; 'I' for Inactive)
REMARK    1  A    between atoms: N_3  and  C_17
REMARK    2  A    between atoms: N_4  and  C_19
REMARK    3  A    between atoms: N_6  and  C_25
REMARK    4  A    between atoms: N_8  and  C_28
REMARK    5  A    between atoms: C_14  and  C_18
REMARK    6  A    between atoms: C_17  and  C_20
REMARK    7  A    between atoms: C_18  and  C_21
REMARK    8  A    between atoms: C_21  and  C_22
REMARK    9  A    between atoms: C_28  and  C_31
REMARK                            x       y       z     vdW  Elec       q    Type
REMARK                         _______ _______ _______ _____ _____    ______ ____
ROOT
ATOM      1  O   UNL     1      20.184   6.273  23.966  0.00  0.00    -0.274 OA
ATOM      3  N   UNL     1      21.243   5.342  21.662  0.00  0.00    -0.283 NA
ATOM      4  N   UNL     1      18.087   6.976  20.788  0.00  0.00    -0.296 NA
ATOM      5  N   UNL     1      19.383   8.211  23.050  0.00  0.00    -0.312 N 
ATOM     10  C   UNL     1      19.453   6.490  20.491  0.00  0.00    +0.084 C 
ATOM     11  C   UNL     1      20.548   6.641  21.588  0.00  0.00    +0.161 C 
ATOM     12  C   UNL     1      19.524   4.985  20.172  0.00  0.00    +0.036 C 
ATOM     13  C   UNL     1      20.981   4.644  20.408  0.00  0.00    +0.087 C 
ATOM     14  C   UNL     1      17.991   8.445  21.015  0.00  0.00    +0.074 C 
ATOM     15  C   UNL     1      20.025   6.990  22.979  0.00  0.00    +0.232 C 
ATOM     16  C   UNL     1      19.109   9.040  21.893  0.00  0.00    +0.123 C 
ATOM     19  C   UNL     1      17.142   6.559  19.738  0.00  0.00    +0.105 C 
ATOM     36  H   UNL     1      19.031   8.514  23.954  0.00  0.00    +0.149 HD
ENDROOT
BRANCH   3  17
ATOM     17  C   UNL     1      22.670   5.465  21.933  0.00  0.00    +0.159 C 
BRANCH  17  20
ATOM      6  N   UNL     1      24.183   3.529  21.419  0.00  0.00    -0.330 N 
ATOM      7  N   UNL     1      23.079   3.433  23.346  0.00  0.00    -0.231 NA
ATOM     20  C   UNL     1      23.296   4.140  22.259  0.00  0.00    +0.125 A 
ATOM     23  C   UNL     1      24.566   2.348  22.001  0.00  0.00    +0.069 A 
ATOM     24  C   UNL     1      23.863   2.310  23.202  0.00  0.00    +0.089 A 
ATOM     25  C   UNL     1      24.640   4.034  20.143  0.00  0.00    +0.150 C 
ATOM     26  C   UNL     1      25.440   1.339  21.593  0.00  0.00    +0.028 A 
ATOM     27  C   UNL     1      24.029   1.210  24.059  0.00  0.00    +0.030 A 
ATOM     29  C   UNL     1      25.593   0.251  22.458  0.00  0.00    +0.002 A 
ATOM     30  C   UNL     1      24.901   0.185  23.670  0.00  0.00    +0.002 A 
ENDBRANCH  17  20
ENDBRANCH   3  17
BRANCH  14  18
ATOM     18  C   UNL     1      16.643   8.803  21.674  0.00  0.00    +0.029 C 
BRANCH  18  21
ATOM     21  C   UNL     1      16.360  10.288  21.545  0.00  0.00    +0.097 C 
BRANCH  21  22
ATOM      2  O   UNL     1      14.230  11.421  21.754  0.00  0.00    -0.276 OA
ATOM      8  N   UNL     1      14.446   9.699  20.212  0.00  0.00    -0.311 N 
ATOM     22  C   UNL     1      14.904  10.553  21.205  0.00  0.00    +0.213 C 
ATOM     37  H   UNL     1      15.064   8.989  19.828  0.00  0.00    +0.149 HD
BRANCH   8  28
ATOM     28  C   UNL     1      13.093   9.752  19.714  0.00  0.00    +0.141 C 
BRANCH  28  31
ATOM      9  N   UNL     1      11.300   6.615  20.828  0.00  0.00    -0.263 NA
ATOM     31  C   UNL     1      12.177   8.841  20.478  0.00  0.00    -0.012 A 
ATOM     32  C   UNL     1      11.374   9.326  21.504  0.00  0.00    +0.008 A 
ATOM     33  C   UNL     1      12.104   7.489  20.182  0.00  0.00    +0.115 A 
ATOM     34  C   UNL     1      10.534   8.457  22.193  0.00  0.00    +0.020 A 
ATOM     35  C   UNL     1      10.534   7.124  21.820  0.00  0.00    +0.111 A 
ENDBRANCH  28  31
ENDBRANCH   8  28
ENDBRANCH  21  22
ENDBRANCH  18  21
ENDBRANCH  14  18
TORSDOF 7
ENDMDL
MODEL 4
REMARK VINA RESULT:      -7.4     17.108     20.090
REMARK  Name = 45361005
REMARK  9 active torsions:
REMARK  status: ('A' for Active; 'I' for Inactive)
REMARK    1  A    between atoms: N_3  and  C_17
REMARK    2  A    between atoms: N_4  and  C_19
REMARK    3  A    between atoms: N_6  and  C_25
REMARK    4  A    between atoms: N_8  and  C_28
REMARK    5  A    between atoms: C_14  and  C_18
REMARK    6  A    between atoms: C_17  and  C_20
REMARK    7  A    between atoms: C_18  and  C_21
REMARK    8  A    between atoms: C_21  and  C_22
REMARK    9  A    between atoms: C_28  and  C_31
REMARK                            x       y       z     vdW  Elec       q    Type
REMARK                         _______ _______ _______ _____ _____    ______ ____
ROOT
ATOM      1  O   UNL     1      -6.361  -9.396  16.689  0.00  0.00    -0.274 OA
ATOM      3  N   UNL     1      -7.209 -11.889  17.287  0.00  0.00    -0.283 NA
ATOM      4  N   UNL     1     -10.028  -9.640  17.905  0.00  0.00    -0.296 NA
ATOM      5  N   UNL     1      -8.339  -8.730  15.750  0.00  0.00    -0.312 N 
ATOM     10  C   UNL     1      -9.429 -10.956  17.589  0.00  0.00    +0.084 C 
ATOM     11  C   UNL     1      -8.192 -10.998  16.643  0.00  0.00    +0.161 C 
ATOM     12  C   UNL     1      -8.916 -11.720  18.823  0.00  0.00    +0.036 C 
ATOM     13  C   UNL     1      -7.941 -12.720  18.237  0.00  0.00    +0.087 C 
ATOM     14  C   UNL     1     -10.605  -8.927  16.731  0.00  0.00    +0.074 C 
ATOM     15  C   UNL     1      -7.527  -9.648  16.389  0.00  0.00    +0.232 C 
ATOM     16  C   UNL     1      -9.739  -8.968  15.458  0.00  0.00    +0.123 C 
ATOM     19  C   UNL     1     -11.037  -9.766  18.971  0.00  0.00    +0.105 C 
ATOM     36  H   UNL     1      -7.949  -7.818  15.530  0.00  0.00    +0.149 HD
ENDROOT
BRANCH   3  17
ATOM     17  C   UNL     1      -6.443 -12.687  16.338  0.00  0.00    +0.159 C 
BRANCH  17  20
ATOM      6  N   UNL     1      -4.844 -11.619  14.723  0.00  0.00    -0.330 N 
ATOM      7  N   UNL     1      -4.142 -11.812  16.823  0.00  0.00    -0.231 NA
ATOM     20  C   UNL     1      -5.133 -12.042  15.990  0.00  0.00    +0.125 A 
ATOM     23  C   UNL     1      -3.583 -11.080  14.738  0.00  0.00    +0.069 A 
ATOM     24  C   UNL     1      -3.166 -11.213  16.060  0.00  0.00    +0.089 A 
ATOM     25  C   UNL     1      -5.710 -11.720  13.569  0.00  0.00    +0.150 C 
ATOM     26  C   UNL     1      -2.794 -10.506  13.740  0.00  0.00    +0.028 A 
ATOM     27  C   UNL     1      -1.891 -10.751  16.426  0.00  0.00    +0.030 A 
ATOM     29  C   UNL     1      -1.528 -10.052  14.122  0.00  0.00    +0.002 A 
ATOM     30  C   UNL     1      -1.082 -10.171  15.440  0.00  0.00    +0.002 A 
ENDBRANCH  17  20
ENDBRANCH   3  17
BRANCH  14  18
ATOM     18  C   UNL     1     -10.860  -7.444  17.072  0.00  0.00    +0.029 C 
BRANCH  18  21
ATOM     21  C   UNL     1     -10.558  -6.559  15.877  0.00  0.00    +0.097 C 
BRANCH  21  22
ATOM      2  O   UNL     1     -12.932  -6.093  15.799  0.00  0.00    -0.276 OA
ATOM      8  N   UNL     1     -11.564  -5.271  14.113  0.00  0.00    -0.311 N 
ATOM     22  C   UNL     1     -11.824  -5.964  15.287  0.00  0.00    +0.213 C 
ATOM     37  H   UNL     1     -10.619  -5.234  13.743  0.00  0.00    +0.149 HD
BRANCH   8  28
ATOM     28  C   UNL     1     -12.606  -4.613  13.361  0.00  0.00    +0.141 C 
BRANCH  28  31
ATOM      9  N   UNL     1     -12.173  -5.921   9.839  0.00  0.00    -0.263 NA
ATOM     31  C   UNL     1     -12.335  -4.641  11.885  0.00  0.00    -0.012 A 
ATOM     32  C   UNL     1     -12.003  -3.482  11.194  0.00  0.00    +0.008 A 
ATOM     33  C   UNL     1     -12.407  -5.825  11.167  0.00  0.00    +0.115 A 
ATOM     34  C   UNL     1     -11.756  -3.539   9.826  0.00  0.00    +0.020 A 
ATOM     35  C   UNL     1     -11.853  -4.772   9.202  0.00  0.00    +0.111 A 
ENDBRANCH  28  31
ENDBRANCH   8  28
ENDBRANCH  21  22
ENDBRANCH  18  21
ENDBRANCH  14  18
TORSDOF 7
ENDMDL
MODEL 5
REMARK VINA RESULT:      -7.4     18.026     20.961
REMARK  Name = 45361005
REMARK  9 active torsions:
REMARK  status: ('A' for Active; 'I' for Inactive)
REMARK    1  A    between atoms: N_3  and  C_17
REMARK    2  A    between atoms: N_4  and  C_19
REMARK    3  A    between atoms: N_6  and  C_25
REMARK    4  A    between atoms: N_8  and  C_28
REMARK    5  A    between atoms: C_14  and  C_18
REMARK    6  A    between atoms: C_17  and  C_20
REMARK    7  A    between atoms: C_18  and  C_21
REMARK    8  A    between atoms: C_21  and  C_22
REMARK    9  A    between atoms: C_28  and  C_31
REMARK                            x       y       z     vdW  Elec       q    Type
REMARK                         _______ _______ _______ _____ _____    ______ ____
ROOT
ATOM      1  O   UNL     1      -8.068  -9.522  15.652  0.00  0.00    -0.274 OA
ATOM      3  N   UNL     1      -8.915 -10.977  17.762  0.00  0.00    -0.283 NA
ATOM      4  N   UNL     1      -5.751 -12.453  16.667  0.00  0.00    -0.296 NA
ATOM      5  N   UNL     1      -5.854  -9.603  16.227  0.00  0.00    -0.312 N 
ATOM     10  C   UNL     1      -6.798 -12.161  17.671  0.00  0.00    +0.084 C 
ATOM     11  C   UNL     1      -7.462 -10.752  17.662  0.00  0.00    +0.161 C 
ATOM     12  C   UNL     1      -8.022 -13.092  17.584  0.00  0.00    +0.036 C 
ATOM     13  C   UNL     1      -9.105 -12.318  18.307  0.00  0.00    +0.087 C 
ATOM     14  C   UNL     1      -4.525 -11.615  16.794  0.00  0.00    +0.074 C 
ATOM     15  C   UNL     1      -7.187  -9.917  16.414  0.00  0.00    +0.232 C 
ATOM     16  C   UNL     1      -4.786 -10.120  17.060  0.00  0.00    +0.123 C 
ATOM     19  C   UNL     1      -5.395 -13.882  16.680  0.00  0.00    +0.105 C 
ATOM     36  H   UNL     1      -5.606  -9.029  15.426  0.00  0.00    +0.149 HD
ENDROOT
BRANCH   3  17
ATOM     17  C   UNL     1      -9.604  -9.963  18.551  0.00  0.00    +0.159 C 
BRANCH  17  20
ATOM      6  N   UNL     1     -11.613  -9.353  17.173  0.00  0.00    -0.330 N 
ATOM      7  N   UNL     1     -10.023  -7.808  17.337  0.00  0.00    -0.231 NA
ATOM     20  C   UNL     1     -10.392  -9.020  17.688  0.00  0.00    +0.125 A 
ATOM     23  C   UNL     1     -12.063  -8.286  16.439  0.00  0.00    +0.069 A 
ATOM     24  C   UNL     1     -11.053  -7.335  16.556  0.00  0.00    +0.089 A 
ATOM     25  C   UNL     1     -12.309 -10.606  17.364  0.00  0.00    +0.150 C 
ATOM     26  C   UNL     1     -13.231  -8.077  15.704  0.00  0.00    +0.028 A 
ATOM     27  C   UNL     1     -11.200  -6.096  15.910  0.00  0.00    +0.030 A 
ATOM     29  C   UNL     1     -13.360  -6.839  15.067  0.00  0.00    +0.002 A 
ATOM     30  C   UNL     1     -12.365  -5.864  15.167  0.00  0.00    +0.002 A 
ENDBRANCH  17  20
ENDBRANCH   3  17
BRANCH  14  18
ATOM     18  C   UNL     1      -3.668 -11.717  15.515  0.00  0.00    +0.029 C 
BRANCH  18  21
ATOM     21  C   UNL     1      -2.289 -11.127  15.745  0.00  0.00    +0.097 C 
BRANCH  21  22
ATOM      2  O   UNL     1      -1.017  -9.432  14.574  0.00  0.00    -0.276 OA
ATOM      8  N   UNL     1      -2.292 -10.936  13.348  0.00  0.00    -0.311 N 
ATOM     22  C   UNL     1      -1.782 -10.391  14.518  0.00  0.00    +0.213 C 
ATOM     37  H   UNL     1      -2.942 -11.715  13.391  0.00  0.00    +0.149 HD
BRANCH   8  28
ATOM     28  C   UNL     1      -1.960 -10.411  12.045  0.00  0.00    +0.141 C 
BRANCH  28  31
ATOM      9  N   UNL     1      -5.577  -9.673  11.227  0.00  0.00    -0.263 NA
ATOM     31  C   UNL     1      -3.173  -9.914  11.313  0.00  0.00    -0.012 A 
ATOM     32  C   UNL     1      -3.057  -9.262  10.091  0.00  0.00    +0.008 A 
ATOM     33  C   UNL     1      -4.444 -10.093  11.834  0.00  0.00    +0.115 A 
ATOM     34  C   UNL     1      -4.199  -8.815   9.436  0.00  0.00    +0.020 A 
ATOM     35  C   UNL     1      -5.424  -9.043  10.040  0.00  0.00    +0.111 A 
ENDBRANCH  28  31
ENDBRANCH   8  28
ENDBRANCH  21  22
ENDBRANCH  18  21
ENDBRANCH  14  18
TORSDOF 7
ENDMDL
MODEL 6
REMARK VINA RESULT:      -7.4     31.310     35.250
REMARK  Name = 45361005
REMARK  9 active torsions:
REMARK  status: ('A' for Active; 'I' for Inactive)
REMARK    1  A    between atoms: N_3  and  C_17
REMARK    2  A    between atoms: N_4  and  C_19
REMARK    3  A    between atoms: N_6  and  C_25
REMARK    4  A    between atoms: N_8  and  C_28
REMARK    5  A    between atoms: C_14  and  C_18
REMARK    6  A    between atoms: C_17  and  C_20
REMARK    7  A    between atoms: C_18  and  C_21
REMARK    8  A    between atoms: C_21  and  C_22
REMARK    9  A    between atoms: C_28  and  C_31
REMARK                            x       y       z     vdW  Elec       q    Type
REMARK                         _______ _______ _______ _____ _____    ______ ____
ROOT
ATOM      1  O   UNL     1      20.096   6.309  23.830  0.00  0.00    -0.274 OA
ATOM      3  N   UNL     1      21.033   5.391  21.469  0.00  0.00    -0.283 NA
ATOM      4  N   UNL     1      17.801   6.962  20.782  0.00  0.00    -0.296 NA
ATOM      5  N   UNL     1      19.205   8.229  22.960  0.00  0.00    -0.312 N 
ATOM     10  C   UNL     1      19.155   6.502  20.404  0.00  0.00    +0.084 C 
ATOM     11  C   UNL     1      20.311   6.677  21.433  0.00  0.00    +0.161 C 
ATOM     12  C   UNL     1      19.236   4.997  20.085  0.00  0.00    +0.036 C 
ATOM     13  C   UNL     1      20.710   4.684  20.234  0.00  0.00    +0.087 C 
ATOM     14  C   UNL     1      17.691   8.430  21.011  0.00  0.00    +0.074 C 
ATOM     15  C   UNL     1      19.865   7.019  22.853  0.00  0.00    +0.232 C 
ATOM     16  C   UNL     1      18.847   9.049  21.820  0.00  0.00    +0.123 C 
ATOM     19  C   UNL     1      16.803   6.525  19.790  0.00  0.00    +0.105 C 
ATOM     36  H   UNL     1      18.902   8.528  23.883  0.00  0.00    +0.149 HD
ENDROOT
BRANCH   3  17
ATOM     17  C   UNL     1      22.471   5.542  21.654  0.00  0.00    +0.159 C 
BRANCH  17  20
ATOM      6  N   UNL     1      24.033   3.632  21.186  0.00  0.00    -0.330 N 
ATOM      7  N   UNL     1      22.933   3.557  23.116  0.00  0.00    -0.231 NA
ATOM     20  C   UNL     1      23.131   4.242  22.012  0.00  0.00    +0.125 A 
ATOM     23  C   UNL     1      24.446   2.476  21.798  0.00  0.00    +0.069 A 
ATOM     24  C   UNL     1      23.745   2.451  23.000  0.00  0.00    +0.089 A 
ATOM     25  C   UNL     1      24.476   4.116  19.898  0.00  0.00    +0.150 C 
ATOM     26  C   UNL     1      25.344   1.480  21.414  0.00  0.00    +0.028 A 
ATOM     27  C   UNL     1      23.940   1.377  23.884  0.00  0.00    +0.030 A 
ATOM     29  C   UNL     1      25.525   0.418  22.305  0.00  0.00    +0.002 A 
ATOM     30  C   UNL     1      24.837   0.365  23.520  0.00  0.00    +0.002 A 
ENDBRANCH  17  20
ENDBRANCH   3  17
BRANCH  14  18
ATOM     18  C   UNL     1      16.377   8.764  21.749  0.00  0.00    +0.029 C 
BRANCH  18  21
ATOM     21  C   UNL     1      15.387   9.427  20.808  0.00  0.00    +0.097 C 
BRANCH  21  22
ATOM      2  O   UNL     1      13.619   8.240  21.959  0.00  0.00    -0.276 OA
ATOM      8  N   UNL     1      13.087  10.123  20.710  0.00  0.00    -0.311 N 
ATOM     22  C   UNL     1      13.953   9.175  21.237  0.00  0.00    +0.213 C 
ATOM     37  H   UNL     1      13.443  10.852  20.099  0.00  0.00    +0.149 HD
BRANCH   8  28
ATOM     28  C   UNL     1      11.668  10.100  20.972  0.00  0.00    +0.141 C 
BRANCH  28  31
ATOM      9  N   UNL     1      10.604  11.435  24.346  0.00  0.00    -0.263 NA
ATOM     31  C   UNL     1      11.281  11.066  22.054  0.00  0.00    -0.012 A 
ATOM     32  C   UNL     1      11.229  12.434  21.811  0.00  0.00    +0.008 A 
ATOM     33  C   UNL     1      10.963  10.622  23.328  0.00  0.00    +0.115 A 
ATOM     34  C   UNL     1      10.866  13.303  22.834  0.00  0.00    +0.020 A 
ATOM     35  C   UNL     1      10.565  12.759  24.072  0.00  0.00    +0.111 A 
ENDBRANCH  28  31
ENDBRANCH   8  28
ENDBRANCH  21  22
ENDBRANCH  18  21
ENDBRANCH  14  18
TORSDOF 7
ENDMDL
MODEL 7
REMARK VINA RESULT:      -7.2     18.603     22.138
REMARK  Name = 45361005
REMARK  9 active torsions:
REMARK  status: ('A' for Active; 'I' for Inactive)
REMARK    1  A    between atoms: N_3  and  C_17
REMARK    2  A    between atoms: N_4  and  C_19
REMARK    3  A    between atoms: N_6  and  C_25
REMARK    4  A    between atoms: N_8  and  C_28
REMARK    5  A    between atoms: C_14  and  C_18
REMARK    6  A    between atoms: C_17  and  C_20
REMARK    7  A    between atoms: C_18  and  C_21
REMARK    8  A    between atoms: C_21  and  C_22
REMARK    9  A    between atoms: C_28  and  C_31
REMARK                            x       y       z     vdW  Elec       q    Type
REMARK                         _______ _______ _______ _____ _____    ______ ____
ROOT
ATOM      1  O   UNL     1      -7.681 -10.518  19.592  0.00  0.00    -0.274 OA
ATOM      3  N   UNL     1      -8.470 -12.984  18.824  0.00  0.00    -0.283 NA
ATOM      4  N   UNL     1      -5.817 -11.961  16.521  0.00  0.00    -0.296 NA
ATOM      5  N   UNL     1      -5.460 -10.877  19.171  0.00  0.00    -0.312 N 
ATOM     10  C   UNL     1      -6.639 -12.966  17.230  0.00  0.00    +0.084 C 
ATOM     11  C   UNL     1      -7.029 -12.692  18.713  0.00  0.00    +0.161 C 
ATOM     12  C   UNL     1      -8.012 -13.220  16.580  0.00  0.00    +0.036 C 
ATOM     13  C   UNL     1      -8.822 -13.843  17.698  0.00  0.00    +0.087 C 
ATOM     14  C   UNL     1      -4.454 -11.768  17.091  0.00  0.00    +0.074 C 
ATOM     15  C   UNL     1      -6.788 -11.262  19.191  0.00  0.00    +0.232 C 
ATOM     16  C   UNL     1      -4.397 -11.700  18.629  0.00  0.00    +0.123 C 
ATOM     19  C   UNL     1      -5.730 -12.274  15.085  0.00  0.00    +0.105 C 
ATOM     36  H   UNL     1      -5.228  -9.944  19.499  0.00  0.00    +0.149 HD
ENDROOT
BRANCH   3  17
ATOM     17  C   UNL     1      -8.844 -13.575  20.103  0.00  0.00    +0.159 C 
BRANCH  17  20
ATOM      6  N   UNL     1     -10.943 -13.852  21.452  0.00  0.00    -0.330 N 
ATOM      7  N   UNL     1     -10.840 -12.058  20.144  0.00  0.00    -0.231 NA
ATOM     20  C   UNL     1     -10.208 -13.137  20.548  0.00  0.00    +0.125 A 
ATOM     23  C   UNL     1     -12.129 -13.191  21.644  0.00  0.00    +0.069 A 
ATOM     24  C   UNL     1     -12.041 -12.075  20.817  0.00  0.00    +0.089 A 
ATOM     25  C   UNL     1     -10.545 -15.086  22.092  0.00  0.00    +0.150 C 
ATOM     26  C   UNL     1     -13.238 -13.465  22.446  0.00  0.00    +0.028 A 
ATOM     27  C   UNL     1     -13.113 -11.167  20.775  0.00  0.00    +0.030 A 
ATOM     29  C   UNL     1     -14.295 -12.552  22.391  0.00  0.00    +0.002 A 
ATOM     30  C   UNL     1     -14.236 -11.422  21.571  0.00  0.00    +0.002 A 
ENDBRANCH  17  20
ENDBRANCH   3  17
BRANCH  14  18
ATOM     18  C   UNL     1      -3.820 -10.471  16.545  0.00  0.00    +0.029 C 
BRANCH  18  21
ATOM     21  C   UNL     1      -2.349 -10.681  16.238  0.00  0.00    +0.097 C 
BRANCH  21  22
ATOM      2  O   UNL     1      -2.018 -12.451  14.620  0.00  0.00    -0.276 OA
ATOM      8  N   UNL     1      -2.114 -10.251  13.883  0.00  0.00    -0.311 N 
ATOM     22  C   UNL     1      -2.143 -11.250  14.845  0.00  0.00    +0.213 C 
ATOM     37  H   UNL     1      -2.199  -9.277  14.158  0.00  0.00    +0.149 HD
BRANCH   8  28
ATOM     28  C   UNL     1      -1.929 -10.539  12.481  0.00  0.00    +0.141 C 
BRANCH  28  31
ATOM      9  N   UNL     1      -5.452  -9.733  11.365  0.00  0.00    -0.263 NA
ATOM     31  C   UNL     1      -3.068 -10.025  11.648  0.00  0.00    -0.012 A 
ATOM     32  C   UNL     1      -2.839  -9.391  10.432  0.00  0.00    +0.008 A 
ATOM     33  C   UNL     1      -4.381 -10.169  12.066  0.00  0.00    +0.115 A 
ATOM     34  C   UNL     1      -3.915  -8.928   9.682  0.00  0.00    +0.020 A 
ATOM     35  C   UNL     1      -5.190  -9.122  10.188  0.00  0.00    +0.111 A 
ENDBRANCH  28  31
ENDBRANCH   8  28
ENDBRANCH  21  22
ENDBRANCH  18  21
ENDBRANCH  14  18
TORSDOF 7
ENDMDL
MODEL 8
REMARK VINA RESULT:      -7.2     19.149     21.017
REMARK  Name = 45361005
REMARK  9 active torsions:
REMARK  status: ('A' for Active; 'I' for Inactive)
REMARK    1  A    between atoms: N_3  and  C_17
REMARK    2  A    between atoms: N_4  and  C_19
REMARK    3  A    between atoms: N_6  and  C_25
REMARK    4  A    between atoms: N_8  and  C_28
REMARK    5  A    between atoms: C_14  and  C_18
REMARK    6  A    between atoms: C_17  and  C_20
REMARK    7  A    between atoms: C_18  and  C_21
REMARK    8  A    between atoms: C_21  and  C_22
REMARK    9  A    between atoms: C_28  and  C_31
REMARK                            x       y       z     vdW  Elec       q    Type
REMARK                         _______ _______ _______ _____ _____    ______ ____
ROOT
ATOM      1  O   UNL     1      -6.061  -9.561  13.472  0.00  0.00    -0.274 OA
ATOM      3  N   UNL     1      -4.023 -10.644  12.068  0.00  0.00    -0.283 NA
ATOM      4  N   UNL     1      -3.086 -10.828  15.601  0.00  0.00    -0.296 NA
ATOM      5  N   UNL     1      -5.934 -11.056  15.199  0.00  0.00    -0.312 N 
ATOM     10  C   UNL     1      -3.026 -11.272  14.191  0.00  0.00    +0.084 C 
ATOM     11  C   UNL     1      -4.343 -11.281  13.360  0.00  0.00    +0.161 C 
ATOM     12  C   UNL     1      -2.096 -10.419  13.307  0.00  0.00    +0.036 C 
ATOM     13  C   UNL     1      -2.576 -10.716  11.902  0.00  0.00    +0.087 C 
ATOM     14  C   UNL     1      -3.915 -11.694  16.485  0.00  0.00    +0.074 C 
ATOM     15  C   UNL     1      -5.511 -10.530  13.993  0.00  0.00    +0.232 C 
ATOM     16  C   UNL     1      -5.258 -12.144  15.877  0.00  0.00    +0.123 C 
ATOM     19  C   UNL     1      -1.732 -10.675  16.161  0.00  0.00    +0.105 C 
ATOM     36  H   UNL     1      -6.724 -10.616  15.662  0.00  0.00    +0.149 HD
ENDROOT
BRANCH   3  17
ATOM     17  C   UNL     1      -4.735 -11.234  10.941  0.00  0.00    +0.159 C 
BRANCH  17  20
ATOM      6  N   UNL     1      -5.607  -9.270   9.643  0.00  0.00    -0.330 N 
ATOM      7  N   UNL     1      -7.121 -10.492  10.720  0.00  0.00    -0.231 NA
ATOM     20  C   UNL     1      -5.842 -10.349  10.449  0.00  0.00    +0.125 A 
ATOM     23  C   UNL     1      -6.814  -8.678   9.374  0.00  0.00    +0.069 A 
ATOM     24  C   UNL     1      -7.743  -9.458  10.057  0.00  0.00    +0.089 A 
ATOM     25  C   UNL     1      -4.318  -8.830   9.158  0.00  0.00    +0.150 C 
ATOM     26  C   UNL     1      -7.163  -7.559   8.616  0.00  0.00    +0.028 A 
ATOM     27  C   UNL     1      -9.104  -9.118   9.991  0.00  0.00    +0.030 A 
ATOM     29  C   UNL     1      -8.522  -7.235   8.561  0.00  0.00    +0.002 A 
ATOM     30  C   UNL     1      -9.478  -8.000   9.235  0.00  0.00    +0.002 A 
ENDBRANCH  17  20
ENDBRANCH   3  17
BRANCH  14  18
ATOM     18  C   UNL     1      -4.225 -10.970  17.812  0.00  0.00    +0.029 C 
BRANCH  18  21
ATOM     21  C   UNL     1      -4.510 -11.972  18.915  0.00  0.00    +0.097 C 
BRANCH  21  22
ATOM      2  O   UNL     1      -5.815 -11.168  20.790  0.00  0.00    -0.276 OA
ATOM      8  N   UNL     1      -6.915 -11.936  18.894  0.00  0.00    -0.311 N 
ATOM     22  C   UNL     1      -5.794 -11.640  19.656  0.00  0.00    +0.213 C 
ATOM     37  H   UNL     1      -6.809 -12.349  17.973  0.00  0.00    +0.149 HD
BRANCH   8  28
ATOM     28  C   UNL     1      -8.256 -11.710  19.378  0.00  0.00    +0.141 C 
BRANCH  28  31
ATOM      9  N   UNL     1     -10.927  -9.271  18.275  0.00  0.00    -0.263 NA
ATOM     31  C   UNL     1      -8.928 -10.576  18.659  0.00  0.00    -0.012 A 
ATOM     32  C   UNL     1      -8.234  -9.796  17.741  0.00  0.00    +0.008 A 
ATOM     33  C   UNL     1     -10.261 -10.274  18.889  0.00  0.00    +0.115 A 
ATOM     34  C   UNL     1      -8.885  -8.754  17.089  0.00  0.00    +0.020 A 
ATOM     35  C   UNL     1     -10.219  -8.535  17.389  0.00  0.00    +0.111 A 
ENDBRANCH  28  31
ENDBRANCH   8  28
ENDBRANCH  21  22
ENDBRANCH  18  21
ENDBRANCH  14  18
TORSDOF 7
ENDMDL
MODEL 9
REMARK VINA RESULT:      -7.2     15.870     17.938
REMARK  Name = 45361005
REMARK  9 active torsions:
REMARK  status: ('A' for Active; 'I' for Inactive)
REMARK    1  A    between atoms: N_3  and  C_17
REMARK    2  A    between atoms: N_4  and  C_19
REMARK    3  A    between atoms: N_6  and  C_25
REMARK    4  A    between atoms: N_8  and  C_28
REMARK    5  A    between atoms: C_14  and  C_18
REMARK    6  A    between atoms: C_17  and  C_20
REMARK    7  A    between atoms: C_18  and  C_21
REMARK    8  A    between atoms: C_21  and  C_22
REMARK    9  A    between atoms: C_28  and  C_31
REMARK                            x       y       z     vdW  Elec       q    Type
REMARK                         _______ _______ _______ _____ _____    ______ ____
ROOT
ATOM      1  O   UNL     1      -9.801  -7.625  15.947  0.00  0.00    -0.274 OA
ATOM      3  N   UNL     1     -12.405  -8.273  15.644  0.00  0.00    -0.283 NA
ATOM      4  N   UNL     1     -10.672 -11.325  16.679  0.00  0.00    -0.296 NA
ATOM      5  N   UNL     1      -9.478  -8.944  17.789  0.00  0.00    -0.312 N 
ATOM     10  C   UNL     1     -11.864 -10.459  16.552  0.00  0.00    +0.084 C 
ATOM     11  C   UNL     1     -11.692  -8.925  16.759  0.00  0.00    +0.161 C 
ATOM     12  C   UNL     1     -12.537 -10.522  15.168  0.00  0.00    +0.036 C 
ATOM     13  C   UNL     1     -13.353  -9.248  15.114  0.00  0.00    +0.087 C 
ATOM     14  C   UNL     1     -10.062 -11.338  18.039  0.00  0.00    +0.074 C 
ATOM     15  C   UNL     1     -10.247  -8.432  16.761  0.00  0.00    +0.232 C 
ATOM     16  C   UNL     1      -9.949  -9.957  18.712  0.00  0.00    +0.123 C 
ATOM     19  C   UNL     1     -10.973 -12.699  16.242  0.00  0.00    +0.105 C 
ATOM     36  H   UNL     1      -8.512  -8.639  17.861  0.00  0.00    +0.149 HD
ENDROOT
BRANCH   3  17
ATOM     17  C   UNL     1     -13.056  -7.026  16.026  0.00  0.00    +0.159 C 
BRANCH  17  20
ATOM      6  N   UNL     1     -14.412  -5.810  14.297  0.00  0.00    -0.330 N 
ATOM      7  N   UNL     1     -12.220  -5.444  14.269  0.00  0.00    -0.231 NA
ATOM     20  C   UNL     1     -13.199  -6.088  14.863  0.00  0.00    +0.125 A 
ATOM     23  C   UNL     1     -14.202  -4.928  13.269  0.00  0.00    +0.069 A 
ATOM     24  C   UNL     1     -12.827  -4.714  13.271  0.00  0.00    +0.089 A 
ATOM     25  C   UNL     1     -15.690  -6.349  14.707  0.00  0.00    +0.150 C 
ATOM     26  C   UNL     1     -15.071  -4.316  12.364  0.00  0.00    +0.028 A 
ATOM     27  C   UNL     1     -12.267  -3.843  12.322  0.00  0.00    +0.030 A 
ATOM     29  C   UNL     1     -14.497  -3.452  11.427  0.00  0.00    +0.002 A 
ATOM     30  C   UNL     1     -13.120  -3.217  11.404  0.00  0.00    +0.002 A 
ENDBRANCH  17  20
ENDBRANCH   3  17
BRANCH  14  18
ATOM     18  C   UNL     1      -8.645 -11.948  17.988  0.00  0.00    +0.029 C 
BRANCH  18  21
ATOM     21  C   UNL     1      -8.090 -12.131  19.389  0.00  0.00    +0.097 C 
BRANCH  21  22
ATOM      2  O   UNL     1      -6.229 -11.200  20.625  0.00  0.00    -0.276 OA
ATOM      8  N   UNL     1      -6.126 -11.262  18.307  0.00  0.00    -0.311 N 
ATOM     22  C   UNL     1      -6.724 -11.485  19.539  0.00  0.00    +0.213 C 
ATOM     37  H   UNL     1      -6.617 -11.505  17.452  0.00  0.00    +0.149 HD
BRANCH   8  28
ATOM     28  C   UNL     1      -4.822 -10.657  18.183  0.00  0.00    +0.141 C 
BRANCH  28  31
ATOM      9  N   UNL     1      -4.838 -10.407  14.409  0.00  0.00    -0.263 NA
ATOM     31  C   UNL     1      -4.337 -10.655  16.762  0.00  0.00    -0.012 A 
ATOM     32  C   UNL     1      -3.000 -10.890  16.459  0.00  0.00    +0.008 A 
ATOM     33  C   UNL     1      -5.207 -10.420  15.710  0.00  0.00    +0.115 A 
ATOM     34  C   UNL     1      -2.581 -10.883  15.133  0.00  0.00    +0.020 A 
ATOM     35  C   UNL     1      -3.530 -10.639  14.155  0.00  0.00    +0.111 A 
ENDBRANCH  28  31
ENDBRANCH   8  28
ENDBRANCH  21  22
ENDBRANCH  18  21
ENDBRANCH  14  18
TORSDOF 7
ENDMDL
MODEL 10
REMARK VINA RESULT:      -7.1     17.734     20.631
REMARK  Name = 45361005
REMARK  9 active torsions:
REMARK  status: ('A' for Active; 'I' for Inactive)
REMARK    1  A    between atoms: N_3  and  C_17
REMARK    2  A    between atoms: N_4  and  C_19
REMARK    3  A    between atoms: N_6  and  C_25
REMARK    4  A    between atoms: N_8  and  C_28
REMARK    5  A    between atoms: C_14  and  C_18
REMARK    6  A    between atoms: C_17  and  C_20
REMARK    7  A    between atoms: C_18  and  C_21
REMARK    8  A    between atoms: C_21  and  C_22
REMARK    9  A    between atoms: C_28  and  C_31
REMARK                            x       y       z     vdW  Elec       q    Type
REMARK                         _______ _______ _______ _____ _____    ______ ____
ROOT
ATOM      1  O   UNL     1      -8.521  -9.766  15.044  0.00  0.00    -0.274 OA
ATOM      3  N   UNL     1      -9.472  -9.663  17.570  0.00  0.00    -0.283 NA
ATOM      4  N   UNL     1      -6.318 -11.515  17.704  0.00  0.00    -0.296 NA
ATOM      5  N   UNL     1      -6.329  -9.496  15.643  0.00  0.00    -0.312 N 
ATOM     10  C   UNL     1      -7.386 -10.675  18.291  0.00  0.00    +0.084 C 
ATOM     11  C   UNL     1      -8.010  -9.549  17.414  0.00  0.00    +0.161 C 
ATOM     12  C   UNL     1      -8.633 -11.467  18.729  0.00  0.00    +0.036 C 
ATOM     13  C   UNL     1      -9.714 -10.409  18.800  0.00  0.00    +0.087 C 
ATOM     14  C   UNL     1      -5.074 -10.774  17.354  0.00  0.00    +0.074 C 
ATOM     15  C   UNL     1      -7.675  -9.629  15.927  0.00  0.00    +0.232 C 
ATOM     16  C   UNL     1      -5.301  -9.416  16.662  0.00  0.00    +0.123 C 
ATOM     19  C   UNL     1      -6.003 -12.653  18.585  0.00  0.00    +0.105 C 
ATOM     36  H   UNL     1      -6.041  -9.518  14.669  0.00  0.00    +0.149 HD
ENDROOT
BRANCH   3  17
ATOM     17  C   UNL     1     -10.155  -8.376  17.565  0.00  0.00    +0.159 C 
BRANCH  17  20
ATOM      6  N   UNL     1     -11.471  -7.347  15.690  0.00  0.00    -0.330 N 
ATOM      7  N   UNL     1     -12.255  -9.257  16.514  0.00  0.00    -0.231 NA
ATOM     20  C   UNL     1     -11.305  -8.353  16.601  0.00  0.00    +0.125 A 
ATOM     23  C   UNL     1     -12.603  -7.620  14.967  0.00  0.00    +0.069 A 
ATOM     24  C   UNL     1     -13.075  -8.816  15.499  0.00  0.00    +0.089 A 
ATOM     25  C   UNL     1     -10.608  -6.199  15.517  0.00  0.00    +0.150 C 
ATOM     26  C   UNL     1     -13.237  -6.943  13.923  0.00  0.00    +0.028 A 
ATOM     27  C   UNL     1     -14.246  -9.387  14.973  0.00  0.00    +0.030 A 
ATOM     29  C   UNL     1     -14.401  -7.525  13.412  0.00  0.00    +0.002 A 
ATOM     30  C   UNL     1     -14.899  -8.725  13.925  0.00  0.00    +0.002 A 
ENDBRANCH  17  20
ENDBRANCH   3  17
BRANCH  14  18
ATOM     18  C   UNL     1      -4.182 -11.625  16.427  0.00  0.00    +0.029 C 
BRANCH  18  21
ATOM     21  C   UNL     1      -2.845 -10.946  16.196  0.00  0.00    +0.097 C 
BRANCH  21  22
ATOM      2  O   UNL     1      -1.611 -12.282  14.598  0.00  0.00    -0.276 OA
ATOM      8  N   UNL     1      -2.605 -10.307  13.890  0.00  0.00    -0.311 N 
ATOM     22  C   UNL     1      -2.278 -11.276  14.827  0.00  0.00    +0.213 C 
ATOM     37  H   UNL     1      -3.141  -9.490  14.170  0.00  0.00    +0.149 HD
BRANCH   8  28
ATOM     28  C   UNL     1      -2.182 -10.393  12.513  0.00  0.00    +0.141 C 
BRANCH  28  31
ATOM      9  N   UNL     1      -5.605  -9.617  11.105  0.00  0.00    -0.263 NA
ATOM     31  C   UNL     1      -3.252  -9.931  11.567  0.00  0.00    -0.012 A 
ATOM     32  C   UNL     1      -2.931  -9.410  10.319  0.00  0.00    +0.008 A 
ATOM     33  C   UNL     1      -4.593 -10.012  11.909  0.00  0.00    +0.115 A 
ATOM     34  C   UNL     1      -3.945  -8.992   9.463  0.00  0.00    +0.020 A 
ATOM     35  C   UNL     1      -5.253  -9.116   9.900  0.00  0.00    +0.111 A 
ENDBRANCH  28  31
ENDBRANCH   8  28
ENDBRANCH  21  22
ENDBRANCH  18  21
ENDBRANCH  14  18
TORSDOF 7
ENDMDL
