MODEL 1
REMARK VINA RESULT:      -7.9      0.000      0.000
REMARK  Name = 11883399
REMARK  6 active torsions:
REMARK  status: ('A' for Active; 'I' for Inactive)
REMARK    1  A    between atoms: O_6  and  C_15
REMARK    2  A    between atoms: O_6  and  C_25
REMARK    3  A    between atoms: N_9  and  C_14
REMARK    4  A    between atoms: N_10  and  C_18
REMARK    5  A    between atoms: N_11  and  C_26
REMARK    6  A    between atoms: C_29  and  C_32
REMARK                            x       y       z     vdW  Elec       q    Type
REMARK                         _______ _______ _______ _____ _____    ______ ____
ROOT
ATOM      4  O   UNL     1      13.787   7.866  19.186  0.00  0.00    -0.368 OA
ATOM      5  O   UNL     1      10.792   8.028  19.823  0.00  0.00    -0.368 OA
ATOM     12  C   UNL     1      11.713   9.010  19.303  0.00  0.00    +0.173 C 
ATOM     13  C   UNL     1      13.039   8.782  20.001  0.00  0.00    +0.192 C 
ATOM     14  C   UNL     1      12.014   8.720  17.851  0.00  0.00    +0.131 C 
ATOM     15  C   UNL     1      12.616   8.152  21.307  0.00  0.00    +0.235 C 
ATOM     16  C   UNL     1      13.085   7.647  17.953  0.00  0.00    +0.185 C 
ATOM     17  C   UNL     1      11.435   7.307  20.885  0.00  0.00    +0.207 C 
ENDROOT
BRANCH  14   9
ATOM      7  O   UNL     1      12.918   8.883  15.127  0.00  0.00    -0.253 OA
ATOM      9  N   UNL     1      12.510   9.893  17.175  0.00  0.00    -0.292 N 
ATOM     10  N   UNL     1      13.359  11.140  15.439  0.00  0.00    -0.297 N 
ATOM     23  C   UNL     1      12.928   9.880  15.845  0.00  0.00    +0.300 C 
ATOM     33  H   UNL     1      12.618  10.752  17.704  0.00  0.00    +0.151 HD
ATOM     34  H   UNL     1      13.393  11.879  16.135  0.00  0.00    +0.151 HD
BRANCH  10  18
ATOM     18  C   UNL     1      13.847  11.418  14.105  0.00  0.00    +0.074 C 
ATOM     19  C   UNL     1      13.230  12.705  13.549  0.00  0.00    +0.022 C 
ATOM     20  C   UNL     1      15.378  11.482  14.083  0.00  0.00    +0.022 C 
ATOM     21  C   UNL     1      13.777  13.959  14.231  0.00  0.00    +0.002 C 
ATOM     22  C   UNL     1      15.923  12.737  14.764  0.00  0.00    +0.002 C 
ATOM     24  C   UNL     1      15.301  14.005  14.186  0.00  0.00    +0.000 C 
ENDBRANCH  10  18
ENDBRANCH  14   9
BRANCH  15   6
ATOM      6  O   UNL     1      13.629   7.383  21.915  0.00  0.00    -0.442 OA
BRANCH   6  25
ATOM      8  O   UNL     1      14.994   9.037  22.710  0.00  0.00    -0.226 OA
ATOM     11  N   UNL     1      15.834   7.242  21.463  0.00  0.00    -0.251 N 
ATOM     25  C   UNL     1      14.855   7.991  22.087  0.00  0.00    +0.405 C 
ATOM     35  H   UNL     1      15.521   6.396  20.993  0.00  0.00    +0.158 HD
BRANCH  11  26
ATOM     26  C   UNL     1      17.221   7.505  21.396  0.00  0.00    +0.037 A 
ATOM     27  C   UNL     1      18.117   6.468  21.136  0.00  0.00    +0.035 A 
ATOM     28  C   UNL     1      17.694   8.803  21.592  0.00  0.00    +0.023 A 
ATOM     29  C   UNL     1      19.486   6.729  21.071  0.00  0.00    +0.057 A 
ATOM     30  C   UNL     1      19.062   9.064  21.527  0.00  0.00    +0.002 A 
ATOM     31  C   UNL     1      19.958   8.027  21.266  0.00  0.00    +0.012 A 
BRANCH  29  32
ATOM      1  F   UNL     1      19.911   4.612  20.040  0.00  0.00    -0.166 F 
ATOM      2  F   UNL     1      21.559   6.020  20.111  0.00  0.00    -0.166 F 
ATOM      3  F   UNL     1      20.904   5.025  21.930  0.00  0.00    -0.166 F 
ATOM     32  C   UNL     1      20.444   5.621  20.792  0.00  0.00    +0.417 C 
ENDBRANCH  29  32
ENDBRANCH  11  26
ENDBRANCH   6  25
ENDBRANCH  15   6
TORSDOF 6
ENDMDL
MODEL 2
REMARK VINA RESULT:      -7.7     27.839     30.260
REMARK  Name = 11883399
REMARK  6 active torsions:
REMARK  status: ('A' for Active; 'I' for Inactive)
REMARK    1  A    between atoms: O_6  and  C_15
REMARK    2  A    between atoms: O_6  and  C_25
REMARK    3  A    between atoms: N_9  and  C_14
REMARK    4  A    between atoms: N_10  and  C_18
REMARK    5  A    between atoms: N_11  and  C_26
REMARK    6  A    between atoms: C_29  and  C_32
REMARK                            x       y       z     vdW  Elec       q    Type
REMARK                         _______ _______ _______ _____ _____    ______ ____
ROOT
ATOM      4  O   UNL     1      -6.116 -10.051  17.234  0.00  0.00    -0.368 OA
ATOM      5  O   UNL     1      -4.060 -12.080  18.262  0.00  0.00    -0.368 OA
ATOM     12  C   UNL     1      -4.697 -11.934  16.975  0.00  0.00    +0.173 C 
ATOM     13  C   UNL     1      -6.121 -11.488  17.239  0.00  0.00    +0.192 C 
ATOM     14  C   UNL     1      -4.088 -10.773  16.224  0.00  0.00    +0.131 C 
ATOM     15  C   UNL     1      -6.386 -12.041  18.619  0.00  0.00    +0.235 C 
ATOM     16  C   UNL     1      -4.823  -9.584  16.818  0.00  0.00    +0.185 C 
ATOM     17  C   UNL     1      -5.040 -11.880  19.291  0.00  0.00    +0.207 C 
ENDROOT
BRANCH  14   9
ATOM      7  O   UNL     1      -2.102 -10.927  14.151  0.00  0.00    -0.253 OA
ATOM      9  N   UNL     1      -4.327 -10.884  14.806  0.00  0.00    -0.292 N 
ATOM     10  N   UNL     1      -3.801 -11.056  12.574  0.00  0.00    -0.297 N 
ATOM     23  C   UNL     1      -3.298 -10.954  13.868  0.00  0.00    +0.300 C 
ATOM     33  H   UNL     1      -5.284 -10.847  14.468  0.00  0.00    +0.151 HD
ATOM     34  H   UNL     1      -4.807 -10.996  12.447  0.00  0.00    +0.151 HD
BRANCH  10  18
ATOM     18  C   UNL     1      -2.957 -11.145  11.402  0.00  0.00    +0.074 C 
ATOM     19  C   UNL     1      -3.631 -11.967  10.299  0.00  0.00    +0.022 C 
ATOM     20  C   UNL     1      -2.568  -9.751  10.897  0.00  0.00    +0.022 C 
ATOM     21  C   UNL     1      -4.801 -11.229   9.650  0.00  0.00    +0.002 C 
ATOM     22  C   UNL     1      -3.739  -9.015  10.247  0.00  0.00    +0.002 C 
ATOM     24  C   UNL     1      -4.387  -9.850   9.146  0.00  0.00    +0.000 C 
ENDBRANCH  10  18
ENDBRANCH  14   9
BRANCH  15   6
ATOM      6  O   UNL     1      -7.409 -11.362  19.311  0.00  0.00    -0.442 OA
BRANCH   6  25
ATOM      8  O   UNL     1      -9.247 -12.233  18.267  0.00  0.00    -0.226 OA
ATOM     11  N   UNL     1      -8.998  -9.929  18.598  0.00  0.00    -0.251 N 
ATOM     25  C   UNL     1      -8.629 -11.257  18.677  0.00  0.00    +0.405 C 
ATOM     35  H   UNL     1      -8.347  -9.258  18.998  0.00  0.00    +0.158 HD
BRANCH  11  26
ATOM     26  C   UNL     1     -10.170  -9.383  18.027  0.00  0.00    +0.037 A 
ATOM     27  C   UNL     1     -10.079  -8.334  17.113  0.00  0.00    +0.035 A 
ATOM     28  C   UNL     1     -11.420  -9.895  18.379  0.00  0.00    +0.023 A 
ATOM     29  C   UNL     1     -11.236  -7.796  16.550  0.00  0.00    +0.057 A 
ATOM     30  C   UNL     1     -12.577  -9.357  17.817  0.00  0.00    +0.002 A 
ATOM     31  C   UNL     1     -12.485  -8.307  16.902  0.00  0.00    +0.012 A 
BRANCH  29  32
ATOM      1  F   UNL     1      -9.889  -6.129  15.487  0.00  0.00    -0.166 F 
ATOM      2  F   UNL     1     -11.458  -7.034  14.294  0.00  0.00    -0.166 F 
ATOM      3  F   UNL     1     -11.970  -5.636  15.879  0.00  0.00    -0.166 F 
ATOM     32  C   UNL     1     -11.139  -6.674  15.573  0.00  0.00    +0.417 C 
ENDBRANCH  29  32
ENDBRANCH  11  26
ENDBRANCH   6  25
ENDBRANCH  15   6
TORSDOF 6
ENDMDL
MODEL 3
REMARK VINA RESULT:      -7.5      5.445     10.638
REMARK  Name = 11883399
REMARK  6 active torsions:
REMARK  status: ('A' for Active; 'I' for Inactive)
REMARK    1  A    between atoms: O_6  and  C_15
REMARK    2  A    between atoms: O_6  and  C_25
REMARK    3  A    between atoms: N_9  and  C_14
REMARK    4  A    between atoms: N_10  and  C_18
REMARK    5  A    between atoms: N_11  and  C_26
REMARK    6  A    between atoms: C_29  and  C_32
REMARK                            x       y       z     vdW  Elec       q    Type
REMARK                         _______ _______ _______ _____ _____    ______ ____
ROOT
ATOM      4  O   UNL     1      19.330   6.152  20.103  0.00  0.00    -0.368 OA
ATOM      5  O   UNL     1      18.909   8.181  22.363  0.00  0.00    -0.368 OA
ATOM     12  C   UNL     1      19.362   6.811  22.381  0.00  0.00    +0.173 C 
ATOM     13  C   UNL     1      18.570   6.073  21.320  0.00  0.00    +0.192 C 
ATOM     14  C   UNL     1      20.788   6.729  21.890  0.00  0.00    +0.131 C 
ATOM     15  C   UNL     1      17.298   6.884  21.239  0.00  0.00    +0.235 C 
ATOM     16  C   UNL     1      20.610   6.740  20.381  0.00  0.00    +0.185 C 
ATOM     17  C   UNL     1      17.804   8.293  21.454  0.00  0.00    +0.207 C 
ENDROOT
BRANCH  14   9
ATOM      7  O   UNL     1      23.595   6.117  21.771  0.00  0.00    -0.253 OA
ATOM      9  N   UNL     1      21.426   5.515  22.335  0.00  0.00    -0.292 N 
ATOM     10  N   UNL     1      23.156   4.053  22.738  0.00  0.00    -0.297 N 
ATOM     23  C   UNL     1      22.801   5.303  22.239  0.00  0.00    +0.300 C 
ATOM     33  H   UNL     1      20.846   4.755  22.676  0.00  0.00    +0.151 HD
ATOM     34  H   UNL     1      22.411   3.430  23.035  0.00  0.00    +0.151 HD
BRANCH  10  18
ATOM     18  C   UNL     1      24.519   3.569  22.764  0.00  0.00    +0.074 C 
ATOM     19  C   UNL     1      24.663   2.379  23.719  0.00  0.00    +0.022 C 
ATOM     20  C   UNL     1      25.003   3.212  21.354  0.00  0.00    +0.022 C 
ATOM     21  C   UNL     1      24.008   1.109  23.175  0.00  0.00    +0.002 C 
ATOM     22  C   UNL     1      24.347   1.942  20.814  0.00  0.00    +0.002 C 
ATOM     24  C   UNL     1      24.513   0.769  21.776  0.00  0.00    +0.000 C 
ENDBRANCH  10  18
ENDBRANCH  14   9
BRANCH  15   6
ATOM      6  O   UNL     1      16.620   6.745  20.011  0.00  0.00    -0.442 OA
BRANCH   6  25
ATOM      8  O   UNL     1      14.941   7.871  18.941  0.00  0.00    -0.226 OA
ATOM     11  N   UNL     1      14.676   7.044  21.116  0.00  0.00    -0.251 N 
ATOM     25  C   UNL     1      15.351   7.282  19.935  0.00  0.00    +0.405 C 
ATOM     35  H   UNL     1      15.188   6.534  21.831  0.00  0.00    +0.158 HD
BRANCH  11  26
ATOM     26  C   UNL     1      13.357   7.422  21.456  0.00  0.00    +0.037 A 
ATOM     27  C   UNL     1      13.101   8.705  21.939  0.00  0.00    +0.035 A 
ATOM     28  C   UNL     1      12.311   6.511  21.308  0.00  0.00    +0.023 A 
ATOM     29  C   UNL     1      11.799   9.077  22.275  0.00  0.00    +0.057 A 
ATOM     30  C   UNL     1      11.009   6.883  21.644  0.00  0.00    +0.002 A 
ATOM     31  C   UNL     1      10.754   8.166  22.127  0.00  0.00    +0.012 A 
BRANCH  29  32
ATOM      1  F   UNL     1      12.638  11.092  23.256  0.00  0.00    -0.166 F 
ATOM      2  F   UNL     1      10.995  11.290  21.854  0.00  0.00    -0.166 F 
ATOM      3  F   UNL     1      10.640  10.453  23.829  0.00  0.00    -0.166 F 
ATOM     32  C   UNL     1      11.526  10.449  22.791  0.00  0.00    +0.417 C 
ENDBRANCH  29  32
ENDBRANCH  11  26
ENDBRANCH   6  25
ENDBRANCH  15   6
TORSDOF 6
ENDMDL
MODEL 4
REMARK VINA RESULT:      -7.5     27.683     29.940
REMARK  Name = 11883399
REMARK  6 active torsions:
REMARK  status: ('A' for Active; 'I' for Inactive)
REMARK    1  A    between atoms: O_6  and  C_15
REMARK    2  A    between atoms: O_6  and  C_25
REMARK    3  A    between atoms: N_9  and  C_14
REMARK    4  A    between atoms: N_10  and  C_18
REMARK    5  A    between atoms: N_11  and  C_26
REMARK    6  A    between atoms: C_29  and  C_32
REMARK                            x       y       z     vdW  Elec       q    Type
REMARK                         _______ _______ _______ _____ _____    ______ ____
ROOT
ATOM      4  O   UNL     1      -9.652  -9.961  14.820  0.00  0.00    -0.368 OA
ATOM      5  O   UNL     1     -10.030  -8.660  17.571  0.00  0.00    -0.368 OA
ATOM     12  C   UNL     1     -10.017  -8.098  16.242  0.00  0.00    +0.173 C 
ATOM     13  C   UNL     1      -8.974  -8.863  15.452  0.00  0.00    +0.192 C 
ATOM     14  C   UNL     1     -11.312  -8.415  15.532  0.00  0.00    +0.131 C 
ATOM     15  C   UNL     1      -8.029  -9.336  16.531  0.00  0.00    +0.235 C 
ATOM     16  C   UNL     1     -11.067  -9.827  15.029  0.00  0.00    +0.185 C 
ATOM     17  C   UNL     1      -8.973  -9.625  17.677  0.00  0.00    +0.207 C 
ENDROOT
BRANCH  14   9
ATOM      7  O   UNL     1     -12.552  -5.826  15.692  0.00  0.00    -0.253 OA
ATOM      9  N   UNL     1     -11.548  -7.502  14.441  0.00  0.00    -0.292 N 
ATOM     10  N   UNL     1     -12.265  -5.579  13.402  0.00  0.00    -0.297 N 
ATOM     23  C   UNL     1     -12.158  -6.260  14.611  0.00  0.00    +0.300 C 
ATOM     33  H   UNL     1     -11.317  -7.799  13.498  0.00  0.00    +0.151 HD
ATOM     34  H   UNL     1     -11.973  -6.061  12.556  0.00  0.00    +0.151 HD
BRANCH  10  18
ATOM     18  C   UNL     1     -12.859  -4.265  13.282  0.00  0.00    +0.074 C 
ATOM     19  C   UNL     1     -12.122  -3.420  12.238  0.00  0.00    +0.022 C 
ATOM     20  C   UNL     1     -14.354  -4.364  12.962  0.00  0.00    +0.022 C 
ATOM     21  C   UNL     1     -12.388  -3.893  10.809  0.00  0.00    +0.002 C 
ATOM     22  C   UNL     1     -14.618  -4.835  11.533  0.00  0.00    +0.002 C 
ATOM     24  C   UNL     1     -13.882  -3.973  10.511  0.00  0.00    +0.000 C 
ENDBRANCH  10  18
ENDBRANCH  14   9
BRANCH  15   6
ATOM      6  O   UNL     1      -7.277 -10.470  16.164  0.00  0.00    -0.442 OA
BRANCH   6  25
ATOM      8  O   UNL     1      -5.164  -9.660  16.488  0.00  0.00    -0.226 OA
ATOM     11  N   UNL     1      -5.754 -10.808  14.534  0.00  0.00    -0.251 N 
ATOM     25  C   UNL     1      -5.969 -10.256  15.782  0.00  0.00    +0.405 C 
ATOM     35  H   UNL     1      -6.552 -11.266  14.103  0.00  0.00    +0.158 HD
BRANCH  11  26
ATOM     26  C   UNL     1      -4.559 -10.813  13.779  0.00  0.00    +0.037 A 
ATOM     27  C   UNL     1      -4.508 -10.158  12.549  0.00  0.00    +0.035 A 
ATOM     28  C   UNL     1      -3.431 -11.475  14.265  0.00  0.00    +0.023 A 
ATOM     29  C   UNL     1      -3.328 -10.165  11.805  0.00  0.00    +0.057 A 
ATOM     30  C   UNL     1      -2.252 -11.482  13.521  0.00  0.00    +0.002 A 
ATOM     31  C   UNL     1      -2.201 -10.827  12.290  0.00  0.00    +0.012 A 
BRANCH  29  32
ATOM      1  F   UNL     1      -2.046  -8.938  10.200  0.00  0.00    -0.166 F 
ATOM      2  F   UNL     1      -3.572 -10.270   9.427  0.00  0.00    -0.166 F 
ATOM      3  F   UNL     1      -4.147  -8.419  10.413  0.00  0.00    -0.166 F 
ATOM     32  C   UNL     1      -3.273  -9.465  10.489  0.00  0.00    +0.417 C 
ENDBRANCH  29  32
ENDBRANCH  11  26
ENDBRANCH   6  25
ENDBRANCH  15   6
TORSDOF 6
ENDMDL
MODEL 5
REMARK VINA RESULT:      -7.5      5.485      6.955
REMARK  Name = 11883399
REMARK  6 active torsions:
REMARK  status: ('A' for Active; 'I' for Inactive)
REMARK    1  A    between atoms: O_6  and  C_15
REMARK    2  A    between atoms: O_6  and  C_25
REMARK    3  A    between atoms: N_9  and  C_14
REMARK    4  A    between atoms: N_10  and  C_18
REMARK    5  A    between atoms: N_11  and  C_26
REMARK    6  A    between atoms: C_29  and  C_32
REMARK                            x       y       z     vdW  Elec       q    Type
REMARK                         _______ _______ _______ _____ _____    ______ ____
ROOT
ATOM      4  O   UNL     1      13.748   9.678  19.989  0.00  0.00    -0.368 OA
ATOM      5  O   UNL     1      13.174   7.079  18.467  0.00  0.00    -0.368 OA
ATOM     12  C   UNL     1      12.830   8.450  18.180  0.00  0.00    +0.173 C 
ATOM     13  C   UNL     1      12.518   9.113  19.507  0.00  0.00    +0.192 C 
ATOM     14  C   UNL     1      14.045   9.196  17.680  0.00  0.00    +0.131 C 
ATOM     15  C   UNL     1      12.068   7.947  20.356  0.00  0.00    +0.235 C 
ATOM     16  C   UNL     1      14.755   9.557  18.973  0.00  0.00    +0.185 C 
ATOM     17  C   UNL     1      12.964   6.831  19.866  0.00  0.00    +0.207 C 
ENDROOT
BRANCH  14   9
ATOM      7  O   UNL     1      14.631   9.759  14.922  0.00  0.00    -0.253 OA
ATOM      9  N   UNL     1      13.667  10.375  16.940  0.00  0.00    -0.292 N 
ATOM     10  N   UNL     1      13.513  11.783  15.128  0.00  0.00    -0.297 N 
ATOM     23  C   UNL     1      13.996  10.565  15.599  0.00  0.00    +0.300 C 
ATOM     33  H   UNL     1      13.197  11.129  17.431  0.00  0.00    +0.151 HD
ATOM     34  H   UNL     1      13.064  12.406  15.792  0.00  0.00    +0.151 HD
BRANCH  10  18
ATOM     18  C   UNL     1      13.708  12.239  13.768  0.00  0.00    +0.074 C 
ATOM     19  C   UNL     1      12.588  13.193  13.341  0.00  0.00    +0.022 C 
ATOM     20  C   UNL     1      15.086  12.889  13.598  0.00  0.00    +0.022 C 
ATOM     21  C   UNL     1      12.685  14.555  14.028  0.00  0.00    +0.002 C 
ATOM     22  C   UNL     1      15.180  14.251  14.284  0.00  0.00    +0.002 C 
ATOM     24  C   UNL     1      14.061  15.186  13.835  0.00  0.00    +0.000 C 
ENDBRANCH  10  18
ENDBRANCH  14   9
BRANCH  15   6
ATOM      6  O   UNL     1      12.209   8.172  21.740  0.00  0.00    -0.442 OA
BRANCH   6  25
ATOM      8  O   UNL     1      10.105   8.811  22.370  0.00  0.00    -0.226 OA
ATOM     11  N   UNL     1      11.982  10.136  22.825  0.00  0.00    -0.251 N 
ATOM     25  C   UNL     1      11.309   9.038  22.327  0.00  0.00    +0.405 C 
ATOM     35  H   UNL     1      12.990  10.144  22.691  0.00  0.00    +0.158 HD
BRANCH  11  26
ATOM     26  C   UNL     1      11.442  11.255  23.498  0.00  0.00    +0.037 A 
ATOM     27  C   UNL     1      10.926  12.327  22.770  0.00  0.00    +0.035 A 
ATOM     28  C   UNL     1      11.426  11.287  24.893  0.00  0.00    +0.023 A 
ATOM     29  C   UNL     1      10.394  13.431  23.436  0.00  0.00    +0.057 A 
ATOM     30  C   UNL     1      10.894  12.391  25.559  0.00  0.00    +0.002 A 
ATOM     31  C   UNL     1      10.378  13.463  24.830  0.00  0.00    +0.012 A 
BRANCH  29  32
ATOM      1  F   UNL     1       9.423  14.236  21.403  0.00  0.00    -0.166 F 
ATOM      2  F   UNL     1       8.760  15.167  23.246  0.00  0.00    -0.166 F 
ATOM      3  F   UNL     1      10.753  15.578  22.479  0.00  0.00    -0.166 F 
ATOM     32  C   UNL     1       9.843  14.577  22.658  0.00  0.00    +0.417 C 
ENDBRANCH  29  32
ENDBRANCH  11  26
ENDBRANCH   6  25
ENDBRANCH  15   6
TORSDOF 6
ENDMDL
MODEL 6
REMARK VINA RESULT:      -7.4      3.874      5.712
REMARK  Name = 11883399
REMARK  6 active torsions:
REMARK  status: ('A' for Active; 'I' for Inactive)
REMARK    1  A    between atoms: O_6  and  C_15
REMARK    2  A    between atoms: O_6  and  C_25
REMARK    3  A    between atoms: N_9  and  C_14
REMARK    4  A    between atoms: N_10  and  C_18
REMARK    5  A    between atoms: N_11  and  C_26
REMARK    6  A    between atoms: C_29  and  C_32
REMARK                            x       y       z     vdW  Elec       q    Type
REMARK                         _______ _______ _______ _____ _____    ______ ____
ROOT
ATOM      4  O   UNL     1      12.825   8.954  19.433  0.00  0.00    -0.368 OA
ATOM      5  O   UNL     1      11.903   7.083  21.681  0.00  0.00    -0.368 OA
ATOM     12  C   UNL     1      12.382   8.444  21.707  0.00  0.00    +0.173 C 
ATOM     13  C   UNL     1      13.466   8.548  20.653  0.00  0.00    +0.192 C 
ATOM     14  C   UNL     1      11.306   9.382  21.212  0.00  0.00    +0.131 C 
ATOM     15  C   UNL     1      13.979   7.129  20.571  0.00  0.00    +0.235 C 
ATOM     16  C   UNL     1      11.450   9.270  19.704  0.00  0.00    +0.185 C 
ATOM     17  C   UNL     1      12.715   6.322  20.774  0.00  0.00    +0.207 C 
ENDROOT
BRANCH  14   9
ATOM      7  O   UNL     1      10.653  10.470  23.792  0.00  0.00    -0.253 OA
ATOM      9  N   UNL     1      11.539  10.731  21.663  0.00  0.00    -0.292 N 
ATOM     10  N   UNL     1      11.522  12.513  23.118  0.00  0.00    -0.297 N 
ATOM     23  C   UNL     1      11.189  11.174  22.938  0.00  0.00    +0.300 C 
ATOM     33  H   UNL     1      11.917  11.407  21.007  0.00  0.00    +0.151 HD
ATOM     34  H   UNL     1      11.896  13.022  22.321  0.00  0.00    +0.151 HD
BRANCH  10  18
ATOM     18  C   UNL     1      11.273  13.234  24.347  0.00  0.00    +0.074 C 
ATOM     19  C   UNL     1      12.485  13.166  25.282  0.00  0.00    +0.022 C 
ATOM     20  C   UNL     1      10.872  14.685  24.063  0.00  0.00    +0.022 C 
ATOM     21  C   UNL     1      13.656  14.014  24.784  0.00  0.00    +0.002 C 
ATOM     22  C   UNL     1      12.045  15.531  23.567  0.00  0.00    +0.002 C 
ATOM     24  C   UNL     1      13.235  15.455  24.519  0.00  0.00    +0.000 C 
ENDBRANCH  10  18
ENDBRANCH  14   9
BRANCH  15   6
ATOM      6  O   UNL     1      14.608   6.829  19.346  0.00  0.00    -0.442 OA
BRANCH   6  25
ATOM      8  O   UNL     1      16.497   5.747  18.642  0.00  0.00    -0.226 OA
ATOM     11  N   UNL     1      16.555   7.324  20.372  0.00  0.00    -0.251 N 
ATOM     25  C   UNL     1      15.960   6.558  19.389  0.00  0.00    +0.405 C 
ATOM     35  H   UNL     1      15.939   7.944  20.893  0.00  0.00    +0.158 HD
BRANCH  11  26
ATOM     26  C   UNL     1      17.918   7.355  20.747  0.00  0.00    +0.037 A 
ATOM     27  C   UNL     1      18.710   6.218  20.592  0.00  0.00    +0.035 A 
ATOM     28  C   UNL     1      18.469   8.524  21.273  0.00  0.00    +0.023 A 
ATOM     29  C   UNL     1      20.055   6.250  20.962  0.00  0.00    +0.057 A 
ATOM     30  C   UNL     1      19.813   8.555  21.644  0.00  0.00    +0.002 A 
ATOM     31  C   UNL     1      20.606   7.418  21.488  0.00  0.00    +0.012 A 
BRANCH  29  32
ATOM      1  F   UNL     1      22.030   5.249  20.055  0.00  0.00    -0.166 F 
ATOM      2  F   UNL     1      21.348   4.512  21.977  0.00  0.00    -0.166 F 
ATOM      3  F   UNL     1      20.244   4.015  20.172  0.00  0.00    -0.166 F 
ATOM     32  C   UNL     1      20.902   5.034  20.796  0.00  0.00    +0.417 C 
ENDBRANCH  29  32
ENDBRANCH  11  26
ENDBRANCH   6  25
ENDBRANCH  15   6
TORSDOF 6
ENDMDL
MODEL 7
REMARK VINA RESULT:      -7.3      4.251      6.537
REMARK  Name = 11883399
REMARK  6 active torsions:
REMARK  status: ('A' for Active; 'I' for Inactive)
REMARK    1  A    between atoms: O_6  and  C_15
REMARK    2  A    between atoms: O_6  and  C_25
REMARK    3  A    between atoms: N_9  and  C_14
REMARK    4  A    between atoms: N_10  and  C_18
REMARK    5  A    between atoms: N_11  and  C_26
REMARK    6  A    between atoms: C_29  and  C_32
REMARK                            x       y       z     vdW  Elec       q    Type
REMARK                         _______ _______ _______ _____ _____    ______ ____
ROOT
ATOM      4  O   UNL     1      16.543   8.947  20.509  0.00  0.00    -0.368 OA
ATOM      5  O   UNL     1      14.965   6.397  19.866  0.00  0.00    -0.368 OA
ATOM     12  C   UNL     1      14.939   7.274  21.012  0.00  0.00    +0.173 C 
ATOM     13  C   UNL     1      16.365   7.729  21.250  0.00  0.00    +0.192 C 
ATOM     14  C   UNL     1      14.205   8.549  20.674  0.00  0.00    +0.131 C 
ATOM     15  C   UNL     1      17.172   6.594  20.663  0.00  0.00    +0.235 C 
ATOM     16  C   UNL     1      15.278   9.362  19.971  0.00  0.00    +0.185 C 
ATOM     17  C   UNL     1      16.330   6.187  19.474  0.00  0.00    +0.207 C 
ENDROOT
BRANCH  14   9
ATOM      7  O   UNL     1      11.738   9.996  20.978  0.00  0.00    -0.253 OA
ATOM      9  N   UNL     1      13.736   9.216  21.864  0.00  0.00    -0.292 N 
ATOM     10  N   UNL     1      12.309  10.447  23.182  0.00  0.00    -0.297 N 
ATOM     23  C   UNL     1      12.520   9.896  21.921  0.00  0.00    +0.300 C 
ATOM     33  H   UNL     1      14.342   9.246  22.677  0.00  0.00    +0.151 HD
ATOM     34  H   UNL     1      13.054  10.366  23.868  0.00  0.00    +0.151 HD
BRANCH  10  18
ATOM     18  C   UNL     1      11.127  11.208  23.526  0.00  0.00    +0.074 C 
ATOM     19  C   UNL     1      11.081  11.506  25.028  0.00  0.00    +0.022 C 
ATOM     20  C   UNL     1      11.043  12.496  22.700  0.00  0.00    +0.022 C 
ATOM     21  C   UNL     1      12.120  12.545  25.450  0.00  0.00    +0.002 C 
ATOM     22  C   UNL     1      12.082  13.534  23.125  0.00  0.00    +0.002 C 
ATOM     24  C   UNL     1      12.009  13.822  24.622  0.00  0.00    +0.000 C 
ENDBRANCH  10  18
ENDBRANCH  14   9
BRANCH  15   6
ATOM      6  O   UNL     1      18.477   6.969  20.285  0.00  0.00    -0.442 OA
BRANCH   6  25
ATOM      8  O   UNL     1      19.665   6.619  22.208  0.00  0.00    -0.226 OA
ATOM     11  N   UNL     1      20.308   5.657  20.172  0.00  0.00    -0.251 N 
ATOM     25  C   UNL     1      19.517   6.421  21.007  0.00  0.00    +0.405 C 
ATOM     35  H   UNL     1      20.022   5.613  19.198  0.00  0.00    +0.158 HD
BRANCH  11  26
ATOM     26  C   UNL     1      21.471   4.925  20.504  0.00  0.00    +0.037 A 
ATOM     27  C   UNL     1      22.732   5.460  20.240  0.00  0.00    +0.035 A 
ATOM     28  C   UNL     1      21.357   3.667  21.096  0.00  0.00    +0.023 A 
ATOM     29  C   UNL     1      23.879   4.737  20.567  0.00  0.00    +0.057 A 
ATOM     30  C   UNL     1      22.504   2.944  21.423  0.00  0.00    +0.002 A 
ATOM     31  C   UNL     1      23.765   3.480  21.159  0.00  0.00    +0.012 A 
BRANCH  29  32
ATOM      1  F   UNL     1      26.194   4.887  21.153  0.00  0.00    -0.166 F 
ATOM      2  F   UNL     1      25.704   4.997  19.043  0.00  0.00    -0.166 F 
ATOM      3  F   UNL     1      25.244   6.672  20.352  0.00  0.00    -0.166 F 
ATOM     32  C   UNL     1      25.227   5.309  20.285  0.00  0.00    +0.417 C 
ENDBRANCH  29  32
ENDBRANCH  11  26
ENDBRANCH   6  25
ENDBRANCH  15   6
TORSDOF 6
ENDMDL
MODEL 8
REMARK VINA RESULT:      -7.3      5.251     10.972
REMARK  Name = 11883399
REMARK  6 active torsions:
REMARK  status: ('A' for Active; 'I' for Inactive)
REMARK    1  A    between atoms: O_6  and  C_15
REMARK    2  A    between atoms: O_6  and  C_25
REMARK    3  A    between atoms: N_9  and  C_14
REMARK    4  A    between atoms: N_10  and  C_18
REMARK    5  A    between atoms: N_11  and  C_26
REMARK    6  A    between atoms: C_29  and  C_32
REMARK                            x       y       z     vdW  Elec       q    Type
REMARK                         _______ _______ _______ _____ _____    ______ ____
ROOT
ATOM      4  O   UNL     1      20.450   6.600  20.358  0.00  0.00    -0.368 OA
ATOM      5  O   UNL     1      19.647   8.054  22.935  0.00  0.00    -0.368 OA
ATOM     12  C   UNL     1      20.090   6.701  22.700  0.00  0.00    +0.173 C 
ATOM     13  C   UNL     1      19.492   6.268  21.376  0.00  0.00    +0.192 C 
ATOM     14  C   UNL     1      21.579   6.678  22.448  0.00  0.00    +0.131 C 
ATOM     15  C   UNL     1      18.253   7.127  21.280  0.00  0.00    +0.235 C 
ATOM     16  C   UNL     1      21.664   7.051  20.979  0.00  0.00    +0.185 C 
ATOM     17  C   UNL     1      18.716   8.423  21.908  0.00  0.00    +0.207 C 
ENDROOT
BRANCH  14   9
ATOM      7  O   UNL     1      24.363   6.000  22.687  0.00  0.00    -0.253 OA
ATOM      9  N   UNL     1      22.131   5.367  22.690  0.00  0.00    -0.292 N 
ATOM     10  N   UNL     1      23.764   3.783  23.026  0.00  0.00    -0.297 N 
ATOM     23  C   UNL     1      23.501   5.130  22.792  0.00  0.00    +0.300 C 
ATOM     33  H   UNL     1      21.501   4.572  22.726  0.00  0.00    +0.151 HD
ATOM     34  H   UNL     1      22.980   3.137  23.024  0.00  0.00    +0.151 HD
BRANCH  10  18
ATOM     18  C   UNL     1      25.102   3.252  23.176  0.00  0.00    +0.074 C 
ATOM     19  C   UNL     1      25.097   1.975  24.022  0.00  0.00    +0.022 C 
ATOM     20  C   UNL     1      25.754   3.011  21.810  0.00  0.00    +0.022 C 
ATOM     21  C   UNL     1      24.488   0.784  23.281  0.00  0.00    +0.002 C 
ATOM     22  C   UNL     1      25.144   1.820  21.072  0.00  0.00    +0.002 C 
ATOM     24  C   UNL     1      25.160   0.558  21.930  0.00  0.00    +0.000 C 
ENDBRANCH  10  18
ENDBRANCH  14   9
BRANCH  15   6
ATOM      6  O   UNL     1      17.796   7.310  19.960  0.00  0.00    -0.442 OA
BRANCH   6  25
ATOM      8  O   UNL     1      16.099   5.900  19.358  0.00  0.00    -0.226 OA
ATOM     11  N   UNL     1      15.699   8.137  19.920  0.00  0.00    -0.251 N 
ATOM     25  C   UNL     1      16.472   7.013  19.710  0.00  0.00    +0.405 C 
ATOM     35  H   UNL     1      16.194   8.976  20.212  0.00  0.00    +0.158 HD
BRANCH  11  26
ATOM     26  C   UNL     1      14.298   8.269  19.778  0.00  0.00    +0.037 A 
ATOM     27  C   UNL     1      13.447   7.796  20.777  0.00  0.00    +0.035 A 
ATOM     28  C   UNL     1      13.768   8.872  18.637  0.00  0.00    +0.023 A 
ATOM     29  C   UNL     1      12.066   7.926  20.635  0.00  0.00    +0.057 A 
ATOM     30  C   UNL     1      12.386   9.003  18.496  0.00  0.00    +0.002 A 
ATOM     31  C   UNL     1      11.536   8.529  19.496  0.00  0.00    +0.012 A 
BRANCH  29  32
ATOM      1  F   UNL     1      11.366   6.110  22.027  0.00  0.00    -0.166 F 
ATOM      2  F   UNL     1      11.268   8.100  22.884  0.00  0.00    -0.166 F 
ATOM      3  F   UNL     1       9.839   7.506  21.356  0.00  0.00    -0.166 F 
ATOM     32  C   UNL     1      11.156   7.421  21.703  0.00  0.00    +0.417 C 
ENDBRANCH  29  32
ENDBRANCH  11  26
ENDBRANCH   6  25
ENDBRANCH  15   6
TORSDOF 6
ENDMDL
MODEL 9
REMARK VINA RESULT:      -7.3     24.254     26.707
REMARK  Name = 11883399
REMARK  6 active torsions:
REMARK  status: ('A' for Active; 'I' for Inactive)
REMARK    1  A    between atoms: O_6  and  C_15
REMARK    2  A    between atoms: O_6  and  C_25
REMARK    3  A    between atoms: N_9  and  C_14
REMARK    4  A    between atoms: N_10  and  C_18
REMARK    5  A    between atoms: N_11  and  C_26
REMARK    6  A    between atoms: C_29  and  C_32
REMARK                            x       y       z     vdW  Elec       q    Type
REMARK                         _______ _______ _______ _____ _____    ______ ____
ROOT
ATOM      4  O   UNL     1      20.628  -8.758   0.324  0.00  0.00    -0.368 OA
ATOM      5  O   UNL     1      22.196  -8.644   2.956  0.00  0.00    -0.368 OA
ATOM     12  C   UNL     1      20.856  -9.091   2.661  0.00  0.00    +0.173 C 
ATOM     13  C   UNL     1      20.309  -8.165   1.593  0.00  0.00    +0.192 C 
ATOM     14  C   UNL     1      20.898 -10.440   1.982  0.00  0.00    +0.131 C 
ATOM     15  C   UNL     1      21.093  -6.895   1.830  0.00  0.00    +0.235 C 
ATOM     16  C   UNL     1      21.182 -10.065   0.537  0.00  0.00    +0.185 C 
ATOM     17  C   UNL     1      22.449  -7.429   2.235  0.00  0.00    +0.207 C 
ENDROOT
BRANCH  14   9
ATOM      7  O   UNL     1      20.238 -12.487   3.890  0.00  0.00    -0.253 OA
ATOM      9  N   UNL     1      19.637 -11.129   2.108  0.00  0.00    -0.292 N 
ATOM     10  N   UNL     1      18.110 -12.615   2.973  0.00  0.00    -0.297 N 
ATOM     23  C   UNL     1      19.404 -12.113   3.068  0.00  0.00    +0.300 C 
ATOM     33  H   UNL     1      18.906 -10.936   1.430  0.00  0.00    +0.151 HD
ATOM     34  H   UNL     1      17.526 -12.286   2.209  0.00  0.00    +0.151 HD
BRANCH  10  18
ATOM     18  C   UNL     1      17.595 -13.647   3.846  0.00  0.00    +0.074 C 
ATOM     19  C   UNL     1      17.141 -13.060   5.186  0.00  0.00    +0.022 C 
ATOM     20  C   UNL     1      16.462 -14.426   3.169  0.00  0.00    +0.022 C 
ATOM     21  C   UNL     1      15.856 -12.241   5.061  0.00  0.00    +0.002 C 
ATOM     22  C   UNL     1      15.178 -13.606   3.046  0.00  0.00    +0.002 C 
ATOM     24  C   UNL     1      14.741 -13.041   4.394  0.00  0.00    +0.000 C 
ENDBRANCH  10  18
ENDBRANCH  14   9
BRANCH  15   6
ATOM      6  O   UNL     1      21.168  -6.061   0.696  0.00  0.00    -0.442 OA
BRANCH   6  25
ATOM      8  O   UNL     1      19.432  -4.713   1.330  0.00  0.00    -0.226 OA
ATOM     11  N   UNL     1      19.866  -5.182  -0.922  0.00  0.00    -0.251 N 
ATOM     25  C   UNL     1      20.077  -5.256   0.440  0.00  0.00    +0.405 C 
ATOM     35  H   UNL     1      20.513  -5.706  -1.506  0.00  0.00    +0.158 HD
BRANCH  11  26
ATOM     26  C   UNL     1      18.859  -4.467  -1.610  0.00  0.00    +0.037 A 
ATOM     27  C   UNL     1      17.809  -5.151  -2.221  0.00  0.00    +0.035 A 
ATOM     28  C   UNL     1      18.917  -3.074  -1.677  0.00  0.00    +0.023 A 
ATOM     29  C   UNL     1      16.816  -4.445  -2.899  0.00  0.00    +0.057 A 
ATOM     30  C   UNL     1      17.924  -2.367  -2.355  0.00  0.00    +0.002 A 
ATOM     31  C   UNL     1      16.874  -3.053  -2.966  0.00  0.00    +0.012 A 
BRANCH  29  32
ATOM      1  F   UNL     1      14.457  -4.739  -3.168  0.00  0.00    -0.166 F 
ATOM      2  F   UNL     1      15.697  -5.082  -4.914  0.00  0.00    -0.166 F 
ATOM      3  F   UNL     1      15.708  -6.514  -3.279  0.00  0.00    -0.166 F 
ATOM     32  C   UNL     1      15.693  -5.177  -3.552  0.00  0.00    +0.417 C 
ENDBRANCH  29  32
ENDBRANCH  11  26
ENDBRANCH   6  25
ENDBRANCH  15   6
TORSDOF 6
ENDMDL
MODEL 10
REMARK VINA RESULT:      -7.3      5.345      6.856
REMARK  Name = 11883399
REMARK  6 active torsions:
REMARK  status: ('A' for Active; 'I' for Inactive)
REMARK    1  A    between atoms: O_6  and  C_15
REMARK    2  A    between atoms: O_6  and  C_25
REMARK    3  A    between atoms: N_9  and  C_14
REMARK    4  A    between atoms: N_10  and  C_18
REMARK    5  A    between atoms: N_11  and  C_26
REMARK    6  A    between atoms: C_29  and  C_32
REMARK                            x       y       z     vdW  Elec       q    Type
REMARK                         _______ _______ _______ _____ _____    ______ ____
ROOT
ATOM      4  O   UNL     1      13.351   9.719  19.337  0.00  0.00    -0.368 OA
ATOM      5  O   UNL     1      12.404   6.994  18.298  0.00  0.00    -0.368 OA
ATOM     12  C   UNL     1      12.093   8.338  17.876  0.00  0.00    +0.173 C 
ATOM     13  C   UNL     1      12.032   9.189  19.129  0.00  0.00    +0.192 C 
ATOM     14  C   UNL     1      13.251   8.920  17.101  0.00  0.00    +0.131 C 
ATOM     15  C   UNL     1      11.660   8.180  20.190  0.00  0.00    +0.235 C 
ATOM     16  C   UNL     1      14.177   9.392  18.209  0.00  0.00    +0.185 C 
ATOM     17  C   UNL     1      12.406   6.946  19.732  0.00  0.00    +0.207 C 
ENDROOT
BRANCH  14   9
ATOM      7  O   UNL     1      14.715  10.099  14.924  0.00  0.00    -0.253 OA
ATOM      9  N   UNL     1      12.826  10.019  16.269  0.00  0.00    -0.292 N 
ATOM     10  N   UNL     1      12.962  11.582  14.587  0.00  0.00    -0.297 N 
ATOM     23  C   UNL     1      13.604  10.528  15.230  0.00  0.00    +0.300 C 
ATOM     33  H   UNL     1      11.950  10.484  16.485  0.00  0.00    +0.151 HD
ATOM     34  H   UNL     1      12.076  11.904  14.968  0.00  0.00    +0.151 HD
BRANCH  10  18
ATOM     18  C   UNL     1      13.540  12.299  13.471  0.00  0.00    +0.074 C 
ATOM     19  C   UNL     1      12.491  12.571  12.388  0.00  0.00    +0.022 C 
ATOM     20  C   UNL     1      14.207  13.598  13.937  0.00  0.00    +0.022 C 
ATOM     21  C   UNL     1      11.477  13.636  12.809  0.00  0.00    +0.002 C 
ATOM     22  C   UNL     1      13.191  14.661  14.356  0.00  0.00    +0.002 C 
ATOM     24  C   UNL     1      12.164  14.921  13.258  0.00  0.00    +0.000 C 
ENDBRANCH  10  18
ENDBRANCH  14   9
BRANCH  15   6
ATOM      6  O   UNL     1      12.031   8.571  21.493  0.00  0.00    -0.442 OA
BRANCH   6  25
ATOM      8  O   UNL     1      10.201   9.306  22.651  0.00  0.00    -0.226 OA
ATOM     11  N   UNL     1      11.886  10.774  21.953  0.00  0.00    -0.251 N 
ATOM     25  C   UNL     1      11.264   9.549  22.093  0.00  0.00    +0.405 C 
ATOM     35  H   UNL     1      12.771  10.775  21.454  0.00  0.00    +0.158 HD
BRANCH  11  26
ATOM     26  C   UNL     1      11.443  12.033  22.420  0.00  0.00    +0.037 A 
ATOM     27  C   UNL     1      11.465  12.320  23.784  0.00  0.00    +0.035 A 
ATOM     28  C   UNL     1      10.982  12.989  21.513  0.00  0.00    +0.023 A 
ATOM     29  C   UNL     1      11.026  13.562  24.243  0.00  0.00    +0.057 A 
ATOM     30  C   UNL     1      10.544  14.231  21.972  0.00  0.00    +0.002 A 
ATOM     31  C   UNL     1      10.567  14.517  23.338  0.00  0.00    +0.012 A 
BRANCH  29  32
ATOM      1  F   UNL     1      12.235  13.558  26.308  0.00  0.00    -0.166 F 
ATOM      2  F   UNL     1      10.840  15.188  25.988  0.00  0.00    -0.166 F 
ATOM      3  F   UNL     1      10.094  13.187  26.398  0.00  0.00    -0.166 F 
ATOM     32  C   UNL     1      11.050  13.868  25.702  0.00  0.00    +0.417 C 
ENDBRANCH  29  32
ENDBRANCH  11  26
ENDBRANCH   6  25
ENDBRANCH  15   6
TORSDOF 6
ENDMDL
