MODEL 1
REMARK VINA RESULT:      -6.3      0.000      0.000
REMARK  Name = 45784160
REMARK  11 active torsions:
REMARK  status: ('A' for Active; 'I' for Inactive)
REMARK    1  A    between atoms: N_3  and  C_13
REMARK    2  A    between atoms: N_6  and  C_29
REMARK    3  A    between atoms: C_8  and  C_12
REMARK    4  A    between atoms: C_9  and  C_13
REMARK    5  A    between atoms: C_11  and  C_19
REMARK    6  A    between atoms: C_12  and  C_21
REMARK    7  A    between atoms: C_12  and  C_22
REMARK    8  A    between atoms: C_14  and  C_23
REMARK    9  A    between atoms: C_15  and  C_20
REMARK   10  A    between atoms: C_19  and  C_24
REMARK   11  A    between atoms: C_25  and  C_26
REMARK                            x       y       z     vdW  Elec       q    Type
REMARK                         _______ _______ _______ _____ _____    ______ ____
ROOT
ATOM      8  C   UNL     1      20.570   5.745  21.877  0.00  0.00    +0.000 C 
ATOM      9  C   UNL     1      21.079   6.986  22.653  0.00  0.00    +0.032 C 
ATOM     10  C   UNL     1      19.825   6.175  20.605  0.00  0.00    +0.012 C 
ATOM     11  C   UNL     1      18.621   7.085  20.915  0.00  0.00    +0.024 C 
ATOM     14  C   UNL     1      18.983   8.185  21.892  0.00  0.00    -0.073 C 
ATOM     16  C   UNL     1      20.093   8.129  22.651  0.00  0.00    -0.022 C 
ATOM     23  C   UNL     1      18.064   9.373  21.946  0.00  0.00    +0.039 C 
ENDROOT
BRANCH   8  12
ATOM     12  C   UNL     1      21.714   4.794  21.511  0.00  0.00    -0.013 C 
ATOM     21  C   UNL     1      21.162   3.482  20.963  0.00  0.00    +0.007 C 
ATOM     22  C   UNL     1      22.651   5.451  20.502  0.00  0.00    +0.007 C 
ENDBRANCH   8  12
BRANCH   9  13
ATOM     13  C   UNL     1      21.441   6.625  24.097  0.00  0.00    +0.112 C 
BRANCH  13   3
ATOM      1  O   UNL     1      19.950   6.300  26.573  0.00  0.00    -0.276 OA
ATOM      3  N   UNL     1      21.014   7.649  24.999  0.00  0.00    -0.315 N 
ATOM     20  C   UNL     1      20.301   7.401  26.166  0.00  0.00    +0.216 C 
ATOM     30  H   UNL     1      21.284   8.609  24.798  0.00  0.00    +0.149 HD
BRANCH  20  15
ATOM     15  C   UNL     1      19.961   8.621  26.957  0.00  0.00    +0.075 C 
ATOM     17  C   UNL     1      20.815   8.987  28.136  0.00  0.00    +0.013 C 
ATOM     18  C   UNL     1      20.867   9.815  26.885  0.00  0.00    +0.013 C 
ENDBRANCH  20  15
ENDBRANCH  13   3
ENDBRANCH   9  13
BRANCH  11  19
ATOM     19  C   UNL     1      17.428   6.268  21.425  0.00  0.00    +0.105 C 
BRANCH  19  24
ATOM      2  O   UNL     1      15.252   7.365  21.317  0.00  0.00    -0.419 OA
ATOM      4  N   UNL     1      15.813   6.260  19.455  0.00  0.00    -0.112 NA
ATOM      5  N   UNL     1      14.569   6.828  19.255  0.00  0.00    -0.106 NA
ATOM     24  C   UNL     1      16.173   6.600  20.670  0.00  0.00    +0.218 A 
ATOM     25  C   UNL     1      14.281   7.463  20.367  0.00  0.00    +0.266 A 
BRANCH  25  26
ATOM      6  N   UNL     1      11.894   7.626  20.971  0.00  0.00    -0.329 N 
ATOM      7  N   UNL     1      11.491   9.794  20.707  0.00  0.00    -0.243 NA
ATOM     26  C   UNL     1      13.076   8.180  20.564  0.00  0.00    +0.125 A 
ATOM     27  C   UNL     1      12.801   9.518  20.407  0.00  0.00    +0.143 A 
ATOM     28  C   UNL     1      10.973   8.633  21.043  0.00  0.00    +0.199 A 
ATOM     29  C   UNL     1      11.640   6.237  21.277  0.00  0.00    +0.150 C 
ENDBRANCH  25  26
ENDBRANCH  19  24
ENDBRANCH  11  19
TORSDOF 7
ENDMDL
MODEL 2
REMARK VINA RESULT:      -6.2     28.535     31.314
REMARK  Name = 45784160
REMARK  11 active torsions:
REMARK  status: ('A' for Active; 'I' for Inactive)
REMARK    1  A    between atoms: N_3  and  C_13
REMARK    2  A    between atoms: N_6  and  C_29
REMARK    3  A    between atoms: C_8  and  C_12
REMARK    4  A    between atoms: C_9  and  C_13
REMARK    5  A    between atoms: C_11  and  C_19
REMARK    6  A    between atoms: C_12  and  C_21
REMARK    7  A    between atoms: C_12  and  C_22
REMARK    8  A    between atoms: C_14  and  C_23
REMARK    9  A    between atoms: C_15  and  C_20
REMARK   10  A    between atoms: C_19  and  C_24
REMARK   11  A    between atoms: C_25  and  C_26
REMARK                            x       y       z     vdW  Elec       q    Type
REMARK                         _______ _______ _______ _____ _____    ______ ____
ROOT
ATOM      8  C   UNL     1      -5.607 -10.715  17.811  0.00  0.00    +0.000 C 
ATOM      9  C   UNL     1      -4.951 -11.141  16.473  0.00  0.00    +0.032 C 
ATOM     10  C   UNL     1      -7.110 -11.029  17.795  0.00  0.00    +0.012 C 
ATOM     11  C   UNL     1      -7.842 -10.314  16.643  0.00  0.00    +0.024 C 
ATOM     14  C   UNL     1      -7.106 -10.465  15.328  0.00  0.00    -0.073 C 
ATOM     16  C   UNL     1      -5.818 -10.849  15.271  0.00  0.00    -0.022 C 
ATOM     23  C   UNL     1      -7.897 -10.209  14.075  0.00  0.00    +0.039 C 
ENDROOT
BRANCH   8  12
ATOM     12  C   UNL     1      -4.947 -11.401  19.011  0.00  0.00    -0.013 C 
ATOM     21  C   UNL     1      -5.860 -11.333  20.232  0.00  0.00    +0.007 C 
ATOM     22  C   UNL     1      -4.601 -12.848  18.674  0.00  0.00    +0.007 C 
ENDBRANCH   8  12
BRANCH   9  13
ATOM     13  C   UNL     1      -3.583 -10.475  16.291  0.00  0.00    +0.112 C 
BRANCH  13   3
ATOM      1  O   UNL     1      -1.431 -11.731  14.792  0.00  0.00    -0.276 OA
ATOM      3  N   UNL     1      -3.277 -10.313  14.904  0.00  0.00    -0.315 N 
ATOM     20  C   UNL     1      -2.222 -10.957  14.267  0.00  0.00    +0.216 C 
ATOM     30  H   UNL     1      -3.891  -9.730  14.342  0.00  0.00    +0.149 HD
BRANCH  20  15
ATOM     15  C   UNL     1      -2.090 -10.642  12.813  0.00  0.00    +0.075 C 
ATOM     17  C   UNL     1      -2.631 -11.613  11.805  0.00  0.00    +0.013 C 
ATOM     18  C   UNL     1      -3.319 -10.298  12.025  0.00  0.00    +0.013 C 
ENDBRANCH  20  15
ENDBRANCH  13   3
ENDBRANCH   9  13
BRANCH  11  19
ATOM     19  C   UNL     1      -8.080  -8.836  16.973  0.00  0.00    +0.105 C 
BRANCH  19  24
ATOM      2  O   UNL     1      -9.781  -7.743  15.608  0.00  0.00    -0.419 OA
ATOM      4  N   UNL     1     -10.570  -8.678  17.480  0.00  0.00    -0.112 NA
ATOM      5  N   UNL     1     -11.633  -8.101  16.811  0.00  0.00    -0.106 NA
ATOM     24  C   UNL     1      -9.511  -8.445  16.742  0.00  0.00    +0.218 A 
ATOM     25  C   UNL     1     -11.126  -7.567  15.724  0.00  0.00    +0.266 A 
BRANCH  25  26
ATOM      6  N   UNL     1     -12.339  -7.403  13.582  0.00  0.00    -0.329 N 
ATOM      7  N   UNL     1     -13.094  -5.315  13.629  0.00  0.00    -0.243 NA
ATOM     26  C   UNL     1     -11.902  -6.873  14.764  0.00  0.00    +0.125 A 
ATOM     27  C   UNL     1     -12.380  -5.584  14.769  0.00  0.00    +0.143 A 
ATOM     28  C   UNL     1     -13.050  -6.431  12.935  0.00  0.00    +0.199 A 
ATOM     29  C   UNL     1     -12.108  -8.740  13.085  0.00  0.00    +0.150 C 
ENDBRANCH  25  26
ENDBRANCH  19  24
ENDBRANCH  11  19
TORSDOF 7
ENDMDL
MODEL 3
REMARK VINA RESULT:      -6.1     16.934     20.240
REMARK  Name = 45784160
REMARK  11 active torsions:
REMARK  status: ('A' for Active; 'I' for Inactive)
REMARK    1  A    between atoms: N_3  and  C_13
REMARK    2  A    between atoms: N_6  and  C_29
REMARK    3  A    between atoms: C_8  and  C_12
REMARK    4  A    between atoms: C_9  and  C_13
REMARK    5  A    between atoms: C_11  and  C_19
REMARK    6  A    between atoms: C_12  and  C_21
REMARK    7  A    between atoms: C_12  and  C_22
REMARK    8  A    between atoms: C_14  and  C_23
REMARK    9  A    between atoms: C_15  and  C_20
REMARK   10  A    between atoms: C_19  and  C_24
REMARK   11  A    between atoms: C_25  and  C_26
REMARK                            x       y       z     vdW  Elec       q    Type
REMARK                         _______ _______ _______ _____ _____    ______ ____
ROOT
ATOM      8  C   UNL     1      12.053   8.048   5.700  0.00  0.00    +0.000 C 
ATOM      9  C   UNL     1      11.056   9.235   5.695  0.00  0.00    +0.032 C 
ATOM     10  C   UNL     1      12.474   7.694   4.266  0.00  0.00    +0.012 C 
ATOM     11  C   UNL     1      11.271   7.317   3.382  0.00  0.00    +0.024 C 
ATOM     14  C   UNL     1      10.132   8.306   3.528  0.00  0.00    -0.073 C 
ATOM     16  C   UNL     1      10.060   9.164   4.562  0.00  0.00    -0.022 C 
ATOM     23  C   UNL     1       9.100   8.318   2.435  0.00  0.00    +0.039 C 
ENDROOT
BRANCH   8  12
ATOM     12  C   UNL     1      13.294   8.352   6.545  0.00  0.00    -0.013 C 
ATOM     21  C   UNL     1      14.027   7.061   6.898  0.00  0.00    +0.007 C 
ATOM     22  C   UNL     1      14.219   9.315   5.806  0.00  0.00    +0.007 C 
ENDBRANCH   8  12
BRANCH   9  13
ATOM     13  C   UNL     1      10.308   9.334   7.028  0.00  0.00    +0.112 C 
BRANCH  13   3
ATOM      1  O   UNL     1       7.954   7.629   7.102  0.00  0.00    -0.276 OA
ATOM      3  N   UNL     1      10.183   8.047   7.638  0.00  0.00    -0.315 N 
ATOM     20  C   UNL     1       9.012   7.298   7.625  0.00  0.00    +0.216 C 
ATOM     30  H   UNL     1      11.009   7.637   8.067  0.00  0.00    +0.149 HD
BRANCH  20  15
ATOM     15  C   UNL     1       9.109   5.981   8.322  0.00  0.00    +0.075 C 
ATOM     17  C   UNL     1       9.772   4.832   7.619  0.00  0.00    +0.013 C 
ATOM     18  C   UNL     1      10.452   5.495   8.782  0.00  0.00    +0.013 C 
ENDBRANCH  20  15
ENDBRANCH  13   3
ENDBRANCH   9  13
BRANCH  11  19
ATOM     19  C   UNL     1      10.798   5.888   3.673  0.00  0.00    +0.105 C 
BRANCH  19  24
ATOM      2  O   UNL     1      12.582   5.353   2.098  0.00  0.00    -0.419 OA
ATOM      4  N   UNL     1      11.352   3.592   2.719  0.00  0.00    -0.112 NA
ATOM      5  N   UNL     1      12.315   3.148   1.834  0.00  0.00    -0.106 NA
ATOM     24  C   UNL     1      11.545   4.884   2.844  0.00  0.00    +0.218 A 
ATOM     25  C   UNL     1      13.011   4.209   1.497  0.00  0.00    +0.266 A 
BRANCH  25  26
ATOM      6  N   UNL     1      14.014   4.412  -0.748  0.00  0.00    -0.329 N 
ATOM      7  N   UNL     1      16.153   3.969  -0.348  0.00  0.00    -0.243 NA
ATOM     26  C   UNL     1      14.101   4.170   0.595  0.00  0.00    +0.125 A 
ATOM     27  C   UNL     1      15.431   3.899   0.816  0.00  0.00    +0.143 A 
ATOM     28  C   UNL     1      15.269   4.280  -1.271  0.00  0.00    +0.199 A 
ATOM     29  C   UNL     1      12.827   4.749  -1.500  0.00  0.00    +0.150 C 
ENDBRANCH  25  26
ENDBRANCH  19  24
ENDBRANCH  11  19
TORSDOF 7
ENDMDL
MODEL 4
REMARK VINA RESULT:      -6.1     28.857     31.162
REMARK  Name = 45784160
REMARK  11 active torsions:
REMARK  status: ('A' for Active; 'I' for Inactive)
REMARK    1  A    between atoms: N_3  and  C_13
REMARK    2  A    between atoms: N_6  and  C_29
REMARK    3  A    between atoms: C_8  and  C_12
REMARK    4  A    between atoms: C_9  and  C_13
REMARK    5  A    between atoms: C_11  and  C_19
REMARK    6  A    between atoms: C_12  and  C_21
REMARK    7  A    between atoms: C_12  and  C_22
REMARK    8  A    between atoms: C_14  and  C_23
REMARK    9  A    between atoms: C_15  and  C_20
REMARK   10  A    between atoms: C_19  and  C_24
REMARK   11  A    between atoms: C_25  and  C_26
REMARK                            x       y       z     vdW  Elec       q    Type
REMARK                         _______ _______ _______ _____ _____    ______ ____
ROOT
ATOM      8  C   UNL     1      -6.375 -10.833  16.156  0.00  0.00    +0.000 C 
ATOM      9  C   UNL     1      -6.884 -10.793  17.619  0.00  0.00    +0.032 C 
ATOM     10  C   UNL     1      -5.452 -12.041  15.941  0.00  0.00    +0.012 C 
ATOM     11  C   UNL     1      -4.232 -12.016  16.882  0.00  0.00    +0.024 C 
ATOM     14  C   UNL     1      -4.630 -11.713  18.312  0.00  0.00    -0.073 C 
ATOM     16  C   UNL     1      -5.824 -11.179  18.623  0.00  0.00    -0.022 C 
ATOM     23  C   UNL     1      -3.640 -12.081  19.383  0.00  0.00    +0.039 C 
ENDROOT
BRANCH   8  12
ATOM     12  C   UNL     1      -7.532 -10.880  15.152  0.00  0.00    -0.013 C 
ATOM     21  C   UNL     1      -7.268  -9.928  13.990  0.00  0.00    +0.007 C 
ATOM     22  C   UNL     1      -7.742 -12.305  14.649  0.00  0.00    +0.007 C 
ENDBRANCH   8  12
BRANCH   9  13
ATOM     13  C   UNL     1      -7.444  -9.411  17.972  0.00  0.00    +0.112 C 
BRANCH  13   3
ATOM      1  O   UNL     1      -9.442  -7.924  16.471  0.00  0.00    -0.276 OA
ATOM      3  N   UNL     1      -8.865  -9.462  18.124  0.00  0.00    -0.315 N 
ATOM     20  C   UNL     1      -9.749  -8.712  17.358  0.00  0.00    +0.216 C 
ATOM     30  H   UNL     1      -9.252 -10.116  18.799  0.00  0.00    +0.149 HD
BRANCH  20  15
ATOM     15  C   UNL     1     -11.190  -8.925  17.687  0.00  0.00    +0.075 C 
ATOM     17  C   UNL     1     -11.908 -10.101  17.090  0.00  0.00    +0.013 C 
ATOM     18  C   UNL     1     -11.578 -10.086  18.554  0.00  0.00    +0.013 C 
ENDBRANCH  20  15
ENDBRANCH  13   3
ENDBRANCH   9  13
BRANCH  11  19
ATOM     19  C   UNL     1      -3.172 -11.025  16.385  0.00  0.00    +0.105 C 
BRANCH  19  24
ATOM      2  O   UNL     1      -3.508 -10.492  14.029  0.00  0.00    -0.419 OA
ATOM      4  N   UNL     1      -1.993 -12.095  14.397  0.00  0.00    -0.112 NA
ATOM      5  N   UNL     1      -2.081 -11.898  13.032  0.00  0.00    -0.106 NA
ATOM     24  C   UNL     1      -2.842 -11.255  14.938  0.00  0.00    +0.218 A 
ATOM     25  C   UNL     1      -2.977 -10.954  12.863  0.00  0.00    +0.266 A 
BRANCH  25  26
ATOM      6  N   UNL     1      -4.472 -10.853  10.903  0.00  0.00    -0.329 N 
ATOM      7  N   UNL     1      -3.462  -9.348   9.619  0.00  0.00    -0.243 NA
ATOM     26  C   UNL     1      -3.357 -10.462  11.591  0.00  0.00    +0.125 A 
ATOM     27  C   UNL     1      -2.751  -9.533  10.778  0.00  0.00    +0.143 A 
ATOM     28  C   UNL     1      -4.493 -10.158   9.726  0.00  0.00    +0.199 A 
ATOM     29  C   UNL     1      -5.462 -11.819  11.320  0.00  0.00    +0.150 C 
ENDBRANCH  25  26
ENDBRANCH  19  24
ENDBRANCH  11  19
TORSDOF 7
ENDMDL
MODEL 5
REMARK VINA RESULT:      -6.1     14.536     18.781
REMARK  Name = 45784160
REMARK  11 active torsions:
REMARK  status: ('A' for Active; 'I' for Inactive)
REMARK    1  A    between atoms: N_3  and  C_13
REMARK    2  A    between atoms: N_6  and  C_29
REMARK    3  A    between atoms: C_8  and  C_12
REMARK    4  A    between atoms: C_9  and  C_13
REMARK    5  A    between atoms: C_11  and  C_19
REMARK    6  A    between atoms: C_12  and  C_21
REMARK    7  A    between atoms: C_12  and  C_22
REMARK    8  A    between atoms: C_14  and  C_23
REMARK    9  A    between atoms: C_15  and  C_20
REMARK   10  A    between atoms: C_19  and  C_24
REMARK   11  A    between atoms: C_25  and  C_26
REMARK                            x       y       z     vdW  Elec       q    Type
REMARK                         _______ _______ _______ _____ _____    ______ ____
ROOT
ATOM      8  C   UNL     1       9.724   6.203   7.141  0.00  0.00    +0.000 C 
ATOM      9  C   UNL     1       9.126   5.594   5.848  0.00  0.00    +0.032 C 
ATOM     10  C   UNL     1       8.811   7.312   7.685  0.00  0.00    +0.012 C 
ATOM     11  C   UNL     1       8.600   8.446   6.663  0.00  0.00    +0.024 C 
ATOM     14  C   UNL     1       8.267   7.909   5.286  0.00  0.00    -0.073 C 
ATOM     16  C   UNL     1       8.496   6.628   4.945  0.00  0.00    -0.022 C 
ATOM     23  C   UNL     1       7.620   8.866   4.324  0.00  0.00    +0.039 C 
ENDROOT
BRANCH   8  12
ATOM     12  C   UNL     1       9.946   5.140   8.221  0.00  0.00    -0.013 C 
ATOM     21  C   UNL     1       9.146   5.478   9.475  0.00  0.00    +0.007 C 
ATOM     22  C   UNL     1       9.570   3.759   7.694  0.00  0.00    +0.007 C 
ENDBRANCH   8  12
BRANCH   9  13
ATOM     13  C   UNL     1      10.183   4.808   5.067  0.00  0.00    +0.112 C 
BRANCH  13   3
ATOM      1  O   UNL     1      11.406   3.535   2.755  0.00  0.00    -0.276 OA
ATOM      3  N   UNL     1      10.367   5.362   3.762  0.00  0.00    -0.315 N 
ATOM     20  C   UNL     1      10.966   4.677   2.711  0.00  0.00    +0.216 C 
ATOM     30  H   UNL     1      10.000   6.293   3.580  0.00  0.00    +0.149 HD
BRANCH  20  15
ATOM     15  C   UNL     1      11.051   5.450   1.435  0.00  0.00    +0.075 C 
ATOM     17  C   UNL     1      10.032   5.200   0.362  0.00  0.00    +0.013 C 
ATOM     18  C   UNL     1      10.007   6.485   1.136  0.00  0.00    +0.013 C 
ENDBRANCH  20  15
ENDBRANCH  13   3
ENDBRANCH   9  13
BRANCH  11  19
ATOM     19  C   UNL     1       9.819   9.375   6.610  0.00  0.00    +0.105 C 
BRANCH  19  24
ATOM      2  O   UNL     1      10.260  10.333   8.809  0.00  0.00    -0.419 OA
ATOM      4  N   UNL     1       9.094  11.668   7.446  0.00  0.00    -0.112 NA
ATOM      5  N   UNL     1       9.269  12.332   8.646  0.00  0.00    -0.106 NA
ATOM     24  C   UNL     1       9.688  10.508   7.587  0.00  0.00    +0.218 A 
ATOM     25  C   UNL     1       9.955  11.515   9.412  0.00  0.00    +0.266 A 
BRANCH  25  26
ATOM      6  N   UNL     1      11.603  12.187  11.120  0.00  0.00    -0.329 N 
ATOM      7  N   UNL     1      10.374  12.222  12.970  0.00  0.00    -0.243 NA
ATOM     26  C   UNL     1      10.340  11.831  10.737  0.00  0.00    +0.125 A 
ATOM     27  C   UNL     1       9.601  11.860  11.896  0.00  0.00    +0.143 A 
ATOM     28  C   UNL     1      11.575  12.412  12.468  0.00  0.00    +0.199 A 
ATOM     29  C   UNL     1      12.769  12.312  10.276  0.00  0.00    +0.150 C 
ENDBRANCH  25  26
ENDBRANCH  19  24
ENDBRANCH  11  19
TORSDOF 7
ENDMDL
MODEL 6
REMARK VINA RESULT:      -6.1     28.392     30.839
REMARK  Name = 45784160
REMARK  11 active torsions:
REMARK  status: ('A' for Active; 'I' for Inactive)
REMARK    1  A    between atoms: N_3  and  C_13
REMARK    2  A    between atoms: N_6  and  C_29
REMARK    3  A    between atoms: C_8  and  C_12
REMARK    4  A    between atoms: C_9  and  C_13
REMARK    5  A    between atoms: C_11  and  C_19
REMARK    6  A    between atoms: C_12  and  C_21
REMARK    7  A    between atoms: C_12  and  C_22
REMARK    8  A    between atoms: C_14  and  C_23
REMARK    9  A    between atoms: C_15  and  C_20
REMARK   10  A    between atoms: C_19  and  C_24
REMARK   11  A    between atoms: C_25  and  C_26
REMARK                            x       y       z     vdW  Elec       q    Type
REMARK                         _______ _______ _______ _____ _____    ______ ____
ROOT
ATOM      8  C   UNL     1      -3.739 -12.791  12.879  0.00  0.00    +0.000 C 
ATOM      9  C   UNL     1      -2.208 -12.560  12.825  0.00  0.00    +0.032 C 
ATOM     10  C   UNL     1      -4.396 -12.342  11.565  0.00  0.00    +0.012 C 
ATOM     11  C   UNL     1      -4.137 -10.854  11.264  0.00  0.00    +0.024 C 
ATOM     14  C   UNL     1      -2.680 -10.486  11.452  0.00  0.00    -0.073 C 
ATOM     16  C   UNL     1      -1.830 -11.268  12.142  0.00  0.00    -0.022 C 
ATOM     23  C   UNL     1      -2.209  -9.220  10.791  0.00  0.00    +0.039 C 
ENDROOT
BRANCH   8  12
ATOM     12  C   UNL     1      -4.084 -14.258  13.155  0.00  0.00    -0.013 C 
ATOM     21  C   UNL     1      -5.351 -14.358  13.998  0.00  0.00    +0.007 C 
ATOM     22  C   UNL     1      -4.243 -15.024  11.845  0.00  0.00    +0.007 C 
ENDBRANCH   8  12
BRANCH   9  13
ATOM     13  C   UNL     1      -1.595 -12.595  14.229  0.00  0.00    +0.112 C 
BRANCH  13   3
ATOM      1  O   UNL     1      -1.607 -10.076  15.683  0.00  0.00    -0.276 OA
ATOM      3  N   UNL     1      -2.541 -12.158  15.208  0.00  0.00    -0.315 N 
ATOM     20  C   UNL     1      -2.468 -10.930  15.856  0.00  0.00    +0.216 C 
ATOM     30  H   UNL     1      -3.335 -12.759  15.409  0.00  0.00    +0.149 HD
BRANCH  20  15
ATOM     15  C   UNL     1      -3.564 -10.682  16.840  0.00  0.00    +0.075 C 
ATOM     17  C   UNL     1      -4.876 -10.144  16.348  0.00  0.00    +0.013 C 
ATOM     18  C   UNL     1      -4.777 -11.565  16.821  0.00  0.00    +0.013 C 
ENDBRANCH  20  15
ENDBRANCH  13   3
ENDBRANCH   9  13
BRANCH  11  19
ATOM     19  C   UNL     1      -5.045  -9.953  12.110  0.00  0.00    +0.105 C 
BRANCH  19  24
ATOM      2  O   UNL     1      -6.107  -8.953  10.155  0.00  0.00    -0.419 OA
ATOM      4  N   UNL     1      -7.545  -9.718  11.687  0.00  0.00    -0.112 NA
ATOM      5  N   UNL     1      -8.278  -9.183  10.644  0.00  0.00    -0.106 NA
ATOM     24  C   UNL     1      -6.285  -9.563  11.359  0.00  0.00    +0.218 A 
ATOM     25  C   UNL     1      -7.398  -8.749   9.772  0.00  0.00    +0.266 A 
BRANCH  25  26
ATOM      6  N   UNL     1      -7.641  -8.703   7.317  0.00  0.00    -0.329 N 
ATOM      7  N   UNL     1      -8.470  -6.672   6.966  0.00  0.00    -0.243 NA
ATOM     26  C   UNL     1      -7.754  -8.126   8.551  0.00  0.00    +0.125 A 
ATOM     27  C   UNL     1      -8.267  -6.874   8.308  0.00  0.00    +0.143 A 
ATOM     28  C   UNL     1      -8.082  -7.793   6.398  0.00  0.00    +0.199 A 
ATOM     29  C   UNL     1      -7.150 -10.027   7.014  0.00  0.00    +0.150 C 
ENDBRANCH  25  26
ENDBRANCH  19  24
ENDBRANCH  11  19
TORSDOF 7
ENDMDL
MODEL 7
REMARK VINA RESULT:      -6.0     29.245     32.057
REMARK  Name = 45784160
REMARK  11 active torsions:
REMARK  status: ('A' for Active; 'I' for Inactive)
REMARK    1  A    between atoms: N_3  and  C_13
REMARK    2  A    between atoms: N_6  and  C_29
REMARK    3  A    between atoms: C_8  and  C_12
REMARK    4  A    between atoms: C_9  and  C_13
REMARK    5  A    between atoms: C_11  and  C_19
REMARK    6  A    between atoms: C_12  and  C_21
REMARK    7  A    between atoms: C_12  and  C_22
REMARK    8  A    between atoms: C_14  and  C_23
REMARK    9  A    between atoms: C_15  and  C_20
REMARK   10  A    between atoms: C_19  and  C_24
REMARK   11  A    between atoms: C_25  and  C_26
REMARK                            x       y       z     vdW  Elec       q    Type
REMARK                         _______ _______ _______ _____ _____    ______ ____
ROOT
ATOM      8  C   UNL     1     -13.222  10.557  21.275  0.00  0.00    +0.000 C 
ATOM      9  C   UNL     1     -11.849  10.482  20.562  0.00  0.00    +0.032 C 
ATOM     10  C   UNL     1     -13.371   9.401  22.275  0.00  0.00    +0.012 C 
ATOM     11  C   UNL     1     -13.247   8.024  21.596  0.00  0.00    +0.024 C 
ATOM     14  C   UNL     1     -12.056   7.961  20.662  0.00  0.00    -0.073 C 
ATOM     16  C   UNL     1     -11.436   9.070  20.221  0.00  0.00    -0.022 C 
ATOM     23  C   UNL     1     -11.564   6.592  20.282  0.00  0.00    +0.039 C 
ENDROOT
BRANCH   8  12
ATOM     12  C   UNL     1     -13.417  11.894  21.996  0.00  0.00    -0.013 C 
ATOM     21  C   UNL     1     -14.902  12.229  22.104  0.00  0.00    +0.007 C 
ATOM     22  C   UNL     1     -12.769  11.855  23.376  0.00  0.00    +0.007 C 
ENDBRANCH   8  12
BRANCH   9  13
ATOM     13  C   UNL     1     -11.838  11.339  19.291  0.00  0.00    +0.112 C 
BRANCH  13   3
ATOM      1  O   UNL     1      -9.716  11.545  17.313  0.00  0.00    -0.276 OA
ATOM      3  N   UNL     1     -11.645  10.525  18.132  0.00  0.00    -0.315 N 
ATOM     20  C   UNL     1     -10.597  10.696  17.235  0.00  0.00    +0.216 C 
ATOM     30  H   UNL     1     -12.286   9.750  17.978  0.00  0.00    +0.149 HD
BRANCH  20  15
ATOM     15  C   UNL     1     -10.590   9.731  16.096  0.00  0.00    +0.075 C 
ATOM     17  C   UNL     1     -10.471   8.263  16.385  0.00  0.00    +0.013 C 
ATOM     18  C   UNL     1     -11.772   8.828  15.896  0.00  0.00    +0.013 C 
ENDBRANCH  20  15
ENDBRANCH  13   3
ENDBRANCH   9  13
BRANCH  11  19
ATOM     19  C   UNL     1     -14.541   7.651  20.862  0.00  0.00    +0.105 C 
BRANCH  19  24
ATOM      2  O   UNL     1     -15.162   6.313  22.805  0.00  0.00    -0.419 OA
ATOM      4  N   UNL     1     -15.734   5.401  20.844  0.00  0.00    -0.112 NA
ATOM      5  N   UNL     1     -16.143   4.544  21.848  0.00  0.00    -0.106 NA
ATOM     24  C   UNL     1     -15.168   6.419  21.448  0.00  0.00    +0.218 A 
ATOM     25  C   UNL     1     -15.789   5.116  22.975  0.00  0.00    +0.266 A 
BRANCH  25  26
ATOM      6  N   UNL     1     -16.866   5.071  25.195  0.00  0.00    -0.329 N 
ATOM      7  N   UNL     1     -16.037   3.211  26.082  0.00  0.00    -0.243 NA
ATOM     26  C   UNL     1     -16.033   4.544  24.248  0.00  0.00    +0.125 A 
ATOM     27  C   UNL     1     -15.533   3.397  24.819  0.00  0.00    +0.143 A 
ATOM     28  C   UNL     1     -16.836   4.238  26.277  0.00  0.00    +0.199 A 
ATOM     29  C   UNL     1     -17.646   6.283  25.095  0.00  0.00    +0.150 C 
ENDBRANCH  25  26
ENDBRANCH  19  24
ENDBRANCH  11  19
TORSDOF 7
ENDMDL
MODEL 8
REMARK VINA RESULT:      -6.0     29.766     32.759
REMARK  Name = 45784160
REMARK  11 active torsions:
REMARK  status: ('A' for Active; 'I' for Inactive)
REMARK    1  A    between atoms: N_3  and  C_13
REMARK    2  A    between atoms: N_6  and  C_29
REMARK    3  A    between atoms: C_8  and  C_12
REMARK    4  A    between atoms: C_9  and  C_13
REMARK    5  A    between atoms: C_11  and  C_19
REMARK    6  A    between atoms: C_12  and  C_21
REMARK    7  A    between atoms: C_12  and  C_22
REMARK    8  A    between atoms: C_14  and  C_23
REMARK    9  A    between atoms: C_15  and  C_20
REMARK   10  A    between atoms: C_19  and  C_24
REMARK   11  A    between atoms: C_25  and  C_26
REMARK                            x       y       z     vdW  Elec       q    Type
REMARK                         _______ _______ _______ _____ _____    ______ ____
ROOT
ATOM      8  C   UNL     1     -13.162   8.121  21.379  0.00  0.00    +0.000 C 
ATOM      9  C   UNL     1     -13.783   9.458  21.856  0.00  0.00    +0.032 C 
ATOM     10  C   UNL     1     -14.266   7.107  21.042  0.00  0.00    +0.012 C 
ATOM     11  C   UNL     1     -15.180   6.819  22.247  0.00  0.00    +0.024 C 
ATOM     14  C   UNL     1     -15.620   8.093  22.938  0.00  0.00    -0.073 C 
ATOM     16  C   UNL     1     -14.991   9.266  22.741  0.00  0.00    -0.022 C 
ATOM     23  C   UNL     1     -16.828   7.999  23.828  0.00  0.00    +0.039 C 
ENDROOT
BRANCH   8  12
ATOM     12  C   UNL     1     -12.251   8.318  20.164  0.00  0.00    -0.013 C 
ATOM     21  C   UNL     1     -11.543   7.014  19.811  0.00  0.00    +0.007 C 
ATOM     22  C   UNL     1     -13.053   8.838  18.975  0.00  0.00    +0.007 C 
ENDBRANCH   8  12
BRANCH   9  13
ATOM     13  C   UNL     1     -12.746  10.319  22.586  0.00  0.00    +0.112 C 
BRANCH  13   3
ATOM      1  O   UNL     1     -11.990  12.103  24.755  0.00  0.00    -0.276 OA
ATOM      3  N   UNL     1     -12.748  10.037  23.988  0.00  0.00    -0.315 N 
ATOM     20  C   UNL     1     -12.368  10.955  24.959  0.00  0.00    +0.216 C 
ATOM     30  H   UNL     1     -13.088   9.129  24.294  0.00  0.00    +0.149 HD
BRANCH  20  15
ATOM     15  C   UNL     1     -12.450  10.446  26.361  0.00  0.00    +0.075 C 
ATOM     17  C   UNL     1     -11.252   9.770  26.961  0.00  0.00    +0.013 C 
ATOM     18  C   UNL     1     -11.661  11.134  27.436  0.00  0.00    +0.013 C 
ENDBRANCH  20  15
ENDBRANCH  13   3
ENDBRANCH   9  13
BRANCH  11  19
ATOM     19  C   UNL     1     -14.504   5.863  23.237  0.00  0.00    +0.105 C 
BRANCH  19  24
ATOM      2  O   UNL     1     -15.570   4.222  24.694  0.00  0.00    -0.419 OA
ATOM      4  N   UNL     1     -15.793   3.790  22.511  0.00  0.00    -0.112 NA
ATOM      5  N   UNL     1     -16.439   2.788  23.212  0.00  0.00    -0.106 NA
ATOM     24  C   UNL     1     -15.302   4.603  23.415  0.00  0.00    +0.218 A 
ATOM     25  C   UNL     1     -16.283   3.081  24.482  0.00  0.00    +0.266 A 
BRANCH  25  26
ATOM      6  N   UNL     1     -17.806   2.674  26.380  0.00  0.00    -0.329 N 
ATOM      7  N   UNL     1     -17.230   0.624  27.012  0.00  0.00    -0.243 NA
ATOM     26  C   UNL     1     -16.805   2.288  25.533  0.00  0.00    +0.125 A 
ATOM     27  C   UNL     1     -16.466   1.021  25.944  0.00  0.00    +0.143 A 
ATOM     28  C   UNL     1     -18.026   1.644  27.250  0.00  0.00    +0.199 A 
ATOM     29  C   UNL     1     -18.517   3.932  26.378  0.00  0.00    +0.150 C 
ENDBRANCH  25  26
ENDBRANCH  19  24
ENDBRANCH  11  19
TORSDOF 7
ENDMDL
MODEL 9
REMARK VINA RESULT:      -6.0     30.059     33.247
REMARK  Name = 45784160
REMARK  11 active torsions:
REMARK  status: ('A' for Active; 'I' for Inactive)
REMARK    1  A    between atoms: N_3  and  C_13
REMARK    2  A    between atoms: N_6  and  C_29
REMARK    3  A    between atoms: C_8  and  C_12
REMARK    4  A    between atoms: C_9  and  C_13
REMARK    5  A    between atoms: C_11  and  C_19
REMARK    6  A    between atoms: C_12  and  C_21
REMARK    7  A    between atoms: C_12  and  C_22
REMARK    8  A    between atoms: C_14  and  C_23
REMARK    9  A    between atoms: C_15  and  C_20
REMARK   10  A    between atoms: C_19  and  C_24
REMARK   11  A    between atoms: C_25  and  C_26
REMARK                            x       y       z     vdW  Elec       q    Type
REMARK                         _______ _______ _______ _____ _____    ______ ____
ROOT
ATOM      8  C   UNL     1     -11.232 -10.149  18.720  0.00  0.00    +0.000 C 
ATOM      9  C   UNL     1     -10.021 -10.995  18.254  0.00  0.00    +0.032 C 
ATOM     10  C   UNL     1     -12.195  -9.899  17.550  0.00  0.00    +0.012 C 
ATOM     11  C   UNL     1     -11.511  -9.169  16.379  0.00  0.00    +0.024 C 
ATOM     14  C   UNL     1     -10.173  -9.788  16.034  0.00  0.00    -0.073 C 
ATOM     16  C   UNL     1      -9.528 -10.613  16.879  0.00  0.00    -0.022 C 
ATOM     23  C   UNL     1      -9.611  -9.475  14.674  0.00  0.00    +0.039 C 
ENDROOT
BRANCH   8  12
ATOM     12  C   UNL     1     -11.984 -10.819  19.876  0.00  0.00    -0.013 C 
ATOM     21  C   UNL     1     -12.656  -9.768  20.754  0.00  0.00    +0.007 C 
ATOM     22  C   UNL     1     -13.008 -11.813  19.339  0.00  0.00    +0.007 C 
ENDBRANCH   8  12
BRANCH   9  13
ATOM     13  C   UNL     1      -8.865 -10.905  19.255  0.00  0.00    +0.112 C 
BRANCH  13   3
ATOM      1  O   UNL     1      -6.256 -10.216  20.341  0.00  0.00    -0.276 OA
ATOM      3  N   UNL     1      -7.605 -10.931  18.580  0.00  0.00    -0.315 N 
ATOM     20  C   UNL     1      -6.401 -10.583  19.181  0.00  0.00    +0.216 C 
ATOM     30  H   UNL     1      -7.582 -11.265  17.620  0.00  0.00    +0.149 HD
BRANCH  20  15
ATOM     15  C   UNL     1      -5.209 -10.686  18.288  0.00  0.00    +0.075 C 
ATOM     17  C   UNL     1      -4.373 -11.932  18.329  0.00  0.00    +0.013 C 
ATOM     18  C   UNL     1      -5.238 -11.648  17.137  0.00  0.00    +0.013 C 
ENDBRANCH  20  15
ENDBRANCH  13   3
ENDBRANCH   9  13
BRANCH  11  19
ATOM     19  C   UNL     1     -11.364  -7.671  16.672  0.00  0.00    +0.105 C 
BRANCH  19  24
ATOM      2  O   UNL     1     -11.542  -6.386  14.606  0.00  0.00    -0.419 OA
ATOM      4  N   UNL     1     -13.435  -6.479  15.792  0.00  0.00    -0.112 NA
ATOM      5  N   UNL     1     -13.679  -5.726  14.659  0.00  0.00    -0.106 NA
ATOM     24  C   UNL     1     -12.178  -6.843  15.720  0.00  0.00    +0.218 A 
ATOM     25  C   UNL     1     -12.546  -5.699  13.996  0.00  0.00    +0.266 A 
BRANCH  25  26
ATOM      6  N   UNL     1     -12.329  -5.622  11.539  0.00  0.00    -0.329 N 
ATOM      7  N   UNL     1     -12.109  -3.446  11.155  0.00  0.00    -0.243 NA
ATOM     26  C   UNL     1     -12.382  -5.018  12.765  0.00  0.00    +0.125 A 
ATOM     27  C   UNL     1     -12.244  -3.676  12.501  0.00  0.00    +0.143 A 
ATOM     28  C   UNL     1     -12.164  -4.639  10.605  0.00  0.00    +0.199 A 
ATOM     29  C   UNL     1     -12.427  -7.036  11.257  0.00  0.00    +0.150 C 
ENDBRANCH  25  26
ENDBRANCH  19  24
ENDBRANCH  11  19
TORSDOF 7
ENDMDL
MODEL 10
REMARK VINA RESULT:      -5.9     14.249     18.029
REMARK  Name = 45784160
REMARK  11 active torsions:
REMARK  status: ('A' for Active; 'I' for Inactive)
REMARK    1  A    between atoms: N_3  and  C_13
REMARK    2  A    between atoms: N_6  and  C_29
REMARK    3  A    between atoms: C_8  and  C_12
REMARK    4  A    between atoms: C_9  and  C_13
REMARK    5  A    between atoms: C_11  and  C_19
REMARK    6  A    between atoms: C_12  and  C_21
REMARK    7  A    between atoms: C_12  and  C_22
REMARK    8  A    between atoms: C_14  and  C_23
REMARK    9  A    between atoms: C_15  and  C_20
REMARK   10  A    between atoms: C_19  and  C_24
REMARK   11  A    between atoms: C_25  and  C_26
REMARK                            x       y       z     vdW  Elec       q    Type
REMARK                         _______ _______ _______ _____ _____    ______ ____
ROOT
ATOM      8  C   UNL     1       9.608   6.458   6.947  0.00  0.00    +0.000 C 
ATOM      9  C   UNL     1       9.064   5.807   5.651  0.00  0.00    +0.032 C 
ATOM     10  C   UNL     1       8.634   7.529   7.460  0.00  0.00    +0.012 C 
ATOM     11  C   UNL     1       8.390   8.640   6.422  0.00  0.00    +0.024 C 
ATOM     14  C   UNL     1       8.108   8.072   5.046  0.00  0.00    -0.073 C 
ATOM     16  C   UNL     1       8.404   6.800   4.724  0.00  0.00    -0.022 C 
ATOM     23  C   UNL     1       7.436   8.987   4.060  0.00  0.00    +0.039 C 
ENDROOT
BRANCH   8  12
ATOM     12  C   UNL     1       9.860   5.418   8.044  0.00  0.00    -0.013 C 
ATOM     21  C   UNL     1      11.266   5.576   8.615  0.00  0.00    +0.007 C 
ATOM     22  C   UNL     1       8.811   5.540   9.144  0.00  0.00    +0.007 C 
ENDBRANCH   8  12
BRANCH   9  13
ATOM     13  C   UNL     1      10.172   5.063   4.898  0.00  0.00    +0.112 C 
BRANCH  13   3
ATOM      1  O   UNL     1      11.371   6.800   2.897  0.00  0.00    -0.276 OA
ATOM      3  N   UNL     1      11.411   5.771   4.988  0.00  0.00    -0.315 N 
ATOM     20  C   UNL     1      11.910   6.583   3.976  0.00  0.00    +0.216 C 
ATOM     30  H   UNL     1      11.935   5.713   5.857  0.00  0.00    +0.149 HD
BRANCH  20  15
ATOM     15  C   UNL     1      13.221   7.227   4.286  0.00  0.00    +0.075 C 
ATOM     17  C   UNL     1      13.233   8.596   4.901  0.00  0.00    +0.013 C 
ATOM     18  C   UNL     1      13.629   7.402   5.720  0.00  0.00    +0.013 C 
ENDBRANCH  20  15
ENDBRANCH  13   3
ENDBRANCH   9  13
BRANCH  11  19
ATOM     19  C   UNL     1       9.564   9.625   6.380  0.00  0.00    +0.105 C 
BRANCH  19  24
ATOM      2  O   UNL     1       9.625  10.518   8.649  0.00  0.00    -0.419 OA
ATOM      4  N   UNL     1       8.953  11.989   7.105  0.00  0.00    -0.112 NA
ATOM      5  N   UNL     1       8.940  12.624   8.332  0.00  0.00    -0.106 NA
ATOM     24  C   UNL     1       9.359  10.764   7.337  0.00  0.00    +0.218 A 
ATOM     25  C   UNL     1       9.339  11.728   9.205  0.00  0.00    +0.266 A 
BRANCH  25  26
ATOM      6  N   UNL     1      10.645  12.114  11.262  0.00  0.00    -0.329 N 
ATOM      7  N   UNL     1       9.052  12.412  12.780  0.00  0.00    -0.243 NA
ATOM     26  C   UNL     1       9.461  11.992  10.590  0.00  0.00    +0.125 A 
ATOM     27  C   UNL     1       8.493  12.179  11.549  0.00  0.00    +0.143 A 
ATOM     28  C   UNL     1      10.350  12.366  12.572  0.00  0.00    +0.199 A 
ATOM     29  C   UNL     1      11.977  12.004  10.712  0.00  0.00    +0.150 C 
ENDBRANCH  25  26
ENDBRANCH  19  24
ENDBRANCH  11  19
TORSDOF 7
ENDMDL
