REMARK  Name = 7051762
REMARK  2 active torsions:
REMARK  status: ('A' for Active; 'I' for Inactive)
REMARK    1  A    between atoms: C_14  and  C_19
REMARK    2  A    between atoms: C_16  and  C_20
REMARK                            x       y       z     vdW  Elec       q    Type
REMARK                         _______ _______ _______ _____ _____    ______ ____
ROOT
ATOM      2  O   UNL     1      -3.299   0.110  -2.800  0.00  0.00    -0.268 OA
ATOM      3  O   UNL     1      -1.288   3.590   0.296  0.00  0.00    -0.270 OA
ATOM      4  N   UNL     1      -1.193   1.556   1.445  0.00  0.00    -0.297 N 
ATOM      5  N   UNL     1      -2.303  -0.425  -0.749  0.00  0.00    -0.311 N 
ATOM      7  C   UNL     1      -3.340   0.312   1.479  0.00  0.00    +0.027 C 
ATOM      8  C   UNL     1      -1.216  -0.930   1.460  0.00  0.00    +0.054 C 
ATOM      9  C   UNL     1      -2.627  -0.907   2.046  0.00  0.00    +0.018 C 
ATOM     10  C   UNL     1      -2.594   1.601   1.859  0.00  0.00    +0.113 C 
ATOM     11  C   UNL     1      -3.457   0.143  -0.037  0.00  0.00    +0.130 C 
ATOM     12  C   UNL     1      -0.464   0.353   1.875  0.00  0.00    +0.117 C 
ATOM     13  C   UNL     1      -1.241  -1.051  -0.066  0.00  0.00    +0.034 A 
ATOM     14  C   UNL     1      -0.274  -1.700  -0.765  0.00  0.00    +0.004 A 
ATOM     15  C   UNL     1      -2.390  -0.409  -2.153  0.00  0.00    +0.252 A 
ATOM     16  C   UNL     1      -0.675   2.586   0.655  0.00  0.00    +0.247 C 
ATOM     17  C   UNL     1      -0.328  -1.701  -2.214  0.00  0.00    +0.015 A 
ATOM     18  C   UNL     1      -1.301  -1.090  -2.890  0.00  0.00    +0.071 A 
ENDROOT
BRANCH  16  20
ATOM      1  F   UNL     1       4.604   2.153  -1.137  0.00  0.00    -0.205 F 
ATOM     20  C   UNL     1       0.711   2.471   0.185  0.00  0.00    +0.037 A 
ATOM     23  C   UNL     1       0.981   1.848  -1.030  0.00  0.00    +0.016 A 
ATOM     24  C   UNL     1       1.748   2.988   0.957  0.00  0.00    +0.016 A 
ATOM     26  C   UNL     1       2.298   1.740  -1.478  0.00  0.00    +0.039 A 
ATOM     27  C   UNL     1       3.065   2.881   0.509  0.00  0.00    +0.039 A 
ATOM     29  C   UNL     1       3.340   2.257  -0.708  0.00  0.00    +0.123 A 
ENDBRANCH  16  20
BRANCH  14  19
ATOM      6  N   UNL     1       1.727  -4.416   0.877  0.00  0.00    -0.263 NA
ATOM     19  C   UNL     1       0.845  -2.393  -0.088  0.00  0.00    +0.002 A 
ATOM     21  C   UNL     1       2.017  -1.717   0.211  0.00  0.00    +0.011 A 
ATOM     22  C   UNL     1       0.744  -3.725   0.258  0.00  0.00    +0.119 A 
ATOM     25  C   UNL     1       3.051  -2.394   0.848  0.00  0.00    +0.020 A 
ATOM     28  C   UNL     1       2.858  -3.731   1.157  0.00  0.00    +0.111 A 
ENDBRANCH  14  19
TORSDOF 2
