REMARK  Name = 11867430
REMARK  9 active torsions:
REMARK  status: ('A' for Active; 'I' for Inactive)
REMARK    1  A    between atoms: O_3  and  C_11
REMARK    2  A    between atoms: O_3  and  C_21
REMARK    3  A    between atoms: N_5  and  C_10
REMARK    4  A    between atoms: N_5  and  C_17
REMARK    5  A    between atoms: N_6  and  C_14
REMARK    6  A    between atoms: N_7  and  C_27
REMARK    7  A    between atoms: N_7  and  C_28
REMARK    8  A    between atoms: N_7  and  C_29
REMARK    9  A    between atoms: C_17  and  C_22
REMARK                            x       y       z     vdW  Elec       q    Type
REMARK                         _______ _______ _______ _____ _____    ______ ____
ROOT
ATOM      1  O   UNL     1      -1.048   1.060  -1.248  0.00  0.00    -0.369 OA
ATOM      2  O   UNL     1      -0.570   3.492   0.538  0.00  0.00    -0.369 OA
ATOM      8  C   UNL     1       0.140   2.239   0.428  0.00  0.00    +0.170 C 
ATOM      9  C   UNL     1      -0.902   1.167   0.179  0.00  0.00    +0.191 C 
ATOM     10  C   UNL     1       0.984   2.233  -0.828  0.00  0.00    +0.111 C 
ATOM     11  C   UNL     1      -2.135   1.756   0.822  0.00  0.00    +0.235 C 
ATOM     12  C   UNL     1      -0.041   1.859  -1.889  0.00  0.00    +0.181 C 
ATOM     13  C   UNL     1      -1.981   3.229   0.518  0.00  0.00    +0.207 C 
ENDROOT
BRANCH  10   5
ATOM      5  N   UNL     1       2.030   1.213  -0.766  0.00  0.00    -0.305 NA
ATOM     30  H   UNL     1       2.273   0.920  -1.713  0.00  0.00    +0.123 HD
BRANCH   5  17
ATOM     17  C   UNL     1       3.226   1.738  -0.126  0.00  0.00    +0.116 C 
BRANCH  17  22
ATOM     22  C   UNL     1       4.319   0.705  -0.046  0.00  0.00    -0.033 A 
ATOM     23  C   UNL     1       5.243   0.585  -1.085  0.00  0.00    +0.007 A 
ATOM     24  C   UNL     1       4.407  -0.132   1.066  0.00  0.00    +0.007 A 
ATOM     25  C   UNL     1       6.255  -0.372  -1.010  0.00  0.00    +0.023 A 
ATOM     26  C   UNL     1       5.419  -1.089   1.140  0.00  0.00    +0.023 A 
ATOM     27  C   UNL     1       6.343  -1.209   0.102  0.00  0.00    +0.029 A 
BRANCH  27   7
ATOM      7  N   UNL     1       7.366  -2.177   0.177  0.00  0.00    -0.336 N 
ATOM     28  C   UNL     1       8.331  -2.310  -0.896  0.00  0.00    +0.129 C 
ATOM     29  C   UNL     1       7.474  -3.042   1.335  0.00  0.00    +0.129 C 
ENDBRANCH  27   7
ENDBRANCH  17  22
ENDBRANCH   5  17
ENDBRANCH  10   5
BRANCH  11   3
ATOM      3  O   UNL     1      -3.340   1.232   0.311  0.00  0.00    -0.442 OA
BRANCH   3  21
ATOM      4  O   UNL     1      -3.369  -0.355   1.971  0.00  0.00    -0.226 OA
ATOM      6  N   UNL     1      -5.049  -0.252   0.374  0.00  0.00    -0.278 N 
ATOM     21  C   UNL     1      -3.878   0.155   0.978  0.00  0.00    +0.401 C 
ATOM     31  H   UNL     1      -5.332   0.234  -0.471  0.00  0.00    +0.152 HD
BRANCH   6  14
ATOM     14  C   UNL     1      -5.851  -1.361   0.842  0.00  0.00    +0.076 C 
ATOM     15  C   UNL     1      -5.382  -2.681   0.221  0.00  0.00    +0.022 C 
ATOM     16  C   UNL     1      -7.339  -1.117   0.572  0.00  0.00    +0.022 C 
ATOM     18  C   UNL     1      -5.736  -2.787  -1.263  0.00  0.00    +0.002 C 
ATOM     19  C   UNL     1      -7.690  -1.226  -0.912  0.00  0.00    +0.002 C 
ATOM     20  C   UNL     1      -7.223  -2.552  -1.505  0.00  0.00    +0.000 C 
ENDBRANCH   6  14
ENDBRANCH   3  21
ENDBRANCH  11   3
TORSDOF 7
