MODEL 1
REMARK VINA RESULT:      -7.4      0.000      0.000
REMARK  Name = 7155437
REMARK  5 active torsions:
REMARK  status: ('A' for Active; 'I' for Inactive)
REMARK    1  A    between atoms: S_1  and  N_6
REMARK    2  A    between atoms: S_1  and  C_20
REMARK    3  A    between atoms: N_8  and  C_30
REMARK    4  A    between atoms: C_16  and  C_21
REMARK    5  A    between atoms: C_32  and  C_33
REMARK                            x       y       z     vdW  Elec       q    Type
REMARK                         _______ _______ _______ _____ _____    ______ ____
ROOT
ATOM      4  O   UNL     1       9.298   9.667   2.739  0.00  0.00    -0.268 OA
ATOM      6  N   UNL     1      12.989   9.043   5.982  0.00  0.00    -0.176 NA
ATOM      7  N   UNL     1      10.030   9.239   4.923  0.00  0.00    -0.311 N 
ATOM      9  C   UNL     1      11.411  10.953   6.238  0.00  0.00    +0.025 C 
ATOM     10  C   UNL     1      10.863   8.786   7.252  0.00  0.00    +0.053 C 
ATOM     11  C   UNL     1      10.793  10.296   7.460  0.00  0.00    +0.017 C 
ATOM     12  C   UNL     1      12.878  10.526   6.069  0.00  0.00    +0.114 C 
ATOM     13  C   UNL     1      12.338   8.353   7.135  0.00  0.00    +0.119 C 
ATOM     14  C   UNL     1      10.562  10.606   5.014  0.00  0.00    +0.130 C 
ATOM     15  C   UNL     1      10.071   8.350   6.016  0.00  0.00    +0.034 A 
ATOM     16  C   UNL     1       9.438   7.151   5.935  0.00  0.00    +0.002 A 
ATOM     17  C   UNL     1       9.377   8.924   3.718  0.00  0.00    +0.252 A 
ATOM     18  C   UNL     1       8.758   6.789   4.707  0.00  0.00    +0.015 A 
ATOM     19  C   UNL     1       8.726   7.596   3.646  0.00  0.00    +0.071 A 
ENDROOT
BRANCH  16  21
ATOM     21  C   UNL     1       9.436   6.193   7.063  0.00  0.00    -0.016 A 
ATOM     24  C   UNL     1       9.938   4.908   6.879  0.00  0.00    +0.008 A 
ATOM     25  C   UNL     1       8.934   6.584   8.300  0.00  0.00    +0.008 A 
ATOM     28  C   UNL     1       9.935   4.005   7.942  0.00  0.00    +0.001 A 
ATOM     29  C   UNL     1       8.932   5.681   9.363  0.00  0.00    +0.001 A 
ATOM     31  C   UNL     1       9.433   4.392   9.185  0.00  0.00    +0.000 A 
ENDBRANCH  16  21
BRANCH   6   1
ATOM      1  S   UNL     1      14.524   8.440   5.529  0.00  0.00    +0.061 S 
ATOM      2  O   UNL     1      15.014   7.558   6.568  0.00  0.00    -0.153 OA
ATOM      3  O   UNL     1      15.334   9.535   5.039  0.00  0.00    -0.153 OA
BRANCH   1  20
ATOM     20  C   UNL     1      14.070   7.441   4.145  0.00  0.00    +0.106 A 
ATOM     22  C   UNL     1      15.051   7.015   3.265  0.00  0.00    +0.030 A 
ATOM     23  C   UNL     1      12.739   7.102   3.964  0.00  0.00    +0.030 A 
ATOM     26  C   UNL     1      14.691   6.226   2.173  0.00  0.00    +0.025 A 
ATOM     27  C   UNL     1      12.380   6.312   2.871  0.00  0.00    +0.025 A 
ATOM     30  C   UNL     1      13.356   5.875   1.976  0.00  0.00    +0.033 A 
BRANCH  30   8
ATOM      5  O   UNL     1      13.461   2.888   1.603  0.00  0.00    -0.276 OA
ATOM      8  N   UNL     1      12.997   5.085   0.883  0.00  0.00    -0.286 N 
ATOM     32  C   UNL     1      13.068   3.691   0.762  0.00  0.00    +0.214 C 
ATOM     33  C   UNL     1      12.582   3.220  -0.586  0.00  0.00    +0.109 C 
ATOM     34  H   UNL     1      12.640   5.595   0.077  0.00  0.00    +0.155 HD
ENDBRANCH  30   8
ENDBRANCH   1  20
ENDBRANCH   6   1
TORSDOF 4
ENDMDL
MODEL 2
REMARK VINA RESULT:      -7.1     22.078     25.538
REMARK  Name = 7155437
REMARK  5 active torsions:
REMARK  status: ('A' for Active; 'I' for Inactive)
REMARK    1  A    between atoms: S_1  and  N_6
REMARK    2  A    between atoms: S_1  and  C_20
REMARK    3  A    between atoms: N_8  and  C_30
REMARK    4  A    between atoms: C_16  and  C_21
REMARK    5  A    between atoms: C_32  and  C_33
REMARK                            x       y       z     vdW  Elec       q    Type
REMARK                         _______ _______ _______ _____ _____    ______ ____
ROOT
ATOM      4  O   UNL     1      21.813  -7.398  23.594  0.00  0.00    -0.268 OA
ATOM      6  N   UNL     1      19.818  -4.616  27.173  0.00  0.00    -0.176 NA
ATOM      7  N   UNL     1      20.912  -5.360  24.316  0.00  0.00    -0.311 N 
ATOM      9  C   UNL     1      22.014  -3.988  26.180  0.00  0.00    +0.025 C 
ATOM     10  C   UNL     1      19.940  -3.191  25.136  0.00  0.00    +0.053 C 
ATOM     11  C   UNL     1      21.374  -2.799  25.484  0.00  0.00    +0.017 C 
ATOM     12  C   UNL     1      21.254  -4.344  27.467  0.00  0.00    +0.114 C 
ATOM     13  C   UNL     1      19.165  -3.497  26.433  0.00  0.00    +0.119 C 
ATOM     14  C   UNL     1      22.071  -5.158  25.197  0.00  0.00    +0.130 C 
ATOM     15  C   UNL     1      19.899  -4.389  24.184  0.00  0.00    +0.034 A 
ATOM     16  C   UNL     1      18.925  -4.550  23.250  0.00  0.00    +0.002 A 
ATOM     17  C   UNL     1      20.946  -6.526  23.531  0.00  0.00    +0.252 A 
ATOM     18  C   UNL     1      18.924  -5.743  22.426  0.00  0.00    +0.015 A 
ATOM     19  C   UNL     1      19.852  -6.693  22.547  0.00  0.00    +0.071 A 
ENDROOT
BRANCH  16  21
ATOM     21  C   UNL     1      17.852  -3.549  23.062  0.00  0.00    -0.016 A 
ATOM     24  C   UNL     1      18.158  -2.299  22.532  0.00  0.00    +0.008 A 
ATOM     25  C   UNL     1      16.543  -3.865  23.414  0.00  0.00    +0.008 A 
ATOM     28  C   UNL     1      17.147  -1.356  22.354  0.00  0.00    +0.001 A 
ATOM     29  C   UNL     1      15.532  -2.921  23.236  0.00  0.00    +0.001 A 
ATOM     31  C   UNL     1      15.833  -1.667  22.706  0.00  0.00    +0.000 A 
ENDBRANCH  16  21
BRANCH   6   1
ATOM      1  S   UNL     1      18.911  -5.281  28.462  0.00  0.00    +0.061 S 
ATOM      2  O   UNL     1      18.145  -4.229  29.096  0.00  0.00    -0.153 OA
ATOM      3  O   UNL     1      19.768  -6.151  29.241  0.00  0.00    -0.153 OA
BRANCH   1  20
ATOM     20  C   UNL     1      17.786  -6.298  27.558  0.00  0.00    +0.106 A 
ATOM     22  C   UNL     1      18.215  -6.917  26.396  0.00  0.00    +0.030 A 
ATOM     23  C   UNL     1      16.492  -6.459  28.027  0.00  0.00    +0.030 A 
ATOM     26  C   UNL     1      17.325  -7.720  25.683  0.00  0.00    +0.025 A 
ATOM     27  C   UNL     1      15.604  -7.262  27.313  0.00  0.00    +0.025 A 
ATOM     30  C   UNL     1      16.020  -7.893  26.141  0.00  0.00    +0.033 A 
BRANCH  30   8
ATOM      5  O   UNL     1      15.200 -10.759  26.568  0.00  0.00    -0.276 OA
ATOM      8  N   UNL     1      15.130  -8.697  25.427  0.00  0.00    -0.286 N 
ATOM     32  C   UNL     1      14.785 -10.033  25.671  0.00  0.00    +0.214 C 
ATOM     33  C   UNL     1      13.783 -10.544  24.666  0.00  0.00    +0.109 C 
ATOM     34  H   UNL     1      14.682  -8.247  24.632  0.00  0.00    +0.155 HD
ENDBRANCH  30   8
ENDBRANCH   1  20
ENDBRANCH   6   1
TORSDOF 4
ENDMDL
MODEL 3
REMARK VINA RESULT:      -6.9     36.395     38.637
REMARK  Name = 7155437
REMARK  5 active torsions:
REMARK  status: ('A' for Active; 'I' for Inactive)
REMARK    1  A    between atoms: S_1  and  N_6
REMARK    2  A    between atoms: S_1  and  C_20
REMARK    3  A    between atoms: N_8  and  C_30
REMARK    4  A    between atoms: C_16  and  C_21
REMARK    5  A    between atoms: C_32  and  C_33
REMARK                            x       y       z     vdW  Elec       q    Type
REMARK                         _______ _______ _______ _____ _____    ______ ____
ROOT
ATOM      4  O   UNL     1     -16.376  11.406  34.078  0.00  0.00    -0.268 OA
ATOM      6  N   UNL     1     -14.890   6.732  33.394  0.00  0.00    -0.176 NA
ATOM      7  N   UNL     1     -14.653   9.848  33.783  0.00  0.00    -0.311 N 
ATOM      9  C   UNL     1     -14.458   8.449  31.642  0.00  0.00    +0.025 C 
ATOM     10  C   UNL     1     -12.837   8.138  33.460  0.00  0.00    +0.053 C 
ATOM     11  C   UNL     1     -12.974   8.425  31.967  0.00  0.00    +0.017 C 
ATOM     12  C   UNL     1     -15.111   7.097  31.966  0.00  0.00    +0.114 C 
ATOM     13  C   UNL     1     -13.447   6.757  33.773  0.00  0.00    +0.119 C 
ATOM     14  C   UNL     1     -15.107   9.604  32.407  0.00  0.00    +0.130 C 
ATOM     15  C   UNL     1     -13.500   9.228  34.307  0.00  0.00    +0.034 A 
ATOM     16  C   UNL     1     -13.033   9.592  35.529  0.00  0.00    +0.002 A 
ATOM     17  C   UNL     1     -15.374  10.824  34.493  0.00  0.00    +0.252 A 
ATOM     18  C   UNL     1     -13.753  10.593  36.294  0.00  0.00    +0.015 A 
ATOM     19  C   UNL     1     -14.862  11.176  35.837  0.00  0.00    +0.071 A 
ENDROOT
BRANCH  16  21
ATOM     21  C   UNL     1     -11.817   8.985  36.113  0.00  0.00    -0.016 A 
ATOM     24  C   UNL     1     -10.569   9.540  35.843  0.00  0.00    +0.008 A 
ATOM     25  C   UNL     1     -11.929   7.863  36.928  0.00  0.00    +0.008 A 
ATOM     28  C   UNL     1      -9.423   8.966  36.393  0.00  0.00    +0.001 A 
ATOM     29  C   UNL     1     -10.782   7.290  37.478  0.00  0.00    +0.001 A 
ATOM     31  C   UNL     1      -9.530   7.841  37.211  0.00  0.00    +0.000 A 
ENDBRANCH  16  21
BRANCH   6   1
ATOM      1  S   UNL     1     -15.782   5.387  33.962  0.00  0.00    +0.061 S 
ATOM      2  O   UNL     1     -17.180   5.571  33.632  0.00  0.00    -0.153 OA
ATOM      3  O   UNL     1     -15.370   5.087  35.317  0.00  0.00    -0.153 OA
BRANCH   1  20
ATOM     20  C   UNL     1     -15.141   4.122  32.909  0.00  0.00    +0.106 A 
ATOM     22  C   UNL     1     -15.820   3.801  31.745  0.00  0.00    +0.030 A 
ATOM     23  C   UNL     1     -13.971   3.474  33.265  0.00  0.00    +0.030 A 
ATOM     26  C   UNL     1     -15.313   2.803  30.914  0.00  0.00    +0.025 A 
ATOM     27  C   UNL     1     -13.464   2.475  32.433  0.00  0.00    +0.025 A 
ATOM     30  C   UNL     1     -14.135   2.140  31.257  0.00  0.00    +0.033 A 
BRANCH  30   8
ATOM      5  O   UNL     1     -15.167  -0.628  30.671  0.00  0.00    -0.276 OA
ATOM      8  N   UNL     1     -13.628   1.141  30.424  0.00  0.00    -0.286 N 
ATOM     32  C   UNL     1     -14.152  -0.136  30.189  0.00  0.00    +0.214 C 
ATOM     33  C   UNL     1     -13.303  -0.918  29.217  0.00  0.00    +0.109 C 
ATOM     34  H   UNL     1     -12.771   1.382  29.931  0.00  0.00    +0.155 HD
ENDBRANCH  30   8
ENDBRANCH   1  20
ENDBRANCH   6   1
TORSDOF 4
ENDMDL
MODEL 4
REMARK VINA RESULT:      -6.7      1.645      2.009
REMARK  Name = 7155437
REMARK  5 active torsions:
REMARK  status: ('A' for Active; 'I' for Inactive)
REMARK    1  A    between atoms: S_1  and  N_6
REMARK    2  A    between atoms: S_1  and  C_20
REMARK    3  A    between atoms: N_8  and  C_30
REMARK    4  A    between atoms: C_16  and  C_21
REMARK    5  A    between atoms: C_32  and  C_33
REMARK                            x       y       z     vdW  Elec       q    Type
REMARK                         _______ _______ _______ _____ _____    ______ ____
ROOT
ATOM      4  O   UNL     1       7.591  10.970   3.882  0.00  0.00    -0.268 OA
ATOM      6  N   UNL     1      11.729  10.496   6.561  0.00  0.00    -0.176 NA
ATOM      7  N   UNL     1       8.691  10.183   5.794  0.00  0.00    -0.311 N 
ATOM      9  C   UNL     1       9.797  11.784   7.463  0.00  0.00    +0.025 C 
ATOM     10  C   UNL     1       9.914   9.359   7.831  0.00  0.00    +0.053 C 
ATOM     11  C   UNL     1       9.521  10.685   8.476  0.00  0.00    +0.017 C 
ATOM     12  C   UNL     1      11.286  11.819   7.085  0.00  0.00    +0.114 C 
ATOM     13  C   UNL     1      11.420   9.377   7.500  0.00  0.00    +0.119 C 
ATOM     14  C   UNL     1       8.895  11.565   6.247  0.00  0.00    +0.130 C 
ATOM     15  C   UNL     1       9.087   9.077   6.574  0.00  0.00    +0.034 A 
ATOM     16  C   UNL     1       8.747   7.820   6.186  0.00  0.00    +0.002 A 
ATOM     17  C   UNL     1       7.974  10.041   4.593  0.00  0.00    +0.252 A 
ATOM     18  C   UNL     1       8.011   7.634   4.950  0.00  0.00    +0.015 A 
ATOM     19  C   UNL     1       7.648   8.658   4.177  0.00  0.00    +0.071 A 
ENDROOT
BRANCH  16  21
ATOM     21  C   UNL     1       9.122   6.631   6.981  0.00  0.00    -0.016 A 
ATOM     24  C   UNL     1       9.747   5.552   6.361  0.00  0.00    +0.008 A 
ATOM     25  C   UNL     1       8.849   6.598   8.346  0.00  0.00    +0.008 A 
ATOM     28  C   UNL     1      10.100   4.431   7.111  0.00  0.00    +0.001 A 
ATOM     29  C   UNL     1       9.203   5.476   9.095  0.00  0.00    +0.001 A 
ATOM     31  C   UNL     1       9.828   4.393   8.479  0.00  0.00    +0.000 A 
ENDBRANCH  16  21
BRANCH   6   1
ATOM      1  S   UNL     1      13.287  10.462   5.856  0.00  0.00    +0.061 S 
ATOM      2  O   UNL     1      14.265  10.159   6.879  0.00  0.00    -0.153 OA
ATOM      3  O   UNL     1      13.441  11.618   4.998  0.00  0.00    -0.153 OA
BRANCH   1  20
ATOM     20  C   UNL     1      13.130   9.038   4.823  0.00  0.00    +0.106 A 
ATOM     22  C   UNL     1      11.972   8.862   4.084  0.00  0.00    +0.030 A 
ATOM     23  C   UNL     1      14.167   8.122   4.771  0.00  0.00    +0.030 A 
ATOM     26  C   UNL     1      11.849   7.738   3.268  0.00  0.00    +0.025 A 
ATOM     27  C   UNL     1      14.043   6.998   3.954  0.00  0.00    +0.025 A 
ATOM     30  C   UNL     1      12.884   6.806   3.203  0.00  0.00    +0.033 A 
BRANCH  30   8
ATOM      5  O   UNL     1      11.085   4.403   3.443  0.00  0.00    -0.276 OA
ATOM      8  N   UNL     1      12.760   5.681   2.386  0.00  0.00    -0.286 N 
ATOM     32  C   UNL     1      11.902   4.586   2.546  0.00  0.00    +0.214 C 
ATOM     33  C   UNL     1      12.074   3.573   1.442  0.00  0.00    +0.109 C 
ATOM     34  H   UNL     1      13.375   5.665   1.574  0.00  0.00    +0.155 HD
ENDBRANCH  30   8
ENDBRANCH   1  20
ENDBRANCH   6   1
TORSDOF 4
ENDMDL
MODEL 5
REMARK VINA RESULT:      -6.5     21.704     24.719
REMARK  Name = 7155437
REMARK  5 active torsions:
REMARK  status: ('A' for Active; 'I' for Inactive)
REMARK    1  A    between atoms: S_1  and  N_6
REMARK    2  A    between atoms: S_1  and  C_20
REMARK    3  A    between atoms: N_8  and  C_30
REMARK    4  A    between atoms: C_16  and  C_21
REMARK    5  A    between atoms: C_32  and  C_33
REMARK                            x       y       z     vdW  Elec       q    Type
REMARK                         _______ _______ _______ _____ _____    ______ ____
ROOT
ATOM      4  O   UNL     1      19.520  -5.047  21.259  0.00  0.00    -0.268 OA
ATOM      6  N   UNL     1      18.911  -1.972  25.093  0.00  0.00    -0.176 NA
ATOM      7  N   UNL     1      18.224  -4.264  23.046  0.00  0.00    -0.311 N 
ATOM      9  C   UNL     1      17.377  -1.845  23.134  0.00  0.00    +0.025 C 
ATOM     10  C   UNL     1      16.867  -3.389  24.974  0.00  0.00    +0.053 C 
ATOM     11  C   UNL     1      16.246  -2.425  23.966  0.00  0.00    +0.017 C 
ATOM     12  C   UNL     1      18.376  -1.085  24.022  0.00  0.00    +0.114 C 
ATOM     13  C   UNL     1      17.829  -2.614  25.897  0.00  0.00    +0.119 C 
ATOM     14  C   UNL     1      18.043  -2.980  22.354  0.00  0.00    +0.130 C 
ATOM     15  C   UNL     1      17.596  -4.541  24.277  0.00  0.00    +0.034 A 
ATOM     16  C   UNL     1      17.671  -5.789  24.808  0.00  0.00    +0.002 A 
ATOM     17  C   UNL     1      18.964  -5.230  22.342  0.00  0.00    +0.252 A 
ATOM     18  C   UNL     1      18.430  -6.811  24.113  0.00  0.00    +0.015 A 
ATOM     19  C   UNL     1      19.058  -6.571  22.962  0.00  0.00    +0.071 A 
ENDROOT
BRANCH  16  21
ATOM     21  C   UNL     1      17.012  -6.133  26.087  0.00  0.00    -0.016 A 
ATOM     24  C   UNL     1      15.728  -6.669  26.082  0.00  0.00    +0.008 A 
ATOM     25  C   UNL     1      17.682  -5.920  27.289  0.00  0.00    +0.008 A 
ATOM     28  C   UNL     1      15.107  -6.993  27.288  0.00  0.00    +0.001 A 
ATOM     29  C   UNL     1      17.061  -6.245  28.494  0.00  0.00    +0.001 A 
ATOM     31  C   UNL     1      15.774  -6.781  28.495  0.00  0.00    +0.000 A 
ENDBRANCH  16  21
BRANCH   6   1
ATOM      1  S   UNL     1      20.225  -1.342  25.989  0.00  0.00    +0.061 S 
ATOM      2  O   UNL     1      19.883  -1.340  27.396  0.00  0.00    -0.153 OA
ATOM      3  O   UNL     1      20.706  -0.141  25.338  0.00  0.00    -0.153 OA
BRANCH   1  20
ATOM     20  C   UNL     1      21.419  -2.616  25.726  0.00  0.00    +0.106 A 
ATOM     22  C   UNL     1      22.727  -2.414  26.135  0.00  0.00    +0.030 A 
ATOM     23  C   UNL     1      21.028  -3.795  25.115  0.00  0.00    +0.030 A 
ATOM     26  C   UNL     1      23.669  -3.420  25.928  0.00  0.00    +0.025 A 
ATOM     27  C   UNL     1      21.971  -4.801  24.907  0.00  0.00    +0.025 A 
ATOM     30  C   UNL     1      23.292  -4.614  25.314  0.00  0.00    +0.033 A 
BRANCH  30   8
ATOM      5  O   UNL     1      25.829  -4.613  23.692  0.00  0.00    -0.276 OA
ATOM      8  N   UNL     1      24.236  -5.621  25.107  0.00  0.00    -0.286 N 
ATOM     32  C   UNL     1      25.404  -5.566  24.337  0.00  0.00    +0.214 C 
ATOM     33  C   UNL     1      26.158  -6.872  24.370  0.00  0.00    +0.109 C 
ATOM     34  H   UNL     1      24.041  -6.502  25.579  0.00  0.00    +0.155 HD
ENDBRANCH  30   8
ENDBRANCH   1  20
ENDBRANCH   6   1
TORSDOF 4
ENDMDL
MODEL 6
REMARK VINA RESULT:      -6.5     22.509     25.990
REMARK  Name = 7155437
REMARK  5 active torsions:
REMARK  status: ('A' for Active; 'I' for Inactive)
REMARK    1  A    between atoms: S_1  and  N_6
REMARK    2  A    between atoms: S_1  and  C_20
REMARK    3  A    between atoms: N_8  and  C_30
REMARK    4  A    between atoms: C_16  and  C_21
REMARK    5  A    between atoms: C_32  and  C_33
REMARK                            x       y       z     vdW  Elec       q    Type
REMARK                         _______ _______ _______ _____ _____    ______ ____
ROOT
ATOM      4  O   UNL     1      22.555  -5.692  26.022  0.00  0.00    -0.268 OA
ATOM      6  N   UNL     1      18.909  -3.444  28.508  0.00  0.00    -0.176 NA
ATOM      7  N   UNL     1      20.983  -3.965  26.196  0.00  0.00    -0.311 N 
ATOM      9  C   UNL     1      21.065  -2.261  28.111  0.00  0.00    +0.025 C 
ATOM     10  C   UNL     1      19.282  -2.127  26.429  0.00  0.00    +0.053 C 
ATOM     11  C   UNL     1      20.386  -1.332  27.119  0.00  0.00    +0.017 C 
ATOM     12  C   UNL     1      20.063  -2.765  29.162  0.00  0.00    +0.114 C 
ATOM     13  C   UNL     1      18.251  -2.587  27.478  0.00  0.00    +0.119 C 
ATOM     14  C   UNL     1      21.720  -3.407  27.338  0.00  0.00    +0.130 C 
ATOM     15  C   UNL     1      19.845  -3.326  25.661  0.00  0.00    +0.034 A 
ATOM     16  C   UNL     1      19.283  -3.795  24.517  0.00  0.00    +0.002 A 
ATOM     17  C   UNL     1      21.556  -5.105  25.606  0.00  0.00    +0.252 A 
ATOM     18  C   UNL     1      19.843  -4.972  23.882  0.00  0.00    +0.015 A 
ATOM     19  C   UNL     1      20.901  -5.614  24.380  0.00  0.00    +0.071 A 
ENDROOT
BRANCH  16  21
ATOM     21  C   UNL     1      18.101  -3.148  23.907  0.00  0.00    -0.016 A 
ATOM     24  C   UNL     1      16.826  -3.629  24.188  0.00  0.00    +0.008 A 
ATOM     25  C   UNL     1      18.272  -2.059  23.056  0.00  0.00    +0.008 A 
ATOM     28  C   UNL     1      15.712  -3.019  23.612  0.00  0.00    +0.001 A 
ATOM     29  C   UNL     1      17.158  -1.449  22.481  0.00  0.00    +0.001 A 
ATOM     31  C   UNL     1      15.878  -1.928  22.759  0.00  0.00    +0.000 A 
ENDBRANCH  16  21
BRANCH   6   1
ATOM      1  S   UNL     1      17.852  -4.285  29.558  0.00  0.00    +0.061 S 
ATOM      2  O   UNL     1      16.762  -3.411  29.935  0.00  0.00    -0.153 OA
ATOM      3  O   UNL     1      18.636  -4.974  30.562  0.00  0.00    -0.153 OA
BRANCH   1  20
ATOM     20  C   UNL     1      17.211  -5.498  28.446  0.00  0.00    +0.106 A 
ATOM     22  C   UNL     1      15.966  -6.053  28.693  0.00  0.00    +0.030 A 
ATOM     23  C   UNL     1      17.964  -5.874  27.346  0.00  0.00    +0.030 A 
ATOM     26  C   UNL     1      15.460  -7.010  27.815  0.00  0.00    +0.025 A 
ATOM     27  C   UNL     1      17.456  -6.831  26.468  0.00  0.00    +0.025 A 
ATOM     30  C   UNL     1      16.205  -7.400  26.702  0.00  0.00    +0.033 A 
BRANCH  30   8
ATOM      5  O   UNL     1      15.674 -10.336  27.104  0.00  0.00    -0.276 OA
ATOM      8  N   UNL     1      15.697  -8.357  25.823  0.00  0.00    -0.286 N 
ATOM     32  C   UNL     1      15.471  -9.719  26.064  0.00  0.00    +0.214 C 
ATOM     33  C   UNL     1      14.910 -10.416  24.849  0.00  0.00    +0.109 C 
ATOM     34  H   UNL     1      15.466  -8.013  24.893  0.00  0.00    +0.155 HD
ENDBRANCH  30   8
ENDBRANCH   1  20
ENDBRANCH   6   1
TORSDOF 4
ENDMDL
MODEL 7
REMARK VINA RESULT:      -6.5     26.192     29.322
REMARK  Name = 7155437
REMARK  5 active torsions:
REMARK  status: ('A' for Active; 'I' for Inactive)
REMARK    1  A    between atoms: S_1  and  N_6
REMARK    2  A    between atoms: S_1  and  C_20
REMARK    3  A    between atoms: N_8  and  C_30
REMARK    4  A    between atoms: C_16  and  C_21
REMARK    5  A    between atoms: C_32  and  C_33
REMARK                            x       y       z     vdW  Elec       q    Type
REMARK                         _______ _______ _______ _____ _____    ______ ____
ROOT
ATOM      4  O   UNL     1      -9.140 -11.744  13.328  0.00  0.00    -0.268 OA
ATOM      6  N   UNL     1      -7.123 -13.080  17.649  0.00  0.00    -0.176 NA
ATOM      7  N   UNL     1      -7.347 -12.640  14.539  0.00  0.00    -0.311 N 
ATOM      9  C   UNL     1      -7.591 -14.796  15.906  0.00  0.00    +0.025 C 
ATOM     10  C   UNL     1      -5.449 -13.598  15.882  0.00  0.00    +0.053 C 
ATOM     11  C   UNL     1      -6.103 -14.957  15.646  0.00  0.00    +0.017 C 
ATOM     12  C   UNL     1      -7.849 -14.347  17.352  0.00  0.00    +0.114 C 
ATOM     13  C   UNL     1      -5.664 -13.174  17.348  0.00  0.00    +0.119 C 
ATOM     14  C   UNL     1      -8.163 -13.813  14.882  0.00  0.00    +0.130 C 
ATOM     15  C   UNL     1      -5.994 -12.535  14.924  0.00  0.00    +0.034 A 
ATOM     16  C   UNL     1      -5.238 -11.507  14.462  0.00  0.00    +0.002 A 
ATOM     17  C   UNL     1      -7.969 -11.694  13.706  0.00  0.00    +0.252 A 
ATOM     18  C   UNL     1      -5.847 -10.508  13.604  0.00  0.00    +0.015 A 
ATOM     19  C   UNL     1      -7.130 -10.565  13.246  0.00  0.00    +0.071 A 
ENDROOT
BRANCH  16  21
ATOM     21  C   UNL     1      -3.810 -11.365  14.822  0.00  0.00    -0.016 A 
ATOM     24  C   UNL     1      -3.450 -10.627  15.945  0.00  0.00    +0.008 A 
ATOM     25  C   UNL     1      -2.836 -11.974  14.036  0.00  0.00    +0.008 A 
ATOM     28  C   UNL     1      -2.104 -10.493  16.284  0.00  0.00    +0.001 A 
ATOM     29  C   UNL     1      -1.490 -11.840  14.376  0.00  0.00    +0.001 A 
ATOM     31  C   UNL     1      -1.123 -11.101  15.500  0.00  0.00    +0.000 A 
ENDBRANCH  16  21
BRANCH   6   1
ATOM      1  S   UNL     1      -7.527 -12.324  19.130  0.00  0.00    +0.061 S 
ATOM      2  O   UNL     1      -6.312 -11.906  19.796  0.00  0.00    -0.153 OA
ATOM      3  O   UNL     1      -8.514 -13.131  19.817  0.00  0.00    -0.153 OA
BRANCH   1  20
ATOM     20  C   UNL     1      -8.337 -10.875  18.527  0.00  0.00    +0.106 A 
ATOM     22  C   UNL     1      -9.636 -10.609  18.927  0.00  0.00    +0.030 A 
ATOM     23  C   UNL     1      -7.658 -10.029  17.665  0.00  0.00    +0.030 A 
ATOM     26  C   UNL     1     -10.275  -9.464  18.451  0.00  0.00    +0.025 A 
ATOM     27  C   UNL     1      -8.298  -8.884  17.190  0.00  0.00    +0.025 A 
ATOM     30  C   UNL     1      -9.606  -8.601  17.583  0.00  0.00    +0.033 A 
BRANCH  30   8
ATOM      5  O   UNL     1     -10.777  -7.996  14.876  0.00  0.00    -0.276 OA
ATOM      8  N   UNL     1     -10.245  -7.455  17.108  0.00  0.00    -0.286 N 
ATOM     32  C   UNL     1     -10.773  -7.226  15.831  0.00  0.00    +0.214 C 
ATOM     33  C   UNL     1     -11.386  -5.853  15.717  0.00  0.00    +0.109 C 
ATOM     34  H   UNL     1     -10.334  -6.697  17.782  0.00  0.00    +0.155 HD
ENDBRANCH  30   8
ENDBRANCH   1  20
ENDBRANCH   6   1
TORSDOF 4
ENDMDL
MODEL 8
REMARK VINA RESULT:      -6.4     27.293     30.654
REMARK  Name = 7155437
REMARK  5 active torsions:
REMARK  status: ('A' for Active; 'I' for Inactive)
REMARK    1  A    between atoms: S_1  and  N_6
REMARK    2  A    between atoms: S_1  and  C_20
REMARK    3  A    between atoms: N_8  and  C_30
REMARK    4  A    between atoms: C_16  and  C_21
REMARK    5  A    between atoms: C_32  and  C_33
REMARK                            x       y       z     vdW  Elec       q    Type
REMARK                         _______ _______ _______ _____ _____    ______ ____
ROOT
ATOM      4  O   UNL     1     -10.621   8.122  17.935  0.00  0.00    -0.268 OA
ATOM      6  N   UNL     1     -14.871  10.511  18.800  0.00  0.00    -0.176 NA
ATOM      7  N   UNL     1     -12.905   8.077  18.451  0.00  0.00    -0.311 N 
ATOM      9  C   UNL     1     -14.667   8.998  16.832  0.00  0.00    +0.025 C 
ATOM     10  C   UNL     1     -15.359   8.078  19.001  0.00  0.00    +0.053 C 
ATOM     11  C   UNL     1     -15.591   7.991  17.495  0.00  0.00    +0.017 C 
ATOM     12  C   UNL     1     -14.974  10.424  17.316  0.00  0.00    +0.114 C 
ATOM     13  C   UNL     1     -15.718   9.494  19.492  0.00  0.00    +0.119 C 
ATOM     14  C   UNL     1     -13.219   8.591  17.111  0.00  0.00    +0.130 C 
ATOM     15  C   UNL     1     -13.915   7.726  19.370  0.00  0.00    +0.034 A 
ATOM     16  C   UNL     1     -13.584   7.118  20.539  0.00  0.00    +0.002 A 
ATOM     17  C   UNL     1     -11.541   7.850  18.706  0.00  0.00    +0.252 A 
ATOM     18  C   UNL     1     -12.187   6.872  20.839  0.00  0.00    +0.015 A 
ATOM     19  C   UNL     1     -11.207   7.218  20.003  0.00  0.00    +0.071 A 
ENDROOT
BRANCH  16  21
ATOM     21  C   UNL     1     -14.610   6.714  21.525  0.00  0.00    -0.016 A 
ATOM     24  C   UNL     1     -14.985   7.596  22.533  0.00  0.00    +0.008 A 
ATOM     25  C   UNL     1     -15.194   5.454  21.437  0.00  0.00    +0.008 A 
ATOM     28  C   UNL     1     -15.952   7.215  23.464  0.00  0.00    +0.001 A 
ATOM     29  C   UNL     1     -16.161   5.073  22.367  0.00  0.00    +0.001 A 
ATOM     31  C   UNL     1     -16.540   5.953  23.380  0.00  0.00    +0.000 A 
ENDBRANCH  16  21
BRANCH   6   1
ATOM      1  S   UNL     1     -14.926  12.091  19.455  0.00  0.00    +0.061 S 
ATOM      2  O   UNL     1     -16.281  12.385  19.872  0.00  0.00    -0.153 OA
ATOM      3  O   UNL     1     -14.205  12.989  18.578  0.00  0.00    -0.153 OA
BRANCH   1  20
ATOM     20  C   UNL     1     -13.953  11.857  20.910  0.00  0.00    +0.106 A 
ATOM     22  C   UNL     1     -14.225  12.616  22.036  0.00  0.00    +0.030 A 
ATOM     23  C   UNL     1     -12.934  10.919  20.900  0.00  0.00    +0.030 A 
ATOM     26  C   UNL     1     -13.456  12.431  23.185  0.00  0.00    +0.025 A 
ATOM     27  C   UNL     1     -12.166  10.734  22.050  0.00  0.00    +0.025 A 
ATOM     30  C   UNL     1     -12.427  11.489  23.192  0.00  0.00    +0.033 A 
BRANCH  30   8
ATOM      5  O   UNL     1     -13.130  10.217  25.829  0.00  0.00    -0.276 OA
ATOM      8  N   UNL     1     -11.659  11.304  24.342  0.00  0.00    -0.286 N 
ATOM     32  C   UNL     1     -12.039  10.703  25.549  0.00  0.00    +0.214 C 
ATOM     33  C   UNL     1     -10.912  10.698  26.552  0.00  0.00    +0.109 C 
ATOM     34  H   UNL     1     -10.704  11.653  24.287  0.00  0.00    +0.155 HD
ENDBRANCH  30   8
ENDBRANCH   1  20
ENDBRANCH   6   1
TORSDOF 4
ENDMDL
MODEL 9
REMARK VINA RESULT:      -6.4     25.887     28.836
REMARK  Name = 7155437
REMARK  5 active torsions:
REMARK  status: ('A' for Active; 'I' for Inactive)
REMARK    1  A    between atoms: S_1  and  N_6
REMARK    2  A    between atoms: S_1  and  C_20
REMARK    3  A    between atoms: N_8  and  C_30
REMARK    4  A    between atoms: C_16  and  C_21
REMARK    5  A    between atoms: C_32  and  C_33
REMARK                            x       y       z     vdW  Elec       q    Type
REMARK                         _______ _______ _______ _____ _____    ______ ____
ROOT
ATOM      4  O   UNL     1     -14.336  -9.390  10.176  0.00  0.00    -0.268 OA
ATOM      6  N   UNL     1     -13.929  -5.034  12.497  0.00  0.00    -0.176 NA
ATOM      7  N   UNL     1     -14.253  -8.148  12.160  0.00  0.00    -0.311 N 
ATOM      9  C   UNL     1     -16.019  -6.372  12.708  0.00  0.00    +0.025 C 
ATOM     10  C   UNL     1     -14.163  -6.773  14.263  0.00  0.00    +0.053 C 
ATOM     11  C   UNL     1     -15.683  -6.693  14.154  0.00  0.00    +0.017 C 
ATOM     12  C   UNL     1     -15.404  -5.028  12.288  0.00  0.00    +0.114 C 
ATOM     13  C   UNL     1     -13.551  -5.407  13.892  0.00  0.00    +0.119 C 
ATOM     14  C   UNL     1     -15.543  -7.528  11.827  0.00  0.00    +0.130 C 
ATOM     15  C   UNL     1     -13.591  -7.882  13.376  0.00  0.00    +0.034 A 
ATOM     16  C   UNL     1     -12.478  -8.587  13.708  0.00  0.00    +0.002 A 
ATOM     17  C   UNL     1     -13.790  -9.108  11.243  0.00  0.00    +0.252 A 
ATOM     18  C   UNL     1     -11.968  -9.582  12.785  0.00  0.00    +0.015 A 
ATOM     19  C   UNL     1     -12.555  -9.836  11.615  0.00  0.00    +0.071 A 
ENDROOT
BRANCH  16  21
ATOM     21  C   UNL     1     -11.761  -8.357  14.981  0.00  0.00    -0.016 A 
ATOM     24  C   UNL     1     -10.687  -7.473  15.020  0.00  0.00    +0.008 A 
ATOM     25  C   UNL     1     -12.165  -9.026  16.133  0.00  0.00    +0.008 A 
ATOM     28  C   UNL     1     -10.010  -7.257  16.220  0.00  0.00    +0.001 A 
ATOM     29  C   UNL     1     -11.488  -8.809  17.333  0.00  0.00    +0.001 A 
ATOM     31  C   UNL     1     -10.411  -7.925  17.377  0.00  0.00    +0.000 A 
ENDBRANCH  16  21
BRANCH   6   1
ATOM      1  S   UNL     1     -13.080  -3.708  11.829  0.00  0.00    +0.061 S 
ATOM      2  O   UNL     1     -12.152  -3.193  12.814  0.00  0.00    -0.153 OA
ATOM      3  O   UNL     1     -14.022  -2.832  11.164  0.00  0.00    -0.153 OA
BRANCH   1  20
ATOM     20  C   UNL     1     -12.139  -4.536  10.585  0.00  0.00    +0.106 A 
ATOM     22  C   UNL     1     -12.175  -5.919  10.516  0.00  0.00    +0.030 A 
ATOM     23  C   UNL     1     -11.383  -3.788   9.698  0.00  0.00    +0.030 A 
ATOM     26  C   UNL     1     -11.433  -6.572   9.533  0.00  0.00    +0.025 A 
ATOM     27  C   UNL     1     -10.640  -4.442   8.715  0.00  0.00    +0.025 A 
ATOM     30  C   UNL     1     -10.666  -5.834   8.632  0.00  0.00    +0.033 A 
BRANCH  30   8
ATOM      5  O   UNL     1      -7.686  -6.097   8.281  0.00  0.00    -0.276 OA
ATOM      8  N   UNL     1      -9.923  -6.488   7.647  0.00  0.00    -0.286 N 
ATOM     32  C   UNL     1      -8.530  -6.578   7.531  0.00  0.00    +0.214 C 
ATOM     33  C   UNL     1      -8.120  -7.379   6.321  0.00  0.00    +0.109 C 
ATOM     34  H   UNL     1     -10.473  -6.955   6.929  0.00  0.00    +0.155 HD
ENDBRANCH  30   8
ENDBRANCH   1  20
ENDBRANCH   6   1
TORSDOF 4
ENDMDL
MODEL 10
REMARK VINA RESULT:      -6.3     24.346     27.069
REMARK  Name = 7155437
REMARK  5 active torsions:
REMARK  status: ('A' for Active; 'I' for Inactive)
REMARK    1  A    between atoms: S_1  and  N_6
REMARK    2  A    between atoms: S_1  and  C_20
REMARK    3  A    between atoms: N_8  and  C_30
REMARK    4  A    between atoms: C_16  and  C_21
REMARK    5  A    between atoms: C_32  and  C_33
REMARK                            x       y       z     vdW  Elec       q    Type
REMARK                         _______ _______ _______ _____ _____    ______ ____
ROOT
ATOM      4  O   UNL     1      -0.818 -10.776  15.417  0.00  0.00    -0.268 OA
ATOM      6  N   UNL     1      -5.313 -12.853  15.549  0.00  0.00    -0.176 NA
ATOM      7  N   UNL     1      -3.121 -10.657  15.006  0.00  0.00    -0.311 N 
ATOM      9  C   UNL     1      -4.835 -10.819  16.907  0.00  0.00    +0.025 C 
ATOM     10  C   UNL     1      -5.599 -10.575  14.586  0.00  0.00    +0.053 C 
ATOM     11  C   UNL     1      -5.714  -9.985  15.989  0.00  0.00    +0.017 C 
ATOM     12  C   UNL     1      -5.300 -12.284  16.927  0.00  0.00    +0.114 C 
ATOM     13  C   UNL     1      -6.115 -12.028  14.599  0.00  0.00    +0.119 C 
ATOM     14  C   UNL     1      -3.382 -10.678  16.453  0.00  0.00    +0.130 C 
ATOM     15  C   UNL     1      -4.161 -10.515  14.065  0.00  0.00    +0.034 A 
ATOM     16  C   UNL     1      -3.864 -10.352  12.749  0.00  0.00    +0.002 A 
ATOM     17  C   UNL     1      -1.765 -10.669  14.637  0.00  0.00    +0.252 A 
ATOM     18  C   UNL     1      -2.476 -10.364  12.329  0.00  0.00    +0.015 A 
ATOM     19  C   UNL     1      -1.472 -10.526  13.193  0.00  0.00    +0.071 A 
ENDROOT
BRANCH  16  21
ATOM     21  C   UNL     1      -4.919 -10.179  11.727  0.00  0.00    -0.016 A 
ATOM     24  C   UNL     1      -5.426 -11.291  11.061  0.00  0.00    +0.008 A 
ATOM     25  C   UNL     1      -5.399  -8.905  11.439  0.00  0.00    +0.008 A 
ATOM     28  C   UNL     1      -6.420 -11.128  10.097  0.00  0.00    +0.001 A 
ATOM     29  C   UNL     1      -6.394  -8.742  10.475  0.00  0.00    +0.001 A 
ATOM     31  C   UNL     1      -6.905  -9.853   9.805  0.00  0.00    +0.000 A 
ENDBRANCH  16  21
BRANCH   6   1
ATOM      1  S   UNL     1      -5.552 -14.543  15.448  0.00  0.00    +0.061 S 
ATOM      2  O   UNL     1      -6.893 -14.805  14.970  0.00  0.00    -0.153 OA
ATOM      3  O   UNL     1      -5.060 -15.162  16.661  0.00  0.00    -0.153 OA
BRANCH   1  20
ATOM     20  C   UNL     1      -4.428 -14.938  14.144  0.00  0.00    +0.106 A 
ATOM     22  C   UNL     1      -4.637 -16.083  13.393  0.00  0.00    +0.030 A 
ATOM     23  C   UNL     1      -3.357 -14.096  13.896  0.00  0.00    +0.030 A 
ATOM     26  C   UNL     1      -3.750 -16.394  12.363  0.00  0.00    +0.025 A 
ATOM     27  C   UNL     1      -2.470 -14.408  12.866  0.00  0.00    +0.025 A 
ATOM     30  C   UNL     1      -2.666 -15.556  12.099  0.00  0.00    +0.033 A 
BRANCH  30   8
ATOM      5  O   UNL     1      -0.302 -17.422  12.051  0.00  0.00    -0.276 OA
ATOM      8  N   UNL     1      -1.778 -15.868  11.068  0.00  0.00    -0.286 N 
ATOM     32  C   UNL     1      -0.689 -16.747  11.101  0.00  0.00    +0.214 C 
ATOM     33  C   UNL     1       0.024 -16.806   9.773  0.00  0.00    +0.109 C 
ATOM     34  H   UNL     1      -1.953 -15.391  10.186  0.00  0.00    +0.155 HD
ENDBRANCH  30   8
ENDBRANCH   1  20
ENDBRANCH   6   1
TORSDOF 4
ENDMDL
