MODEL 1
REMARK VINA RESULT:      -7.4      0.000      0.000
REMARK  Name = 40777964
REMARK  8 active torsions:
REMARK  status: ('A' for Active; 'I' for Inactive)
REMARK    1  A    between atoms: O_2  and  C_9
REMARK    2  A    between atoms: O_3  and  C_10
REMARK    3  A    between atoms: N_7  and  C_14
REMARK    4  A    between atoms: N_8  and  C_17
REMARK    5  A    between atoms: C_11  and  C_13
REMARK    6  A    between atoms: C_12  and  C_14
REMARK    7  A    between atoms: C_13  and  C_15
REMARK    8  A    between atoms: C_16  and  C_18
REMARK                            x       y       z     vdW  Elec       q    Type
REMARK                         _______ _______ _______ _____ _____    ______ ____
ROOT
ATOM      1  O   UNL     1      13.106   8.554  22.059  0.00  0.00    -0.366 OA
ATOM      9  C   UNL     1      12.552  10.788  22.659  0.00  0.00    +0.175 C 
ATOM     10  C   UNL     1      11.315  10.086  22.140  0.00  0.00    +0.176 C 
ATOM     11  C   UNL     1      13.669   9.883  22.150  0.00  0.00    +0.159 C 
ATOM     12  C   UNL     1      11.694   8.626  22.324  0.00  0.00    +0.167 C 
ENDROOT
BRANCH   9   2
ATOM      2  O   UNL     1      12.576  10.760  24.086  0.00  0.00    -0.387 OA
ATOM     27  H   UNL     1      11.763  10.314  24.381  0.00  0.00    +0.210 HD
ENDBRANCH   9   2
BRANCH  10   3
ATOM      3  O   UNL     1      10.141  10.422  22.849  0.00  0.00    -0.387 OA
ATOM     28  H   UNL     1      10.343  10.355  23.797  0.00  0.00    +0.210 HD
ENDBRANCH  10   3
BRANCH  11  13
ATOM     13  C   UNL     1      14.168  10.274  20.765  0.00  0.00    +0.130 C 
BRANCH  13  15
ATOM      4  O   UNL     1      16.505  10.351  20.187  0.00  0.00    -0.275 OA
ATOM      8  N   UNL     1      15.445   8.271  20.457  0.00  0.00    -0.285 N 
ATOM     15  C   UNL     1      15.521   9.661  20.434  0.00  0.00    +0.220 C 
ATOM     30  H   UNL     1      14.545   7.855  20.683  0.00  0.00    +0.155 HD
BRANCH   8  17
ATOM     17  C   UNL     1      16.486   7.346  20.203  0.00  0.00    +0.033 A 
ATOM     19  C   UNL     1      17.603   7.306  21.039  0.00  0.00    +0.023 A 
ATOM     20  C   UNL     1      16.395   6.476  19.118  0.00  0.00    +0.023 A 
ATOM     22  C   UNL     1      18.629   6.395  20.788  0.00  0.00    +0.002 A 
ATOM     23  C   UNL     1      17.421   5.565  18.867  0.00  0.00    +0.002 A 
ATOM     26  C   UNL     1      18.538   5.525  19.702  0.00  0.00    +0.000 A 
ENDBRANCH   8  17
ENDBRANCH  13  15
ENDBRANCH  11  13
BRANCH  12  14
ATOM     14  C   UNL     1      10.950   7.689  21.389  0.00  0.00    +0.138 C 
BRANCH  14   7
ATOM      5  O   UNL     1      12.820   6.963  19.334  0.00  0.00    -0.267 OA
ATOM      7  N   UNL     1      10.972   8.177  20.041  0.00  0.00    -0.306 N 
ATOM     16  C   UNL     1      11.920   7.769  19.106  0.00  0.00    +0.279 C 
ATOM     29  H   UNL     1      10.264   8.849  19.761  0.00  0.00    +0.149 HD
BRANCH  16  18
ATOM      6  O   UNL     1      10.630   8.318  17.112  0.00  0.00    -0.458 OA
ATOM     18  C   UNL     1      11.823   8.388  17.759  0.00  0.00    +0.189 A 
ATOM     21  C   UNL     1      12.751   9.054  16.992  0.00  0.00    +0.054 A 
ATOM     24  C   UNL     1      12.084   9.418  15.797  0.00  0.00    +0.042 A 
ATOM     25  C   UNL     1      10.798   8.948  15.920  0.00  0.00    +0.196 A 
ENDBRANCH  16  18
ENDBRANCH  14   7
ENDBRANCH  12  14
TORSDOF 8
ENDMDL
MODEL 2
REMARK VINA RESULT:      -6.7      2.444      6.985
REMARK  Name = 40777964
REMARK  8 active torsions:
REMARK  status: ('A' for Active; 'I' for Inactive)
REMARK    1  A    between atoms: O_2  and  C_9
REMARK    2  A    between atoms: O_3  and  C_10
REMARK    3  A    between atoms: N_7  and  C_14
REMARK    4  A    between atoms: N_8  and  C_17
REMARK    5  A    between atoms: C_11  and  C_13
REMARK    6  A    between atoms: C_12  and  C_14
REMARK    7  A    between atoms: C_13  and  C_15
REMARK    8  A    between atoms: C_16  and  C_18
REMARK                            x       y       z     vdW  Elec       q    Type
REMARK                         _______ _______ _______ _____ _____    ______ ____
ROOT
ATOM      1  O   UNL     1      12.629   8.438  22.248  0.00  0.00    -0.366 OA
ATOM      9  C   UNL     1      11.037   6.915  21.351  0.00  0.00    +0.175 C 
ATOM     10  C   UNL     1      12.063   7.251  20.290  0.00  0.00    +0.176 C 
ATOM     11  C   UNL     1      11.244   8.039  22.361  0.00  0.00    +0.159 C 
ATOM     12  C   UNL     1      13.225   7.746  21.136  0.00  0.00    +0.167 C 
ENDROOT
BRANCH   9   2
ATOM      2  O   UNL     1      11.367   5.681  21.987  0.00  0.00    -0.387 OA
ATOM     27  H   UNL     1      12.323   5.543  21.874  0.00  0.00    +0.210 HD
ENDBRANCH   9   2
BRANCH  10   3
ATOM      3  O   UNL     1      12.424   6.146  19.489  0.00  0.00    -0.387 OA
ATOM     28  H   UNL     1      11.923   5.377  19.810  0.00  0.00    +0.210 HD
ENDBRANCH  10   3
BRANCH  11  13
ATOM     13  C   UNL     1      10.382   9.262  22.077  0.00  0.00    +0.130 C 
BRANCH  13  15
ATOM      4  O   UNL     1      11.552  11.330  21.687  0.00  0.00    -0.275 OA
ATOM      8  N   UNL     1      10.989  10.713  23.883  0.00  0.00    -0.285 N 
ATOM     15  C   UNL     1      11.048  10.562  22.501  0.00  0.00    +0.220 C 
ATOM     30  H   UNL     1      10.530   9.977  24.415  0.00  0.00    +0.155 HD
BRANCH   8  17
ATOM     17  C   UNL     1      11.496  11.784  24.657  0.00  0.00    +0.033 A 
ATOM     19  C   UNL     1      12.842  11.805  25.023  0.00  0.00    +0.023 A 
ATOM     20  C   UNL     1      10.649  12.819  25.053  0.00  0.00    +0.023 A 
ATOM     22  C   UNL     1      13.341  12.860  25.786  0.00  0.00    +0.002 A 
ATOM     23  C   UNL     1      11.148  13.875  25.816  0.00  0.00    +0.002 A 
ATOM     26  C   UNL     1      12.494  13.895  26.182  0.00  0.00    +0.000 A 
ENDBRANCH   8  17
ENDBRANCH  13  15
ENDBRANCH  11  13
BRANCH  12  14
ATOM     14  C   UNL     1      14.156   8.685  20.390  0.00  0.00    +0.138 C 
BRANCH  14   7
ATOM      5  O   UNL     1      15.455   6.367  19.301  0.00  0.00    -0.267 OA
ATOM      7  N   UNL     1      15.526   8.307  20.572  0.00  0.00    -0.306 N 
ATOM     16  C   UNL     1      16.075   7.160  20.004  0.00  0.00    +0.279 C 
ATOM     29  H   UNL     1      16.119   8.905  21.140  0.00  0.00    +0.149 HD
BRANCH  16  18
ATOM      6  O   UNL     1      18.156   7.776  21.114  0.00  0.00    -0.458 OA
ATOM     18  C   UNL     1      17.505   6.895  20.310  0.00  0.00    +0.189 A 
ATOM     21  C   UNL     1      18.348   5.880  19.921  0.00  0.00    +0.054 A 
ATOM     24  C   UNL     1      19.598   6.154  20.526  0.00  0.00    +0.042 A 
ATOM     25  C   UNL     1      19.430   7.318  21.240  0.00  0.00    +0.196 A 
ENDBRANCH  16  18
ENDBRANCH  14   7
ENDBRANCH  12  14
TORSDOF 8
ENDMDL
MODEL 3
REMARK VINA RESULT:      -6.4     13.619     17.391
REMARK  Name = 40777964
REMARK  8 active torsions:
REMARK  status: ('A' for Active; 'I' for Inactive)
REMARK    1  A    between atoms: O_2  and  C_9
REMARK    2  A    between atoms: O_3  and  C_10
REMARK    3  A    between atoms: N_7  and  C_14
REMARK    4  A    between atoms: N_8  and  C_17
REMARK    5  A    between atoms: C_11  and  C_13
REMARK    6  A    between atoms: C_12  and  C_14
REMARK    7  A    between atoms: C_13  and  C_15
REMARK    8  A    between atoms: C_16  and  C_18
REMARK                            x       y       z     vdW  Elec       q    Type
REMARK                         _______ _______ _______ _____ _____    ______ ____
ROOT
ATOM      1  O   UNL     1      10.547   6.979   6.247  0.00  0.00    -0.366 OA
ATOM      9  C   UNL     1       9.861   5.563   8.031  0.00  0.00    +0.175 C 
ATOM     10  C   UNL     1       9.746   4.813   6.721  0.00  0.00    +0.176 C 
ATOM     11  C   UNL     1       9.945   7.011   7.561  0.00  0.00    +0.159 C 
ATOM     12  C   UNL     1      10.684   5.609   5.830  0.00  0.00    +0.167 C 
ENDROOT
BRANCH   9   2
ATOM      2  O   UNL     1      11.089   5.237   8.682  0.00  0.00    -0.387 OA
ATOM     27  H   UNL     1      11.032   4.308   8.962  0.00  0.00    +0.210 HD
ENDBRANCH   9   2
BRANCH  10   3
ATOM      3  O   UNL     1      10.129   3.457   6.817  0.00  0.00    -0.387 OA
ATOM     28  H   UNL     1      10.936   3.419   7.357  0.00  0.00    +0.210 HD
ENDBRANCH  10   3
BRANCH  11  13
ATOM     13  C   UNL     1       8.581   7.676   7.432  0.00  0.00    +0.130 C 
BRANCH  13  15
ATOM      4  O   UNL     1       8.956   9.809   6.378  0.00  0.00    -0.275 OA
ATOM      8  N   UNL     1       7.910   8.087   5.170  0.00  0.00    -0.285 N 
ATOM     15  C   UNL     1       8.516   8.668   6.280  0.00  0.00    +0.220 C 
ATOM     30  H   UNL     1       7.601   7.121   5.257  0.00  0.00    +0.155 HD
BRANCH   8  17
ATOM     17  C   UNL     1       7.665   8.683   3.910  0.00  0.00    +0.033 A 
ATOM     19  C   UNL     1       6.631   9.608   3.764  0.00  0.00    +0.023 A 
ATOM     20  C   UNL     1       8.458   8.345   2.814  0.00  0.00    +0.023 A 
ATOM     22  C   UNL     1       6.390  10.194   2.522  0.00  0.00    +0.002 A 
ATOM     23  C   UNL     1       8.218   8.932   1.572  0.00  0.00    +0.002 A 
ATOM     26  C   UNL     1       7.183   9.856   1.426  0.00  0.00    +0.000 A 
ENDBRANCH   8  17
ENDBRANCH  13  15
ENDBRANCH  11  13
BRANCH  12  14
ATOM     14  C   UNL     1      10.357   5.489   4.352  0.00  0.00    +0.138 C 
BRANCH  14   7
ATOM      5  O   UNL     1      10.581   3.920   1.958  0.00  0.00    -0.267 OA
ATOM      7  N   UNL     1      11.542   5.279   3.574  0.00  0.00    -0.306 N 
ATOM     16  C   UNL     1      11.560   4.499   2.421  0.00  0.00    +0.279 C 
ATOM     29  H   UNL     1      12.404   5.720   3.882  0.00  0.00    +0.149 HD
BRANCH  16  18
ATOM      6  O   UNL     1      13.754   5.389   1.843  0.00  0.00    -0.458 OA
ATOM     18  C   UNL     1      12.875   4.358   1.744  0.00  0.00    +0.189 A 
ATOM     21  C   UNL     1      13.410   3.336   0.994  0.00  0.00    +0.054 A 
ATOM     24  C   UNL     1      14.702   3.766   0.608  0.00  0.00    +0.042 A 
ATOM     25  C   UNL     1      14.864   5.020   1.150  0.00  0.00    +0.196 A 
ENDBRANCH  16  18
ENDBRANCH  14   7
ENDBRANCH  12  14
TORSDOF 8
ENDMDL
MODEL 4
REMARK VINA RESULT:      -6.4      2.197      4.979
REMARK  Name = 40777964
REMARK  8 active torsions:
REMARK  status: ('A' for Active; 'I' for Inactive)
REMARK    1  A    between atoms: O_2  and  C_9
REMARK    2  A    between atoms: O_3  and  C_10
REMARK    3  A    between atoms: N_7  and  C_14
REMARK    4  A    between atoms: N_8  and  C_17
REMARK    5  A    between atoms: C_11  and  C_13
REMARK    6  A    between atoms: C_12  and  C_14
REMARK    7  A    between atoms: C_13  and  C_15
REMARK    8  A    between atoms: C_16  and  C_18
REMARK                            x       y       z     vdW  Elec       q    Type
REMARK                         _______ _______ _______ _____ _____    ______ ____
ROOT
ATOM      1  O   UNL     1      12.424  11.153  22.584  0.00  0.00    -0.366 OA
ATOM      9  C   UNL     1      10.568  11.532  24.022  0.00  0.00    +0.175 C 
ATOM     10  C   UNL     1      11.837  11.469  24.846  0.00  0.00    +0.176 C 
ATOM     11  C   UNL     1      11.008  10.890  22.711  0.00  0.00    +0.159 C 
ATOM     12  C   UNL     1      12.895  11.766  23.798  0.00  0.00    +0.167 C 
ENDROOT
BRANCH   9   2
ATOM      2  O   UNL     1      10.217  12.890  23.755  0.00  0.00    -0.387 OA
ATOM     27  H   UNL     1      10.729  13.447  24.366  0.00  0.00    +0.210 HD
ENDBRANCH   9   2
BRANCH  10   3
ATOM      3  O   UNL     1      11.863  12.402  25.905  0.00  0.00    -0.387 OA
ATOM     28  H   UNL     1      11.905  11.900  26.736  0.00  0.00    +0.210 HD
ENDBRANCH  10   3
BRANCH  11  13
ATOM     13  C   UNL     1      10.810   9.380  22.690  0.00  0.00    +0.130 C 
BRANCH  13  15
ATOM      4  O   UNL     1      12.290   7.628  21.954  0.00  0.00    -0.275 OA
ATOM      8  N   UNL     1      11.784   9.405  20.502  0.00  0.00    -0.285 N 
ATOM     15  C   UNL     1      11.720   8.682  21.690  0.00  0.00    +0.220 C 
ATOM     30  H   UNL     1      11.244  10.266  20.448  0.00  0.00    +0.155 HD
BRANCH   8  17
ATOM     17  C   UNL     1      12.521   9.086  19.337  0.00  0.00    +0.033 A 
ATOM     19  C   UNL     1      12.536   7.776  18.858  0.00  0.00    +0.023 A 
ATOM     20  C   UNL     1      13.232  10.081  18.668  0.00  0.00    +0.023 A 
ATOM     22  C   UNL     1      13.263   7.461  17.710  0.00  0.00    +0.002 A 
ATOM     23  C   UNL     1      13.959   9.767  17.519  0.00  0.00    +0.002 A 
ATOM     26  C   UNL     1      13.974   8.456  17.041  0.00  0.00    +0.000 A 
ENDBRANCH   8  17
ENDBRANCH  13  15
ENDBRANCH  11  13
BRANCH  12  14
ATOM     14  C   UNL     1      14.265  11.213  24.151  0.00  0.00    +0.138 C 
BRANCH  14   7
ATOM      5  O   UNL     1      16.094  11.212  21.938  0.00  0.00    -0.267 OA
ATOM      7  N   UNL     1      14.602  10.095  23.321  0.00  0.00    -0.306 N 
ATOM     16  C   UNL     1      15.504  10.185  22.264  0.00  0.00    +0.279 C 
ATOM     29  H   UNL     1      14.161   9.201  23.515  0.00  0.00    +0.149 HD
BRANCH  16  18
ATOM      6  O   UNL     1      15.318   7.766  22.028  0.00  0.00    -0.458 OA
ATOM     18  C   UNL     1      15.726   8.942  21.481  0.00  0.00    +0.189 A 
ATOM     21  C   UNL     1      16.292   8.730  20.246  0.00  0.00    +0.054 A 
ATOM     24  C   UNL     1      16.228   7.334  20.018  0.00  0.00    +0.042 A 
ATOM     25  C   UNL     1      15.627   6.793  21.131  0.00  0.00    +0.196 A 
ENDBRANCH  16  18
ENDBRANCH  14   7
ENDBRANCH  12  14
TORSDOF 8
ENDMDL
MODEL 5
REMARK VINA RESULT:      -6.3      2.816      6.159
REMARK  Name = 40777964
REMARK  8 active torsions:
REMARK  status: ('A' for Active; 'I' for Inactive)
REMARK    1  A    between atoms: O_2  and  C_9
REMARK    2  A    between atoms: O_3  and  C_10
REMARK    3  A    between atoms: N_7  and  C_14
REMARK    4  A    between atoms: N_8  and  C_17
REMARK    5  A    between atoms: C_11  and  C_13
REMARK    6  A    between atoms: C_12  and  C_14
REMARK    7  A    between atoms: C_13  and  C_15
REMARK    8  A    between atoms: C_16  and  C_18
REMARK                            x       y       z     vdW  Elec       q    Type
REMARK                         _______ _______ _______ _____ _____    ______ ____
ROOT
ATOM      1  O   UNL     1      14.104   8.707  20.166  0.00  0.00    -0.366 OA
ATOM      9  C   UNL     1      15.187   6.923  21.306  0.00  0.00    +0.175 C 
ATOM     10  C   UNL     1      15.076   6.584  19.834  0.00  0.00    +0.176 C 
ATOM     11  C   UNL     1      14.169   8.048  21.451  0.00  0.00    +0.159 C 
ATOM     12  C   UNL     1      14.888   7.960  19.218  0.00  0.00    +0.167 C 
ENDROOT
BRANCH   9   2
ATOM      2  O   UNL     1      16.480   7.455  21.595  0.00  0.00    -0.387 OA
ATOM     27  H   UNL     1      16.823   6.979  22.371  0.00  0.00    +0.210 HD
ENDBRANCH   9   2
BRANCH  10   3
ATOM      3  O   UNL     1      16.215   5.925  19.323  0.00  0.00    -0.387 OA
ATOM     28  H   UNL     1      16.248   6.099  18.367  0.00  0.00    +0.210 HD
ENDBRANCH  10   3
BRANCH  11  13
ATOM     13  C   UNL     1      12.771   7.548  21.791  0.00  0.00    +0.130 C 
BRANCH  13  15
ATOM      4  O   UNL     1      10.643   8.600  21.386  0.00  0.00    -0.275 OA
ATOM      8  N   UNL     1      12.276   9.731  22.641  0.00  0.00    -0.285 N 
ATOM     15  C   UNL     1      11.754   8.674  21.901  0.00  0.00    +0.220 C 
ATOM     30  H   UNL     1      13.223   9.629  23.001  0.00  0.00    +0.155 HD
BRANCH   8  17
ATOM     17  C   UNL     1      11.642  10.955  22.964  0.00  0.00    +0.033 A 
ATOM     19  C   UNL     1      11.230  11.203  24.273  0.00  0.00    +0.023 A 
ATOM     20  C   UNL     1      11.429  11.912  21.972  0.00  0.00    +0.023 A 
ATOM     22  C   UNL     1      10.604  12.408  24.590  0.00  0.00    +0.002 A 
ATOM     23  C   UNL     1      10.804  13.117  22.289  0.00  0.00    +0.002 A 
ATOM     26  C   UNL     1      10.391  13.365  23.599  0.00  0.00    +0.000 A 
ENDBRANCH   8  17
ENDBRANCH  13  15
ENDBRANCH  11  13
BRANCH  12  14
ATOM     14  C   UNL     1      14.176   7.928  17.878  0.00  0.00    +0.138 C 
BRANCH  14   7
ATOM      5  O   UNL     1      13.596   8.504  15.125  0.00  0.00    -0.267 OA
ATOM      7  N   UNL     1      14.192   9.217  17.251  0.00  0.00    -0.306 N 
ATOM     16  C   UNL     1      13.897   9.405  15.904  0.00  0.00    +0.279 C 
ATOM     29  H   UNL     1      14.431  10.025  17.819  0.00  0.00    +0.149 HD
BRANCH  16  18
ATOM      6  O   UNL     1      13.295  11.112  14.271  0.00  0.00    -0.458 OA
ATOM     18  C   UNL     1      13.984  10.800  15.400  0.00  0.00    +0.189 A 
ATOM     21  C   UNL     1      14.659  11.901  15.874  0.00  0.00    +0.054 A 
ATOM     24  C   UNL     1      14.366  12.958  14.979  0.00  0.00    +0.042 A 
ATOM     25  C   UNL     1      13.532  12.427  14.022  0.00  0.00    +0.196 A 
ENDBRANCH  16  18
ENDBRANCH  14   7
ENDBRANCH  12  14
TORSDOF 8
ENDMDL
MODEL 6
REMARK VINA RESULT:      -6.3     26.220     28.634
REMARK  Name = 40777964
REMARK  8 active torsions:
REMARK  status: ('A' for Active; 'I' for Inactive)
REMARK    1  A    between atoms: O_2  and  C_9
REMARK    2  A    between atoms: O_3  and  C_10
REMARK    3  A    between atoms: N_7  and  C_14
REMARK    4  A    between atoms: N_8  and  C_17
REMARK    5  A    between atoms: C_11  and  C_13
REMARK    6  A    between atoms: C_12  and  C_14
REMARK    7  A    between atoms: C_13  and  C_15
REMARK    8  A    between atoms: C_16  and  C_18
REMARK                            x       y       z     vdW  Elec       q    Type
REMARK                         _______ _______ _______ _____ _____    ______ ____
ROOT
ATOM      1  O   UNL     1      -5.850 -10.521  18.553  0.00  0.00    -0.366 OA
ATOM      9  C   UNL     1      -4.791 -12.651  18.579  0.00  0.00    +0.175 C 
ATOM     10  C   UNL     1      -4.803 -12.113  17.164  0.00  0.00    +0.176 C 
ATOM     11  C   UNL     1      -5.847 -11.784  19.258  0.00  0.00    +0.159 C 
ATOM     12  C   UNL     1      -4.989 -10.625  17.405  0.00  0.00    +0.167 C 
ENDROOT
BRANCH   9   2
ATOM      2  O   UNL     1      -3.534 -12.385  19.200  0.00  0.00    -0.387 OA
ATOM     27  H   UNL     1      -3.076 -11.721  18.657  0.00  0.00    +0.210 HD
ENDBRANCH   9   2
BRANCH  10   3
ATOM      3  O   UNL     1      -3.617 -12.390  16.450  0.00  0.00    -0.387 OA
ATOM     28  H   UNL     1      -2.869 -12.160  17.026  0.00  0.00    +0.210 HD
ENDBRANCH  10   3
BRANCH  11  13
ATOM     13  C   UNL     1      -7.249 -12.372  19.168  0.00  0.00    +0.130 C 
BRANCH  13  15
ATOM      4  O   UNL     1      -8.857 -10.951  20.261  0.00  0.00    -0.275 OA
ATOM      8  N   UNL     1      -8.614 -10.846  17.926  0.00  0.00    -0.285 N 
ATOM     15  C   UNL     1      -8.336 -11.309  19.209  0.00  0.00    +0.220 C 
ATOM     30  H   UNL     1      -8.085 -11.251  17.157  0.00  0.00    +0.155 HD
BRANCH   8  17
ATOM     17  C   UNL     1      -9.559  -9.862  17.550  0.00  0.00    +0.033 A 
ATOM     19  C   UNL     1      -9.131  -8.579  17.209  0.00  0.00    +0.023 A 
ATOM     20  C   UNL     1     -10.917 -10.175  17.520  0.00  0.00    +0.023 A 
ATOM     22  C   UNL     1     -10.063  -7.609  16.839  0.00  0.00    +0.002 A 
ATOM     23  C   UNL     1     -11.849  -9.206  17.149  0.00  0.00    +0.002 A 
ATOM     26  C   UNL     1     -11.421  -7.922  16.809  0.00  0.00    +0.000 A 
ENDBRANCH   8  17
ENDBRANCH  13  15
ENDBRANCH  11  13
BRANCH  12  14
ATOM     14  C   UNL     1      -5.616  -9.898  16.229  0.00  0.00    +0.138 C 
BRANCH  14   7
ATOM      5  O   UNL     1      -6.128 -11.022  13.637  0.00  0.00    -0.267 OA
ATOM      7  N   UNL     1      -4.734  -9.881  15.100  0.00  0.00    -0.306 N 
ATOM     16  C   UNL     1      -5.064 -10.454  13.875  0.00  0.00    +0.279 C 
ATOM     29  H   UNL     1      -3.829  -9.432  15.203  0.00  0.00    +0.149 HD
BRANCH  16  18
ATOM      6  O   UNL     1      -2.730 -10.530  13.179  0.00  0.00    -0.458 OA
ATOM     18  C   UNL     1      -4.029 -10.377  12.812  0.00  0.00    +0.189 A 
ATOM     21  C   UNL     1      -4.128 -10.170  11.456  0.00  0.00    +0.054 A 
ATOM     24  C   UNL     1      -2.804 -10.199  10.956  0.00  0.00    +0.042 A 
ATOM     25  C   UNL     1      -1.991 -10.420  12.043  0.00  0.00    +0.196 A 
ENDBRANCH  16  18
ENDBRANCH  14   7
ENDBRANCH  12  14
TORSDOF 8
ENDMDL
MODEL 7
REMARK VINA RESULT:      -6.1     25.784     27.834
REMARK  Name = 40777964
REMARK  8 active torsions:
REMARK  status: ('A' for Active; 'I' for Inactive)
REMARK    1  A    between atoms: O_2  and  C_9
REMARK    2  A    between atoms: O_3  and  C_10
REMARK    3  A    between atoms: N_7  and  C_14
REMARK    4  A    between atoms: N_8  and  C_17
REMARK    5  A    between atoms: C_11  and  C_13
REMARK    6  A    between atoms: C_12  and  C_14
REMARK    7  A    between atoms: C_13  and  C_15
REMARK    8  A    between atoms: C_16  and  C_18
REMARK                            x       y       z     vdW  Elec       q    Type
REMARK                         _______ _______ _______ _____ _____    ______ ____
ROOT
ATOM      1  O   UNL     1      -6.601 -11.647  17.196  0.00  0.00    -0.366 OA
ATOM      9  C   UNL     1      -6.657 -12.127  19.525  0.00  0.00    +0.175 C 
ATOM     10  C   UNL     1      -7.354 -10.807  19.267  0.00  0.00    +0.176 C 
ATOM     11  C   UNL     1      -5.863 -12.324  18.239  0.00  0.00    +0.159 C 
ATOM     12  C   UNL     1      -7.695 -10.926  17.791  0.00  0.00    +0.167 C 
ENDROOT
BRANCH   9   2
ATOM      2  O   UNL     1      -7.614 -13.181  19.620  0.00  0.00    -0.387 OA
ATOM     27  H   UNL     1      -8.004 -13.141  20.511  0.00  0.00    +0.210 HD
ENDBRANCH   9   2
BRANCH  10   3
ATOM      3  O   UNL     1      -8.504 -10.615  20.063  0.00  0.00    -0.387 OA
ATOM     28  H   UNL     1      -9.047  -9.935  19.632  0.00  0.00    +0.210 HD
ENDBRANCH  10   3
BRANCH  11  13
ATOM     13  C   UNL     1      -4.470 -11.709  18.298  0.00  0.00    +0.130 C 
BRANCH  13  15
ATOM      4  O   UNL     1      -4.283  -9.865  16.760  0.00  0.00    -0.275 OA
ATOM      8  N   UNL     1      -3.438 -11.971  16.153  0.00  0.00    -0.285 N 
ATOM     15  C   UNL     1      -4.063 -11.050  16.989  0.00  0.00    +0.220 C 
ATOM     30  H   UNL     1      -3.333 -12.922  16.499  0.00  0.00    +0.155 HD
BRANCH   8  17
ATOM     17  C   UNL     1      -2.919 -11.745  14.856  0.00  0.00    +0.033 A 
ATOM     19  C   UNL     1      -3.082 -12.710  13.861  0.00  0.00    +0.023 A 
ATOM     20  C   UNL     1      -2.244 -10.559  14.572  0.00  0.00    +0.023 A 
ATOM     22  C   UNL     1      -2.569 -12.488  12.584  0.00  0.00    +0.002 A 
ATOM     23  C   UNL     1      -1.731 -10.336  13.294  0.00  0.00    +0.002 A 
ATOM     26  C   UNL     1      -1.894 -11.302  12.300  0.00  0.00    +0.000 A 
ENDBRANCH   8  17
ENDBRANCH  13  15
ENDBRANCH  11  13
BRANCH  12  14
ATOM     14  C   UNL     1      -7.858  -9.584  17.101  0.00  0.00    +0.138 C 
BRANCH  14   7
ATOM      5  O   UNL     1      -9.004 -10.065  14.512  0.00  0.00    -0.267 OA
ATOM      7  N   UNL     1      -7.171  -9.561  15.843  0.00  0.00    -0.306 N 
ATOM     16  C   UNL     1      -7.808  -9.808  14.630  0.00  0.00    +0.279 C 
ATOM     29  H   UNL     1      -6.176  -9.356  15.843  0.00  0.00    +0.149 HD
BRANCH  16  18
ATOM      6  O   UNL     1      -7.479  -9.252  12.280  0.00  0.00    -0.458 OA
ATOM     18  C   UNL     1      -6.950  -9.773  13.418  0.00  0.00    +0.189 A 
ATOM     21  C   UNL     1      -5.656 -10.187  13.204  0.00  0.00    +0.054 A 
ATOM     24  C   UNL     1      -5.370  -9.899  11.847  0.00  0.00    +0.042 A 
ATOM     25  C   UNL     1      -6.511  -9.332  11.329  0.00  0.00    +0.196 A 
ENDBRANCH  16  18
ENDBRANCH  14   7
ENDBRANCH  12  14
TORSDOF 8
ENDMDL
MODEL 8
REMARK VINA RESULT:      -5.8     25.545     28.172
REMARK  Name = 40777964
REMARK  8 active torsions:
REMARK  status: ('A' for Active; 'I' for Inactive)
REMARK    1  A    between atoms: O_2  and  C_9
REMARK    2  A    between atoms: O_3  and  C_10
REMARK    3  A    between atoms: N_7  and  C_14
REMARK    4  A    between atoms: N_8  and  C_17
REMARK    5  A    between atoms: C_11  and  C_13
REMARK    6  A    between atoms: C_12  and  C_14
REMARK    7  A    between atoms: C_13  and  C_15
REMARK    8  A    between atoms: C_16  and  C_18
REMARK                            x       y       z     vdW  Elec       q    Type
REMARK                         _______ _______ _______ _____ _____    ______ ____
ROOT
ATOM      1  O   UNL     1      -3.160 -10.283  16.342  0.00  0.00    -0.366 OA
ATOM      9  C   UNL     1      -4.718 -12.074  16.188  0.00  0.00    +0.175 C 
ATOM     10  C   UNL     1      -3.840 -12.064  14.954  0.00  0.00    +0.176 C 
ATOM     11  C   UNL     1      -4.490 -10.675  16.751  0.00  0.00    +0.159 C 
ATOM     12  C   UNL     1      -2.636 -11.277  15.443  0.00  0.00    +0.167 C 
ENDROOT
BRANCH   9   2
ATOM      2  O   UNL     1      -4.227 -13.019  17.138  0.00  0.00    -0.387 OA
ATOM     27  H   UNL     1      -3.256 -13.009  17.083  0.00  0.00    +0.210 HD
ENDBRANCH   9   2
BRANCH  10   3
ATOM      3  O   UNL     1      -3.484 -13.356  14.511  0.00  0.00    -0.387 OA
ATOM     28  H   UNL     1      -4.162 -13.973  14.834  0.00  0.00    +0.210 HD
ENDBRANCH  10   3
BRANCH  11  13
ATOM     13  C   UNL     1      -5.469  -9.645  16.203  0.00  0.00    +0.130 C 
BRANCH  13  15
ATOM      4  O   UNL     1      -6.885 -10.004  18.118  0.00  0.00    -0.275 OA
ATOM      8  N   UNL     1      -7.816  -9.173  16.128  0.00  0.00    -0.285 N 
ATOM     15  C   UNL     1      -6.795  -9.638  16.950  0.00  0.00    +0.220 C 
ATOM     30  H   UNL     1      -7.568  -8.907  15.177  0.00  0.00    +0.155 HD
BRANCH   8  17
ATOM     17  C   UNL     1      -9.185  -9.020  16.454  0.00  0.00    +0.033 A 
ATOM     19  C   UNL     1      -9.713  -7.747  16.666  0.00  0.00    +0.023 A 
ATOM     20  C   UNL     1     -10.005 -10.143  16.565  0.00  0.00    +0.023 A 
ATOM     22  C   UNL     1     -11.062  -7.596  16.989  0.00  0.00    +0.002 A 
ATOM     23  C   UNL     1     -11.353  -9.992  16.887  0.00  0.00    +0.002 A 
ATOM     26  C   UNL     1     -11.882  -8.718  17.099  0.00  0.00    +0.000 A 
ENDBRANCH   8  17
ENDBRANCH  13  15
ENDBRANCH  11  13
BRANCH  12  14
ATOM     14  C   UNL     1      -1.866 -10.599  14.324  0.00  0.00    +0.138 C 
BRANCH  14   7
ATOM      5  O   UNL     1      -0.981  -9.646  11.764  0.00  0.00    -0.267 OA
ATOM      7  N   UNL     1      -2.625 -10.582  13.109  0.00  0.00    -0.306 N 
ATOM     16  C   UNL     1      -2.114 -10.099  11.907  0.00  0.00    +0.279 C 
ATOM     29  H   UNL     1      -3.576 -10.937  13.130  0.00  0.00    +0.149 HD
BRANCH  16  18
ATOM      6  O   UNL     1      -3.499 -11.333  10.325  0.00  0.00    -0.458 OA
ATOM     18  C   UNL     1      -3.037 -10.124  10.743  0.00  0.00    +0.189 A 
ATOM     21  C   UNL     1      -3.547  -9.115   9.960  0.00  0.00    +0.054 A 
ATOM     24  C   UNL     1      -4.376  -9.743   8.999  0.00  0.00    +0.042 A 
ATOM     25  C   UNL     1      -4.313 -11.091   9.264  0.00  0.00    +0.196 A 
ENDBRANCH  16  18
ENDBRANCH  14   7
ENDBRANCH  12  14
TORSDOF 8
ENDMDL
MODEL 9
REMARK VINA RESULT:      -5.7     17.233     20.981
REMARK  Name = 40777964
REMARK  8 active torsions:
REMARK  status: ('A' for Active; 'I' for Inactive)
REMARK    1  A    between atoms: O_2  and  C_9
REMARK    2  A    between atoms: O_3  and  C_10
REMARK    3  A    between atoms: N_7  and  C_14
REMARK    4  A    between atoms: N_8  and  C_17
REMARK    5  A    between atoms: C_11  and  C_13
REMARK    6  A    between atoms: C_12  and  C_14
REMARK    7  A    between atoms: C_13  and  C_15
REMARK    8  A    between atoms: C_16  and  C_18
REMARK                            x       y       z     vdW  Elec       q    Type
REMARK                         _______ _______ _______ _____ _____    ______ ____
ROOT
ATOM      1  O   UNL     1      13.192   5.480   1.066  0.00  0.00    -0.366 OA
ATOM      9  C   UNL     1      14.766   3.828   0.397  0.00  0.00    +0.175 C 
ATOM     10  C   UNL     1      14.156   4.467  -0.832  0.00  0.00    +0.176 C 
ATOM     11  C   UNL     1      13.777   4.227   1.487  0.00  0.00    +0.159 C 
ATOM     12  C   UNL     1      13.639   5.780  -0.268  0.00  0.00    +0.167 C 
ENDROOT
BRANCH   9   2
ATOM      2  O   UNL     1      16.024   4.431   0.696  0.00  0.00    -0.387 OA
ATOM     27  H   UNL     1      15.850   5.193   1.276  0.00  0.00    +0.210 HD
ENDBRANCH   9   2
BRANCH  10   3
ATOM      3  O   UNL     1      15.082   4.668  -1.878  0.00  0.00    -0.387 OA
ATOM     28  H   UNL     1      14.640   5.198  -2.563  0.00  0.00    +0.210 HD
ENDBRANCH  10   3
BRANCH  11  13
ATOM     13  C   UNL     1      12.648   3.221   1.665  0.00  0.00    +0.130 C 
BRANCH  13  15
ATOM      4  O   UNL     1      10.333   3.743   1.255  0.00  0.00    -0.275 OA
ATOM      8  N   UNL     1      11.403   4.629   3.150  0.00  0.00    -0.285 N 
ATOM     15  C   UNL     1      11.314   3.884   1.977  0.00  0.00    +0.220 C 
ATOM     30  H   UNL     1      12.299   4.639   3.632  0.00  0.00    +0.155 HD
BRANCH   8  17
ATOM     17  C   UNL     1      10.381   5.388   3.768  0.00  0.00    +0.033 A 
ATOM     19  C   UNL     1       9.777   4.924   4.937  0.00  0.00    +0.023 A 
ATOM     20  C   UNL     1       9.978   6.600   3.210  0.00  0.00    +0.023 A 
ATOM     22  C   UNL     1       8.770   5.671   5.546  0.00  0.00    +0.002 A 
ATOM     23  C   UNL     1       8.971   7.349   3.819  0.00  0.00    +0.002 A 
ATOM     26  C   UNL     1       8.367   6.884   4.987  0.00  0.00    +0.000 A 
ENDBRANCH   8  17
ENDBRANCH  13  15
ENDBRANCH  11  13
BRANCH  12  14
ATOM     14  C   UNL     1      12.493   6.371  -1.070  0.00  0.00    +0.138 C 
BRANCH  14   7
ATOM      5  O   UNL     1       9.735   5.621  -1.347  0.00  0.00    -0.267 OA
ATOM      7  N   UNL     1      11.955   5.411  -1.989  0.00  0.00    -0.306 N 
ATOM     16  C   UNL     1      10.598   5.108  -2.056  0.00  0.00    +0.279 C 
ATOM     29  H   UNL     1      12.596   4.935  -2.617  0.00  0.00    +0.149 HD
BRANCH  16  18
ATOM      6  O   UNL     1      10.015   2.803  -2.593  0.00  0.00    -0.458 OA
ATOM     18  C   UNL     1      10.203   4.071  -3.044  0.00  0.00    +0.189 A 
ATOM     21  C   UNL     1       9.978   4.141  -4.399  0.00  0.00    +0.054 A 
ATOM     24  C   UNL     1       9.627   2.832  -4.807  0.00  0.00    +0.042 A 
ATOM     25  C   UNL     1       9.664   2.055  -3.672  0.00  0.00    +0.196 A 
ENDBRANCH  16  18
ENDBRANCH  14   7
ENDBRANCH  12  14
TORSDOF 8
ENDMDL
MODEL 10
REMARK VINA RESULT:      -5.6     25.229     27.978
REMARK  Name = 40777964
REMARK  8 active torsions:
REMARK  status: ('A' for Active; 'I' for Inactive)
REMARK    1  A    between atoms: O_2  and  C_9
REMARK    2  A    between atoms: O_3  and  C_10
REMARK    3  A    between atoms: N_7  and  C_14
REMARK    4  A    between atoms: N_8  and  C_17
REMARK    5  A    between atoms: C_11  and  C_13
REMARK    6  A    between atoms: C_12  and  C_14
REMARK    7  A    between atoms: C_13  and  C_15
REMARK    8  A    between atoms: C_16  and  C_18
REMARK                            x       y       z     vdW  Elec       q    Type
REMARK                         _______ _______ _______ _____ _____    ______ ____
ROOT
ATOM      1  O   UNL     1      -5.980 -10.977  10.885  0.00  0.00    -0.366 OA
ATOM      9  C   UNL     1      -6.615  -8.849  10.034  0.00  0.00    +0.175 C 
ATOM     10  C   UNL     1      -5.302  -9.269   9.407  0.00  0.00    +0.176 C 
ATOM     11  C   UNL     1      -6.703  -9.777  11.240  0.00  0.00    +0.159 C 
ATOM     12  C   UNL     1      -5.333 -10.773   9.616  0.00  0.00    +0.167 C 
ENDROOT
BRANCH   9   2
ATOM      2  O   UNL     1      -7.701  -9.155   9.160  0.00  0.00    -0.387 OA
ATOM     27  H   UNL     1      -7.360  -9.122   8.249  0.00  0.00    +0.210 HD
ENDBRANCH   9   2
BRANCH  10   3
ATOM      3  O   UNL     1      -5.197  -8.925   8.042  0.00  0.00    -0.387 OA
ATOM     28  H   UNL     1      -5.891  -8.272   7.851  0.00  0.00    +0.210 HD
ENDBRANCH  10   3
BRANCH  11  13
ATOM     13  C   UNL     1      -6.053  -9.194  12.489  0.00  0.00    +0.130 C 
BRANCH  13  15
ATOM      4  O   UNL     1      -7.321 -10.799  13.760  0.00  0.00    -0.275 OA
ATOM      8  N   UNL     1      -5.710  -9.475  14.842  0.00  0.00    -0.285 N 
ATOM     15  C   UNL     1      -6.454  -9.931  13.758  0.00  0.00    +0.220 C 
ATOM     30  H   UNL     1      -5.024  -8.744  14.666  0.00  0.00    +0.155 HD
BRANCH   8  17
ATOM     17  C   UNL     1      -5.789  -9.910  16.187  0.00  0.00    +0.033 A 
ATOM     19  C   UNL     1      -6.942  -9.664  16.933  0.00  0.00    +0.023 A 
ATOM     20  C   UNL     1      -4.714 -10.584  16.766  0.00  0.00    +0.023 A 
ATOM     22  C   UNL     1      -7.019 -10.092  18.258  0.00  0.00    +0.002 A 
ATOM     23  C   UNL     1      -4.791 -11.012  18.091  0.00  0.00    +0.002 A 
ATOM     26  C   UNL     1      -5.944 -10.766  18.837  0.00  0.00    +0.000 A 
ENDBRANCH   8  17
ENDBRANCH  13  15
ENDBRANCH  11  13
BRANCH  12  14
ATOM     14  C   UNL     1      -3.953 -11.406   9.639  0.00  0.00    +0.138 C 
BRANCH  14   7
ATOM      5  O   UNL     1      -2.132  -9.631  10.973  0.00  0.00    -0.267 OA
ATOM      7  N   UNL     1      -3.463 -11.533  10.980  0.00  0.00    -0.306 N 
ATOM     16  C   UNL     1      -2.578 -10.621  11.550  0.00  0.00    +0.279 C 
ATOM     29  H   UNL     1      -3.778 -12.323  11.535  0.00  0.00    +0.149 HD
BRANCH  16  18
ATOM      6  O   UNL     1      -1.811  -9.854  13.732  0.00  0.00    -0.458 OA
ATOM     18  C   UNL     1      -2.144 -10.908  12.941  0.00  0.00    +0.189 A 
ATOM     21  C   UNL     1      -2.003 -12.091  13.628  0.00  0.00    +0.054 A 
ATOM     24  C   UNL     1      -1.556 -11.742  14.925  0.00  0.00    +0.042 A 
ATOM     25  C   UNL     1      -1.455 -10.370  14.938  0.00  0.00    +0.196 A 
ENDBRANCH  16  18
ENDBRANCH  14   7
ENDBRANCH  12  14
TORSDOF 8
ENDMDL
