MODEL 1
REMARK VINA RESULT:      -8.5      0.000      0.000
REMARK  Name = 45360648
REMARK  7 active torsions:
REMARK  status: ('A' for Active; 'I' for Inactive)
REMARK    1  A    between atoms: N_5  and  C_9
REMARK    2  A    between atoms: N_5  and  C_17
REMARK    3  A    between atoms: N_7  and  C_31
REMARK    4  A    between atoms: C_10  and  C_14
REMARK    5  A    between atoms: C_14  and  C_16
REMARK    6  A    between atoms: C_16  and  C_18
REMARK    7  A    between atoms: C_17  and  C_19
REMARK                            x       y       z     vdW  Elec       q    Type
REMARK                         _______ _______ _______ _____ _____    ______ ____
ROOT
ATOM      1  O   UNL     1      11.662   7.584  17.613  0.00  0.00    -0.274 OA
ATOM      3  N   UNL     1      13.594   7.026  20.659  0.00  0.00    -0.286 NA
ATOM      4  N   UNL     1      13.914   7.601  17.932  0.00  0.00    -0.313 N 
ATOM      8  C   UNL     1      12.410   6.925  19.796  0.00  0.00    +0.145 C 
ATOM      9  C   UNL     1      12.051   8.338  21.738  0.00  0.00    +0.070 C 
ATOM     10  C   UNL     1      14.847   6.674  20.002  0.00  0.00    +0.075 C 
ATOM     11  C   UNL     1      11.342   7.769  20.508  0.00  0.00    +0.048 C 
ATOM     12  C   UNL     1      13.520   8.315  21.342  0.00  0.00    +0.104 C 
ATOM     13  C   UNL     1      15.082   7.549  18.780  0.00  0.00    +0.123 C 
ATOM     15  C   UNL     1      12.624   7.418  18.369  0.00  0.00    +0.230 C 
ATOM     36  H   UNL     1      14.044   7.910  16.973  0.00  0.00    +0.149 HD
ENDROOT
BRANCH   9   5
ATOM      5  N   UNL     1      11.572   9.659  22.112  0.00  0.00    -0.308 NA
ATOM     37  H   UNL     1      11.099   9.589  23.014  0.00  0.00    +0.123 HD
BRANCH   5  17
ATOM     17  C   UNL     1      12.678  10.597  22.255  0.00  0.00    +0.118 C 
BRANCH  17  19
ATOM      7  N   UNL     1      12.888  13.111  19.576  0.00  0.00    -0.349 N 
ATOM     19  C   UNL     1      12.556  11.758  21.304  0.00  0.00    -0.008 A 
ATOM     21  C   UNL     1      11.661  12.858  21.421  0.00  0.00    +0.004 A 
ATOM     23  C   UNL     1      13.297  11.942  20.160  0.00  0.00    +0.091 A 
ATOM     26  C   UNL     1      11.890  13.692  20.325  0.00  0.00    +0.049 A 
ATOM     27  C   UNL     1      10.675  13.226  22.358  0.00  0.00    +0.010 A 
ATOM     30  C   UNL     1      11.179  14.879  20.118  0.00  0.00    +0.026 A 
ATOM     31  C   UNL     1      13.439  13.646  18.349  0.00  0.00    +0.149 C 
ATOM     33  C   UNL     1       9.956  14.410  22.164  0.00  0.00    +0.001 A 
ATOM     35  C   UNL     1      10.206  15.224  21.060  0.00  0.00    +0.002 A 
ENDBRANCH  17  19
ENDBRANCH   5  17
ENDBRANCH   9   5
BRANCH  10  14
ATOM     14  C   UNL     1      16.048   6.722  20.949  0.00  0.00    +0.029 C 
BRANCH  14  16
ATOM     16  C   UNL     1      17.306   7.235  20.264  0.00  0.00    +0.098 C 
BRANCH  16  18
ATOM      2  O   UNL     1      18.353   5.287  19.411  0.00  0.00    -0.275 OA
ATOM      6  N   UNL     1      19.355   6.330  21.243  0.00  0.00    -0.271 N 
ATOM     18  C   UNL     1      18.388   6.180  20.257  0.00  0.00    +0.220 C 
ATOM     20  C   UNL     1      19.395   7.404  22.257  0.00  0.00    +0.118 C 
ATOM     22  C   UNL     1      20.463   5.483  21.449  0.00  0.00    +0.039 A 
ATOM     24  C   UNL     1      20.634   7.176  23.129  0.00  0.00    +0.056 C 
ATOM     25  C   UNL     1      21.221   5.942  22.529  0.00  0.00    -0.024 A 
ATOM     28  C   UNL     1      20.844   4.345  20.752  0.00  0.00    +0.024 A 
ATOM     29  C   UNL     1      22.369   5.280  22.936  0.00  0.00    +0.005 A 
ATOM     32  C   UNL     1      22.001   3.672  21.157  0.00  0.00    +0.002 A 
ATOM     34  C   UNL     1      22.758   4.135  22.242  0.00  0.00    +0.000 A 
ENDBRANCH  16  18
ENDBRANCH  14  16
ENDBRANCH  10  14
TORSDOF 6
ENDMDL
MODEL 2
REMARK VINA RESULT:      -8.3      1.441      2.179
REMARK  Name = 45360648
REMARK  7 active torsions:
REMARK  status: ('A' for Active; 'I' for Inactive)
REMARK    1  A    between atoms: N_5  and  C_9
REMARK    2  A    between atoms: N_5  and  C_17
REMARK    3  A    between atoms: N_7  and  C_31
REMARK    4  A    between atoms: C_10  and  C_14
REMARK    5  A    between atoms: C_14  and  C_16
REMARK    6  A    between atoms: C_16  and  C_18
REMARK    7  A    between atoms: C_17  and  C_19
REMARK                            x       y       z     vdW  Elec       q    Type
REMARK                         _______ _______ _______ _____ _____    ______ ____
ROOT
ATOM      1  O   UNL     1      11.573   7.648  17.358  0.00  0.00    -0.274 OA
ATOM      3  N   UNL     1      13.355   7.222  20.515  0.00  0.00    -0.286 NA
ATOM      4  N   UNL     1      13.804   7.458  17.755  0.00  0.00    -0.313 N 
ATOM      8  C   UNL     1      12.189   7.155  19.624  0.00  0.00    +0.145 C 
ATOM      9  C   UNL     1      11.941   8.803  21.391  0.00  0.00    +0.070 C 
ATOM     10  C   UNL     1      14.578   6.668  19.945  0.00  0.00    +0.075 C 
ATOM     11  C   UNL     1      11.203   8.182  20.204  0.00  0.00    +0.048 C 
ATOM     12  C   UNL     1      13.408   8.578  21.054  0.00  0.00    +0.104 C 
ATOM     13  C   UNL     1      14.938   7.374  18.647  0.00  0.00    +0.123 C 
ATOM     15  C   UNL     1      12.492   7.463  18.162  0.00  0.00    +0.230 C 
ATOM     36  H   UNL     1      13.992   7.644  16.775  0.00  0.00    +0.149 HD
ENDROOT
BRANCH   9   5
ATOM      5  N   UNL     1      11.602  10.201  21.605  0.00  0.00    -0.308 NA
ATOM     37  H   UNL     1      10.957  10.261  22.394  0.00  0.00    +0.123 HD
BRANCH   5  17
ATOM     17  C   UNL     1      12.788  10.983  21.932  0.00  0.00    +0.118 C 
BRANCH  17  19
ATOM      7  N   UNL     1      12.699  12.979  25.022  0.00  0.00    -0.349 N 
ATOM     19  C   UNL     1      12.534  11.937  23.069  0.00  0.00    -0.008 A 
ATOM     21  C   UNL     1      11.540  12.954  23.115  0.00  0.00    +0.004 A 
ATOM     23  C   UNL     1      13.230  11.977  24.255  0.00  0.00    +0.091 A 
ATOM     26  C   UNL     1      11.664  13.593  24.351  0.00  0.00    +0.049 A 
ATOM     27  C   UNL     1      10.543  13.394  22.222  0.00  0.00    +0.010 A 
ATOM     30  C   UNL     1      10.839  14.654  24.739  0.00  0.00    +0.026 A 
ATOM     31  C   UNL     1      13.166  13.328  26.346  0.00  0.00    +0.149 C 
ATOM     33  C   UNL     1       9.710  14.454  22.597  0.00  0.00    +0.001 A 
ATOM     35  C   UNL     1       9.857  15.073  23.837  0.00  0.00    +0.002 A 
ENDBRANCH  17  19
ENDBRANCH   5  17
ENDBRANCH   9   5
BRANCH  10  14
ATOM     14  C   UNL     1      15.752   6.689  20.924  0.00  0.00    +0.029 C 
BRANCH  14  16
ATOM     16  C   UNL     1      16.999   7.318  20.321  0.00  0.00    +0.098 C 
BRANCH  16  18
ATOM      2  O   UNL     1      18.079   5.454  19.332  0.00  0.00    -0.275 OA
ATOM      6  N   UNL     1      19.123   6.454  21.165  0.00  0.00    -0.271 N 
ATOM     18  C   UNL     1      18.119   6.310  20.217  0.00  0.00    +0.220 C 
ATOM     20  C   UNL     1      19.169   7.482  22.226  0.00  0.00    +0.118 C 
ATOM     22  C   UNL     1      20.272   5.644  21.282  0.00  0.00    +0.039 A 
ATOM     24  C   UNL     1      20.455   7.266  23.031  0.00  0.00    +0.056 C 
ATOM     25  C   UNL     1      21.060   6.084  22.348  0.00  0.00    -0.024 A 
ATOM     28  C   UNL     1      20.663   4.555  20.517  0.00  0.00    +0.024 A 
ATOM     29  C   UNL     1      22.251   5.452  22.673  0.00  0.00    +0.005 A 
ATOM     32  C   UNL     1      21.863   3.911  20.839  0.00  0.00    +0.002 A 
ATOM     34  C   UNL     1      22.651   4.355  21.909  0.00  0.00    +0.000 A 
ENDBRANCH  16  18
ENDBRANCH  14  16
ENDBRANCH  10  14
TORSDOF 6
ENDMDL
MODEL 3
REMARK VINA RESULT:      -8.2     27.977     31.912
REMARK  Name = 45360648
REMARK  7 active torsions:
REMARK  status: ('A' for Active; 'I' for Inactive)
REMARK    1  A    between atoms: N_5  and  C_9
REMARK    2  A    between atoms: N_5  and  C_17
REMARK    3  A    between atoms: N_7  and  C_31
REMARK    4  A    between atoms: C_10  and  C_14
REMARK    5  A    between atoms: C_14  and  C_16
REMARK    6  A    between atoms: C_16  and  C_18
REMARK    7  A    between atoms: C_17  and  C_19
REMARK                            x       y       z     vdW  Elec       q    Type
REMARK                         _______ _______ _______ _____ _____    ______ ____
ROOT
ATOM      1  O   UNL     1     -17.990   2.271  21.604  0.00  0.00    -0.274 OA
ATOM      3  N   UNL     1     -17.198   2.670  25.144  0.00  0.00    -0.286 NA
ATOM      4  N   UNL     1     -17.598   0.693  23.194  0.00  0.00    -0.313 N 
ATOM      8  C   UNL     1     -17.737   3.091  23.845  0.00  0.00    +0.145 C 
ATOM      9  C   UNL     1     -15.776   4.358  24.515  0.00  0.00    +0.070 C 
ATOM     10  C   UNL     1     -17.612   1.336  25.562  0.00  0.00    +0.075 C 
ATOM     11  C   UNL     1     -16.824   4.248  23.407  0.00  0.00    +0.048 C 
ATOM     12  C   UNL     1     -15.768   2.968  25.135  0.00  0.00    +0.104 C 
ATOM     13  C   UNL     1     -17.209   0.296  24.528  0.00  0.00    +0.123 C 
ATOM     15  C   UNL     1     -17.763   1.994  22.786  0.00  0.00    +0.230 C 
ATOM     36  H   UNL     1     -17.639  -0.030  22.483  0.00  0.00    +0.149 HD
ENDROOT
BRANCH   9   5
ATOM      5  N   UNL     1     -14.474   4.784  24.028  0.00  0.00    -0.308 NA
ATOM     37  H   UNL     1     -13.810   4.021  24.167  0.00  0.00    +0.123 HD
BRANCH   5  17
ATOM     17  C   UNL     1     -14.521   5.089  22.604  0.00  0.00    +0.118 C 
BRANCH  17  19
ATOM      7  N   UNL     1     -14.557   8.760  22.350  0.00  0.00    -0.349 N 
ATOM     19  C   UNL     1     -14.303   6.555  22.337  0.00  0.00    -0.008 A 
ATOM     21  C   UNL     1     -13.265   7.127  21.550  0.00  0.00    +0.004 A 
ATOM     23  C   UNL     1     -15.081   7.584  22.815  0.00  0.00    +0.091 A 
ATOM     26  C   UNL     1     -13.446   8.511  21.574  0.00  0.00    +0.049 A 
ATOM     27  C   UNL     1     -12.184   6.598  20.816  0.00  0.00    +0.010 A 
ATOM     30  C   UNL     1     -12.599   9.397  20.899  0.00  0.00    +0.026 A 
ATOM     31  C   UNL     1     -15.104  10.068  22.640  0.00  0.00    +0.149 C 
ATOM     33  C   UNL     1     -11.328   7.472  20.136  0.00  0.00    +0.001 A 
ATOM     35  C   UNL     1     -11.534   8.849  20.178  0.00  0.00    +0.002 A 
ENDBRANCH  17  19
ENDBRANCH   5  17
ENDBRANCH   9   5
BRANCH  10  14
ATOM     14  C   UNL     1     -17.091   0.959  26.950  0.00  0.00    +0.029 C 
BRANCH  14  16
ATOM     16  C   UNL     1     -17.968   1.506  28.066  0.00  0.00    +0.098 C 
BRANCH  16  18
ATOM      2  O   UNL     1     -17.443   3.714  28.752  0.00  0.00    -0.275 OA
ATOM      6  N   UNL     1     -16.303   1.965  29.796  0.00  0.00    -0.271 N 
ATOM     18  C   UNL     1     -17.214   2.514  28.903  0.00  0.00    +0.220 C 
ATOM     20  C   UNL     1     -16.031   0.524  29.976  0.00  0.00    +0.118 C 
ATOM     22  C   UNL     1     -15.480   2.686  30.685  0.00  0.00    +0.039 A 
ATOM     24  C   UNL     1     -14.964   0.382  31.066  0.00  0.00    +0.056 C 
ATOM     25  C   UNL     1     -14.694   1.804  31.430  0.00  0.00    -0.024 A 
ATOM     28  C   UNL     1     -15.379   4.057  30.876  0.00  0.00    +0.024 A 
ATOM     29  C   UNL     1     -13.795   2.266  32.380  0.00  0.00    +0.005 A 
ATOM     32  C   UNL     1     -14.474   4.531  31.832  0.00  0.00    +0.002 A 
ATOM     34  C   UNL     1     -13.687   3.643  32.578  0.00  0.00    +0.000 A 
ENDBRANCH  16  18
ENDBRANCH  14  16
ENDBRANCH  10  14
TORSDOF 6
ENDMDL
MODEL 4
REMARK VINA RESULT:      -8.2      1.583      2.386
REMARK  Name = 45360648
REMARK  7 active torsions:
REMARK  status: ('A' for Active; 'I' for Inactive)
REMARK    1  A    between atoms: N_5  and  C_9
REMARK    2  A    between atoms: N_5  and  C_17
REMARK    3  A    between atoms: N_7  and  C_31
REMARK    4  A    between atoms: C_10  and  C_14
REMARK    5  A    between atoms: C_14  and  C_16
REMARK    6  A    between atoms: C_16  and  C_18
REMARK    7  A    between atoms: C_17  and  C_19
REMARK                            x       y       z     vdW  Elec       q    Type
REMARK                         _______ _______ _______ _____ _____    ______ ____
ROOT
ATOM      1  O   UNL     1      12.589   8.725  17.695  0.00  0.00    -0.274 OA
ATOM      3  N   UNL     1      14.167   6.779  20.349  0.00  0.00    -0.286 NA
ATOM      4  N   UNL     1      14.645   8.952  18.640  0.00  0.00    -0.313 N 
ATOM      8  C   UNL     1      13.210   7.015  19.261  0.00  0.00    +0.145 C 
ATOM      9  C   UNL     1      12.148   6.847  21.438  0.00  0.00    +0.070 C 
ATOM     10  C   UNL     1      15.543   7.139  20.028  0.00  0.00    +0.075 C 
ATOM     11  C   UNL     1      11.838   7.034  19.952  0.00  0.00    +0.048 C 
ATOM     12  C   UNL     1      13.583   7.338  21.565  0.00  0.00    +0.104 C 
ATOM     13  C   UNL     1      15.640   8.604  19.628  0.00  0.00    +0.123 C 
ATOM     15  C   UNL     1      13.441   8.309  18.485  0.00  0.00    +0.230 C 
ATOM     36  H   UNL     1      14.796   9.800  18.102  0.00  0.00    +0.149 HD
ENDROOT
BRANCH   9   5
ATOM      5  N   UNL     1      11.216   7.546  22.308  0.00  0.00    -0.308 NA
ATOM     37  H   UNL     1      11.730   7.906  23.112  0.00  0.00    +0.123 HD
BRANCH   5  17
ATOM     17  C   UNL     1      10.604   8.676  21.620  0.00  0.00    +0.118 C 
BRANCH  17  19
ATOM      7  N   UNL     1      11.108  11.641  23.739  0.00  0.00    -0.349 N 
ATOM     19  C   UNL     1      10.964   9.987  22.266  0.00  0.00    -0.008 A 
ATOM     21  C   UNL     1      11.756  11.023  21.696  0.00  0.00    +0.004 A 
ATOM     23  C   UNL     1      10.580  10.397  23.522  0.00  0.00    +0.091 A 
ATOM     26  C   UNL     1      11.831  12.049  22.640  0.00  0.00    +0.049 A 
ATOM     27  C   UNL     1      12.418  11.187  20.463  0.00  0.00    +0.010 A 
ATOM     30  C   UNL     1      12.537  13.235  22.413  0.00  0.00    +0.026 A 
ATOM     31  C   UNL     1      10.921  12.406  24.954  0.00  0.00    +0.149 C 
ATOM     33  C   UNL     1      13.128  12.368  20.221  0.00  0.00    +0.001 A 
ATOM     35  C   UNL     1      13.186  13.375  21.183  0.00  0.00    +0.002 A 
ENDBRANCH  17  19
ENDBRANCH   5  17
ENDBRANCH   9   5
BRANCH  10  14
ATOM     14  C   UNL     1      16.522   6.813  21.157  0.00  0.00    +0.029 C 
BRANCH  14  16
ATOM     16  C   UNL     1      17.923   7.339  20.880  0.00  0.00    +0.098 C 
BRANCH  16  18
ATOM      2  O   UNL     1      18.748   5.426  19.750  0.00  0.00    -0.275 OA
ATOM      6  N   UNL     1      19.917   6.147  21.637  0.00  0.00    -0.271 N 
ATOM     18  C   UNL     1      18.901   6.203  20.692  0.00  0.00    +0.220 C 
ATOM     20  C   UNL     1      20.099   7.081  22.767  0.00  0.00    +0.118 C 
ATOM     22  C   UNL     1      20.950   5.188  21.684  0.00  0.00    +0.039 A 
ATOM     24  C   UNL     1      21.347   6.643  23.540  0.00  0.00    +0.056 C 
ATOM     25  C   UNL     1      21.791   5.444  22.769  0.00  0.00    -0.024 A 
ATOM     28  C   UNL     1      21.194   4.115  20.839  0.00  0.00    +0.024 A 
ATOM     29  C   UNL     1      22.889   4.640  23.036  0.00  0.00    +0.005 A 
ATOM     32  C   UNL     1      22.300   3.299  21.101  0.00  0.00    +0.002 A 
ATOM     34  C   UNL     1      23.141   3.559  22.191  0.00  0.00    +0.000 A 
ENDBRANCH  16  18
ENDBRANCH  14  16
ENDBRANCH  10  14
TORSDOF 6
ENDMDL
MODEL 5
REMARK VINA RESULT:      -7.8     27.059     30.290
REMARK  Name = 45360648
REMARK  7 active torsions:
REMARK  status: ('A' for Active; 'I' for Inactive)
REMARK    1  A    between atoms: N_5  and  C_9
REMARK    2  A    between atoms: N_5  and  C_17
REMARK    3  A    between atoms: N_7  and  C_31
REMARK    4  A    between atoms: C_10  and  C_14
REMARK    5  A    between atoms: C_14  and  C_16
REMARK    6  A    between atoms: C_16  and  C_18
REMARK    7  A    between atoms: C_17  and  C_19
REMARK                            x       y       z     vdW  Elec       q    Type
REMARK                         _______ _______ _______ _____ _____    ______ ____
ROOT
ATOM      1  O   UNL     1      -2.404 -14.537  13.854  0.00  0.00    -0.274 OA
ATOM      3  N   UNL     1      -2.217 -11.245  12.288  0.00  0.00    -0.286 NA
ATOM      4  N   UNL     1      -3.715 -13.617  12.239  0.00  0.00    -0.313 N 
ATOM      8  C   UNL     1      -1.690 -12.402  13.023  0.00  0.00    +0.145 C 
ATOM      9  C   UNL     1      -1.838 -10.399  14.387  0.00  0.00    +0.070 C 
ATOM     10  C   UNL     1      -2.962 -11.589  11.082  0.00  0.00    +0.075 C 
ATOM     11  C   UNL     1      -1.393 -11.861  14.430  0.00  0.00    +0.048 C 
ATOM     12  C   UNL     1      -2.866 -10.374  13.264  0.00  0.00    +0.104 C 
ATOM     13  C   UNL     1      -4.129 -12.508  11.411  0.00  0.00    +0.123 C 
ATOM     15  C   UNL     1      -2.639 -13.594  13.092  0.00  0.00    +0.230 C 
ATOM     36  H   UNL     1      -4.328 -14.426  12.280  0.00  0.00    +0.149 HD
ENDROOT
BRANCH   9   5
ATOM      5  N   UNL     1      -2.357  -9.922  15.659  0.00  0.00    -0.308 NA
ATOM     37  H   UNL     1      -3.047  -9.194  15.476  0.00  0.00    +0.123 HD
BRANCH   5  17
ATOM     17  C   UNL     1      -3.017 -10.996  16.391  0.00  0.00    +0.118 C 
BRANCH  17  19
ATOM      7  N   UNL     1      -6.591 -10.152  16.160  0.00  0.00    -0.349 N 
ATOM     19  C   UNL     1      -4.488 -10.730  16.572  0.00  0.00    -0.008 A 
ATOM     21  C   UNL     1      -5.241 -10.914  17.765  0.00  0.00    +0.004 A 
ATOM     23  C   UNL     1      -5.345 -10.261  15.604  0.00  0.00    +0.091 A 
ATOM     26  C   UNL     1      -6.557 -10.545  17.480  0.00  0.00    +0.049 A 
ATOM     27  C   UNL     1      -4.929 -11.360  19.064  0.00  0.00    +0.010 A 
ATOM     30  C   UNL     1      -7.581 -10.600  18.433  0.00  0.00    +0.026 A 
ATOM     31  C   UNL     1      -7.764  -9.688  15.450  0.00  0.00    +0.149 C 
ATOM     33  C   UNL     1      -5.942 -11.421  20.027  0.00  0.00    +0.001 A 
ATOM     35  C   UNL     1      -7.247 -11.046  19.715  0.00  0.00    +0.002 A 
ENDBRANCH  17  19
ENDBRANCH   5  17
ENDBRANCH   9   5
BRANCH  10  14
ATOM     14  C   UNL     1      -3.435 -10.359  10.305  0.00  0.00    +0.029 C 
BRANCH  14  16
ATOM     16  C   UNL     1      -4.538 -10.690   9.310  0.00  0.00    +0.098 C 
BRANCH  16  18
ATOM      2  O   UNL     1      -5.969  -9.189  10.457  0.00  0.00    -0.275 OA
ATOM      6  N   UNL     1      -6.213  -9.350   8.141  0.00  0.00    -0.271 N 
ATOM     18  C   UNL     1      -5.646  -9.666   9.369  0.00  0.00    +0.220 C 
ATOM     20  C   UNL     1      -5.823  -9.923   6.836  0.00  0.00    +0.118 C 
ATOM     22  C   UNL     1      -7.259  -8.428   7.926  0.00  0.00    +0.039 A 
ATOM     24  C   UNL     1      -6.707  -9.282   5.761  0.00  0.00    +0.056 C 
ATOM     25  C   UNL     1      -7.569  -8.366   6.565  0.00  0.00    -0.024 A 
ATOM     28  C   UNL     1      -7.948  -7.649   8.844  0.00  0.00    +0.024 A 
ATOM     29  C   UNL     1      -8.568  -7.530   6.091  0.00  0.00    +0.005 A 
ATOM     32  C   UNL     1      -8.958  -6.802   8.373  0.00  0.00    +0.002 A 
ATOM     34  C   UNL     1      -9.266  -6.743   7.007  0.00  0.00    +0.000 A 
ENDBRANCH  16  18
ENDBRANCH  14  16
ENDBRANCH  10  14
TORSDOF 6
ENDMDL
MODEL 6
REMARK VINA RESULT:      -7.6     28.024     30.188
REMARK  Name = 45360648
REMARK  7 active torsions:
REMARK  status: ('A' for Active; 'I' for Inactive)
REMARK    1  A    between atoms: N_5  and  C_9
REMARK    2  A    between atoms: N_5  and  C_17
REMARK    3  A    between atoms: N_7  and  C_31
REMARK    4  A    between atoms: C_10  and  C_14
REMARK    5  A    between atoms: C_14  and  C_16
REMARK    6  A    between atoms: C_16  and  C_18
REMARK    7  A    between atoms: C_17  and  C_19
REMARK                            x       y       z     vdW  Elec       q    Type
REMARK                         _______ _______ _______ _____ _____    ______ ____
ROOT
ATOM      1  O   UNL     1     -10.435 -12.079  18.706  0.00  0.00    -0.274 OA
ATOM      3  N   UNL     1      -7.500 -10.070  17.889  0.00  0.00    -0.286 NA
ATOM      4  N   UNL     1      -8.231 -12.639  18.746  0.00  0.00    -0.313 N 
ATOM      8  C   UNL     1      -8.897 -10.286  18.286  0.00  0.00    +0.145 C 
ATOM      9  C   UNL     1      -8.680  -9.295  16.079  0.00  0.00    +0.070 C 
ATOM     10  C   UNL     1      -6.534 -10.872  18.631  0.00  0.00    +0.075 C 
ATOM     11  C   UNL     1      -9.720  -9.745  17.106  0.00  0.00    +0.048 C 
ATOM     12  C   UNL     1      -7.453 -10.125  16.430  0.00  0.00    +0.104 C 
ATOM     13  C   UNL     1      -6.838 -12.356  18.488  0.00  0.00    +0.123 C 
ATOM     15  C   UNL     1      -9.255 -11.740  18.573  0.00  0.00    +0.230 C 
ATOM     36  H   UNL     1      -8.482 -13.601  18.958  0.00  0.00    +0.149 HD
ENDROOT
BRANCH   9   5
ATOM      5  N   UNL     1      -9.123  -9.466  14.705  0.00  0.00    -0.308 NA
ATOM     37  H   UNL     1      -9.313  -8.545  14.309  0.00  0.00    +0.123 HD
BRANCH   5  17
ATOM     17  C   UNL     1      -8.091 -10.102  13.897  0.00  0.00    +0.118 C 
BRANCH  17  19
ATOM      7  N   UNL     1      -9.051  -9.399  10.414  0.00  0.00    -0.349 N 
ATOM     19  C   UNL     1      -8.211  -9.732  12.442  0.00  0.00    -0.008 A 
ATOM     21  C   UNL     1      -7.176  -9.222  11.610  0.00  0.00    +0.004 A 
ATOM     23  C   UNL     1      -9.351  -9.830  11.678  0.00  0.00    +0.091 A 
ATOM     26  C   UNL     1      -7.728  -9.022  10.343  0.00  0.00    +0.049 A 
ATOM     27  C   UNL     1      -5.816  -8.911  11.813  0.00  0.00    +0.010 A 
ATOM     30  C   UNL     1      -6.987  -8.524   9.265  0.00  0.00    +0.026 A 
ATOM     31  C   UNL     1      -9.998  -9.356   9.321  0.00  0.00    +0.149 C 
ATOM     33  C   UNL     1      -5.063  -8.412  10.744  0.00  0.00    +0.001 A 
ATOM     35  C   UNL     1      -5.641  -8.222   9.491  0.00  0.00    +0.002 A 
ENDBRANCH  17  19
ENDBRANCH   5  17
ENDBRANCH   9   5
BRANCH  10  14
ATOM     14  C   UNL     1      -5.086 -10.570  18.241  0.00  0.00    +0.029 C 
BRANCH  14  16
ATOM     16  C   UNL     1      -4.428 -11.731  17.509  0.00  0.00    +0.098 C 
BRANCH  16  18
ATOM      2  O   UNL     1      -2.776 -10.441  16.402  0.00  0.00    -0.275 OA
ATOM      6  N   UNL     1      -4.148 -11.792  15.083  0.00  0.00    -0.271 N 
ATOM     18  C   UNL     1      -3.695 -11.251  16.279  0.00  0.00    +0.220 C 
ATOM     20  C   UNL     1      -5.251 -12.764  14.937  0.00  0.00    +0.118 C 
ATOM     22  C   UNL     1      -3.635 -11.508  13.800  0.00  0.00    +0.039 A 
ATOM     24  C   UNL     1      -5.397 -13.086  13.446  0.00  0.00    +0.056 C 
ATOM     25  C   UNL     1      -4.333 -12.236  12.834  0.00  0.00    -0.024 A 
ATOM     28  C   UNL     1      -2.602 -10.657  13.433  0.00  0.00    +0.024 A 
ATOM     29  C   UNL     1      -4.019 -12.134  11.488  0.00  0.00    +0.005 A 
ATOM     32  C   UNL     1      -2.279 -10.548  12.076  0.00  0.00    +0.002 A 
ATOM     34  C   UNL     1      -2.982 -11.280  11.110  0.00  0.00    +0.000 A 
ENDBRANCH  16  18
ENDBRANCH  14  16
ENDBRANCH  10  14
TORSDOF 6
ENDMDL
MODEL 7
REMARK VINA RESULT:      -7.5     26.228     30.187
REMARK  Name = 45360648
REMARK  7 active torsions:
REMARK  status: ('A' for Active; 'I' for Inactive)
REMARK    1  A    between atoms: N_5  and  C_9
REMARK    2  A    between atoms: N_5  and  C_17
REMARK    3  A    between atoms: N_7  and  C_31
REMARK    4  A    between atoms: C_10  and  C_14
REMARK    5  A    between atoms: C_14  and  C_16
REMARK    6  A    between atoms: C_16  and  C_18
REMARK    7  A    between atoms: C_17  and  C_19
REMARK                            x       y       z     vdW  Elec       q    Type
REMARK                         _______ _______ _______ _____ _____    ______ ____
ROOT
ATOM      1  O   UNL     1     -11.399  11.735  19.273  0.00  0.00    -0.274 OA
ATOM      3  N   UNL     1     -10.979   8.127  19.625  0.00  0.00    -0.286 NA
ATOM      4  N   UNL     1     -12.704  10.217  20.352  0.00  0.00    -0.313 N 
ATOM      8  C   UNL     1     -10.527   9.502  19.381  0.00  0.00    +0.145 C 
ATOM      9  C   UNL     1     -10.399   8.096  17.405  0.00  0.00    +0.070 C 
ATOM     10  C   UNL     1     -11.823   7.973  20.804  0.00  0.00    +0.075 C 
ATOM     11  C   UNL     1     -10.097   9.510  17.905  0.00  0.00    +0.048 C 
ATOM     12  C   UNL     1     -11.482   7.607  18.355  0.00  0.00    +0.104 C 
ATOM     13  C   UNL     1     -13.054   8.862  20.710  0.00  0.00    +0.123 C 
ATOM     15  C   UNL     1     -11.583  10.571  19.641  0.00  0.00    +0.230 C 
ATOM     36  H   UNL     1     -13.390  10.943  20.537  0.00  0.00    +0.149 HD
ENDROOT
BRANCH   9   5
ATOM      5  N   UNL     1     -10.794   8.059  16.006  0.00  0.00    -0.308 NA
ATOM     37  H   UNL     1     -11.101   7.112  15.781  0.00  0.00    +0.123 HD
BRANCH   5  17
ATOM     17  C   UNL     1     -11.906   8.966  15.751  0.00  0.00    +0.118 C 
BRANCH  17  19
ATOM      7  N   UNL     1     -14.382   7.173  13.702  0.00  0.00    -0.349 N 
ATOM     19  C   UNL     1     -13.085   8.251  15.145  0.00  0.00    -0.008 A 
ATOM     21  C   UNL     1     -14.329   7.980  15.781  0.00  0.00    +0.004 A 
ATOM     23  C   UNL     1     -13.149   7.744  13.868  0.00  0.00    +0.091 A 
ATOM     26  C   UNL     1     -15.124   7.303  14.855  0.00  0.00    +0.049 A 
ATOM     27  C   UNL     1     -14.856   8.246  17.060  0.00  0.00    +0.010 A 
ATOM     30  C   UNL     1     -16.425   6.877  15.144  0.00  0.00    +0.026 A 
ATOM     31  C   UNL     1     -14.826   6.533  12.483  0.00  0.00    +0.149 C 
ATOM     33  C   UNL     1     -16.156   7.827  17.364  0.00  0.00    +0.001 A 
ATOM     35  C   UNL     1     -16.927   7.152  16.419  0.00  0.00    +0.002 A 
ENDBRANCH  17  19
ENDBRANCH   5  17
ENDBRANCH   9   5
BRANCH  10  14
ATOM     14  C   UNL     1     -12.217   6.519  21.068  0.00  0.00    +0.029 C 
BRANCH  14  16
ATOM     16  C   UNL     1     -13.722   6.338  21.191  0.00  0.00    +0.098 C 
BRANCH  16  18
ATOM      2  O   UNL     1     -13.158   4.849  22.947  0.00  0.00    -0.275 OA
ATOM      6  N   UNL     1     -15.425   5.277  22.587  0.00  0.00    -0.271 N 
ATOM     18  C   UNL     1     -14.066   5.410  22.332  0.00  0.00    +0.220 C 
ATOM     20  C   UNL     1     -16.512   5.951  21.848  0.00  0.00    +0.118 C 
ATOM     22  C   UNL     1     -16.003   4.475  23.592  0.00  0.00    +0.039 A 
ATOM     24  C   UNL     1     -17.841   5.517  22.473  0.00  0.00    +0.056 C 
ATOM     25  C   UNL     1     -17.394   4.589  23.554  0.00  0.00    -0.024 A 
ATOM     28  C   UNL     1     -15.387   3.658  24.529  0.00  0.00    +0.024 A 
ATOM     29  C   UNL     1     -18.199   3.895  24.444  0.00  0.00    +0.005 A 
ATOM     32  C   UNL     1     -16.192   2.954  25.432  0.00  0.00    +0.002 A 
ATOM     34  C   UNL     1     -17.588   3.072  25.390  0.00  0.00    +0.000 A 
ENDBRANCH  16  18
ENDBRANCH  14  16
ENDBRANCH  10  14
TORSDOF 6
ENDMDL
MODEL 8
REMARK VINA RESULT:      -7.5     15.454     19.022
REMARK  Name = 45360648
REMARK  7 active torsions:
REMARK  status: ('A' for Active; 'I' for Inactive)
REMARK    1  A    between atoms: N_5  and  C_9
REMARK    2  A    between atoms: N_5  and  C_17
REMARK    3  A    between atoms: N_7  and  C_31
REMARK    4  A    between atoms: C_10  and  C_14
REMARK    5  A    between atoms: C_14  and  C_16
REMARK    6  A    between atoms: C_16  and  C_18
REMARK    7  A    between atoms: C_17  and  C_19
REMARK                            x       y       z     vdW  Elec       q    Type
REMARK                         _______ _______ _______ _____ _____    ______ ____
ROOT
ATOM      1  O   UNL     1      17.069   6.611  -0.630  0.00  0.00    -0.274 OA
ATOM      3  N   UNL     1      13.799   5.675   0.693  0.00  0.00    -0.286 NA
ATOM      4  N   UNL     1      16.362   4.630   0.236  0.00  0.00    -0.313 N 
ATOM      8  C   UNL     1      14.730   6.476  -0.111  0.00  0.00    +0.145 C 
ATOM      9  C   UNL     1      13.772   7.714   1.746  0.00  0.00    +0.070 C 
ATOM     10  C   UNL     1      13.961   4.234   0.540  0.00  0.00    +0.075 C 
ATOM     11  C   UNL     1      14.711   7.864   0.549  0.00  0.00    +0.048 C 
ATOM     12  C   UNL     1      13.817   6.223   2.047  0.00  0.00    +0.104 C 
ATOM     13  C   UNL     1      15.376   3.807   0.897  0.00  0.00    +0.123 C 
ATOM     15  C   UNL     1      16.151   5.925  -0.170  0.00  0.00    +0.230 C 
ATOM     36  H   UNL     1      17.309   4.268   0.172  0.00  0.00    +0.149 HD
ENDROOT
BRANCH   9   5
ATOM      5  N   UNL     1      14.151   8.546   2.877  0.00  0.00    -0.308 NA
ATOM     37  H   UNL     1      14.866   9.205   2.569  0.00  0.00    +0.123 HD
BRANCH   5  17
ATOM     17  C   UNL     1      13.013   9.311   3.369  0.00  0.00    +0.118 C 
BRANCH  17  19
ATOM      7  N   UNL     1      12.226   7.497   6.472  0.00  0.00    -0.349 N 
ATOM     19  C   UNL     1      12.516   8.790   4.691  0.00  0.00    -0.008 A 
ATOM     21  C   UNL     1      11.570   9.419   5.548  0.00  0.00    +0.004 A 
ATOM     23  C   UNL     1      12.900   7.610   5.286  0.00  0.00    +0.091 A 
ATOM     26  C   UNL     1      11.406   8.588   6.658  0.00  0.00    +0.049 A 
ATOM     27  C   UNL     1      10.836  10.620   5.486  0.00  0.00    +0.010 A 
ATOM     30  C   UNL     1      10.541   8.899   7.713  0.00  0.00    +0.026 A 
ATOM     31  C   UNL     1      12.364   6.384   7.386  0.00  0.00    +0.149 C 
ATOM     33  C   UNL     1       9.967  10.944   6.534  0.00  0.00    +0.001 A 
ATOM     35  C   UNL     1       9.823  10.096   7.630  0.00  0.00    +0.002 A 
ENDBRANCH  17  19
ENDBRANCH   5  17
ENDBRANCH   9   5
BRANCH  10  14
ATOM     14  C   UNL     1      12.929   3.432   1.336  0.00  0.00    +0.029 C 
BRANCH  14  16
ATOM     16  C   UNL     1      11.513   3.954   1.142  0.00  0.00    +0.098 C 
BRANCH  16  18
ATOM      2  O   UNL     1      10.923   3.449   3.382  0.00  0.00    -0.275 OA
ATOM      6  N   UNL     1      10.250   5.517   2.532  0.00  0.00    -0.271 N 
ATOM     18  C   UNL     1      10.867   4.274   2.469  0.00  0.00    +0.220 C 
ATOM     20  C   UNL     1      10.184   6.505   1.436  0.00  0.00    +0.118 C 
ATOM     22  C   UNL     1       9.579   6.051   3.651  0.00  0.00    +0.039 A 
ATOM     24  C   UNL     1       9.417   7.726   1.952  0.00  0.00    +0.056 C 
ATOM     25  C   UNL     1       9.085   7.322   3.351  0.00  0.00    -0.024 A 
ATOM     28  C   UNL     1       9.376   5.493   4.905  0.00  0.00    +0.024 A 
ATOM     29  C   UNL     1       8.383   8.063   4.289  0.00  0.00    +0.005 A 
ATOM     32  C   UNL     1       8.667   6.234   5.857  0.00  0.00    +0.002 A 
ATOM     34  C   UNL     1       8.174   7.509   5.552  0.00  0.00    +0.000 A 
ENDBRANCH  16  18
ENDBRANCH  14  16
ENDBRANCH  10  14
TORSDOF 6
ENDMDL
MODEL 9
REMARK VINA RESULT:      -7.5     28.439     32.709
REMARK  Name = 45360648
REMARK  7 active torsions:
REMARK  status: ('A' for Active; 'I' for Inactive)
REMARK    1  A    between atoms: N_5  and  C_9
REMARK    2  A    between atoms: N_5  and  C_17
REMARK    3  A    between atoms: N_7  and  C_31
REMARK    4  A    between atoms: C_10  and  C_14
REMARK    5  A    between atoms: C_14  and  C_16
REMARK    6  A    between atoms: C_16  and  C_18
REMARK    7  A    between atoms: C_17  and  C_19
REMARK                            x       y       z     vdW  Elec       q    Type
REMARK                         _______ _______ _______ _____ _____    ______ ____
ROOT
ATOM      1  O   UNL     1     -19.332   4.582  28.574  0.00  0.00    -0.274 OA
ATOM      3  N   UNL     1     -17.841   2.647  25.861  0.00  0.00    -0.286 NA
ATOM      4  N   UNL     1     -17.968   5.257  26.884  0.00  0.00    -0.313 N 
ATOM      8  C   UNL     1     -18.823   2.920  26.919  0.00  0.00    +0.145 C 
ATOM      9  C   UNL     1     -17.383   1.031  27.424  0.00  0.00    +0.070 C 
ATOM     10  C   UNL     1     -17.595   3.773  24.967  0.00  0.00    +0.075 C 
ATOM     11  C   UNL     1     -18.565   1.831  27.972  0.00  0.00    +0.048 C 
ATOM     12  C   UNL     1     -16.687   2.016  26.496  0.00  0.00    +0.104 C 
ATOM     13  C   UNL     1     -17.119   4.989  25.746  0.00  0.00    +0.123 C 
ATOM     15  C   UNL     1     -18.713   4.308  27.541  0.00  0.00    +0.230 C 
ATOM     36  H   UNL     1     -17.920   6.184  27.297  0.00  0.00    +0.149 HD
ENDROOT
BRANCH   9   5
ATOM      5  N   UNL     1     -16.517   0.505  28.467  0.00  0.00    -0.308 NA
ATOM     37  H   UNL     1     -16.179  -0.413  28.176  0.00  0.00    +0.123 HD
BRANCH   5  17
ATOM     17  C   UNL     1     -15.360   1.368  28.672  0.00  0.00    +0.118 C 
BRANCH  17  19
ATOM      7  N   UNL     1     -15.001   1.969  32.285  0.00  0.00    -0.349 N 
ATOM     19  C   UNL     1     -15.289   1.883  30.085  0.00  0.00    -0.008 A 
ATOM     21  C   UNL     1     -15.556   3.211  30.517  0.00  0.00    +0.004 A 
ATOM     23  C   UNL     1     -14.951   1.142  31.195  0.00  0.00    +0.091 A 
ATOM     26  C   UNL     1     -15.369   3.239  31.900  0.00  0.00    +0.049 A 
ATOM     27  C   UNL     1     -15.942   4.398  29.862  0.00  0.00    +0.010 A 
ATOM     30  C   UNL     1     -15.548   4.398  32.665  0.00  0.00    +0.026 A 
ATOM     31  C   UNL     1     -14.710   1.551  33.639  0.00  0.00    +0.149 C 
ATOM     33  C   UNL     1     -16.125   5.564  30.613  0.00  0.00    +0.001 A 
ATOM     35  C   UNL     1     -15.930   5.562  31.993  0.00  0.00    +0.002 A 
ENDBRANCH  17  19
ENDBRANCH   5  17
ENDBRANCH   9   5
BRANCH  10  14
ATOM     14  C   UNL     1     -16.623   3.431  23.836  0.00  0.00    +0.029 C 
BRANCH  14  16
ATOM     16  C   UNL     1     -16.632   4.475  22.729  0.00  0.00    +0.098 C 
BRANCH  16  18
ATOM      2  O   UNL     1     -14.306   4.609  23.166  0.00  0.00    -0.275 OA
ATOM      6  N   UNL     1     -15.141   5.873  21.390  0.00  0.00    -0.271 N 
ATOM     18  C   UNL     1     -15.238   4.989  22.456  0.00  0.00    +0.220 C 
ATOM     20  C   UNL     1     -16.260   6.326  20.539  0.00  0.00    +0.118 C 
ATOM     22  C   UNL     1     -13.958   6.491  20.934  0.00  0.00    +0.039 A 
ATOM     24  C   UNL     1     -15.691   7.287  19.490  0.00  0.00    +0.056 C 
ATOM     25  C   UNL     1     -14.240   7.314  19.841  0.00  0.00    -0.024 A 
ATOM     28  C   UNL     1     -12.662   6.377  21.416  0.00  0.00    +0.024 A 
ATOM     29  C   UNL     1     -13.242   8.037  19.206  0.00  0.00    +0.005 A 
ATOM     32  C   UNL     1     -11.649   7.104  20.782  0.00  0.00    +0.002 A 
ATOM     34  C   UNL     1     -11.936   7.928  19.685  0.00  0.00    +0.000 A 
ENDBRANCH  16  18
ENDBRANCH  14  16
ENDBRANCH  10  14
TORSDOF 6
ENDMDL
MODEL 10
REMARK VINA RESULT:      -7.4     26.751     31.021
REMARK  Name = 45360648
REMARK  7 active torsions:
REMARK  status: ('A' for Active; 'I' for Inactive)
REMARK    1  A    between atoms: N_5  and  C_9
REMARK    2  A    between atoms: N_5  and  C_17
REMARK    3  A    between atoms: N_7  and  C_31
REMARK    4  A    between atoms: C_10  and  C_14
REMARK    5  A    between atoms: C_14  and  C_16
REMARK    6  A    between atoms: C_16  and  C_18
REMARK    7  A    between atoms: C_17  and  C_19
REMARK                            x       y       z     vdW  Elec       q    Type
REMARK                         _______ _______ _______ _____ _____    ______ ____
ROOT
ATOM      1  O   UNL     1      -4.590 -15.232  16.475  0.00  0.00    -0.274 OA
ATOM      3  N   UNL     1      -7.039 -12.571  16.966  0.00  0.00    -0.286 NA
ATOM      4  N   UNL     1      -4.671 -13.603  18.060  0.00  0.00    -0.313 N 
ATOM      8  C   UNL     1      -6.564 -13.868  16.466  0.00  0.00    +0.145 C 
ATOM      9  C   UNL     1      -6.986 -12.264  14.692  0.00  0.00    +0.070 C 
ATOM     10  C   UNL     1      -6.740 -12.323  18.372  0.00  0.00    +0.075 C 
ATOM     11  C   UNL     1      -6.548 -13.708  14.938  0.00  0.00    +0.048 C 
ATOM     12  C   UNL     1      -6.632 -11.559  15.994  0.00  0.00    +0.104 C 
ATOM     13  C   UNL     1      -5.243 -12.405  18.629  0.00  0.00    +0.123 C 
ATOM     15  C   UNL     1      -5.188 -14.278  16.981  0.00  0.00    +0.230 C 
ATOM     36  H   UNL     1      -3.763 -13.900  18.406  0.00  0.00    +0.149 HD
ENDROOT
BRANCH   9   5
ATOM      5  N   UNL     1      -6.362 -11.669  13.522  0.00  0.00    -0.308 NA
ATOM     37  H   UNL     1      -6.062 -10.723  13.760  0.00  0.00    +0.123 HD
BRANCH   5  17
ATOM     17  C   UNL     1      -5.185 -12.426  13.114  0.00  0.00    +0.118 C 
BRANCH  17  19
ATOM      7  N   UNL     1      -2.304 -10.289  12.295  0.00  0.00    -0.349 N 
ATOM     19  C   UNL     1      -3.953 -11.562  13.060  0.00  0.00    -0.008 A 
ATOM     21  C   UNL     1      -3.137 -11.181  14.162  0.00  0.00    +0.004 A 
ATOM     23  C   UNL     1      -3.415 -10.998  11.926  0.00  0.00    +0.091 A 
ATOM     26  C   UNL     1      -2.109 -10.384  13.655  0.00  0.00    +0.049 A 
ATOM     27  C   UNL     1      -3.173 -11.440  15.546  0.00  0.00    +0.010 A 
ATOM     30  C   UNL     1      -1.112  -9.829  14.466  0.00  0.00    +0.026 A 
ATOM     31  C   UNL     1      -1.463  -9.554  11.374  0.00  0.00    +0.149 C 
ATOM     33  C   UNL     1      -2.183 -10.893  16.370  0.00  0.00    +0.001 A 
ATOM     35  C   UNL     1      -1.169 -10.099  15.836  0.00  0.00    +0.002 A 
ENDBRANCH  17  19
ENDBRANCH   5  17
ENDBRANCH   9   5
BRANCH  10  14
ATOM     14  C   UNL     1      -7.311 -10.997  18.876  0.00  0.00    +0.029 C 
BRANCH  14  16
ATOM     16  C   UNL     1      -8.802 -10.866  18.602  0.00  0.00    +0.098 C 
BRANCH  16  18
ATOM      2  O   UNL     1      -8.183  -8.828  17.561  0.00  0.00    -0.275 OA
ATOM      6  N   UNL     1     -10.450  -9.386  17.570  0.00  0.00    -0.271 N 
ATOM     18  C   UNL     1      -9.106  -9.587  17.858  0.00  0.00    +0.220 C 
ATOM     20  C   UNL     1     -11.556 -10.298  17.927  0.00  0.00    +0.118 C 
ATOM     22  C   UNL     1     -10.992  -8.277  16.888  0.00  0.00    +0.039 A 
ATOM     24  C   UNL     1     -12.858  -9.680  17.407  0.00  0.00    +0.056 C 
ATOM     25  C   UNL     1     -12.378  -8.414  16.779  0.00  0.00    -0.024 A 
ATOM     28  C   UNL     1     -10.349  -7.165  16.364  0.00  0.00    +0.024 A 
ATOM     29  C   UNL     1     -13.149  -7.451  16.146  0.00  0.00    +0.005 A 
ATOM     32  C   UNL     1     -11.120  -6.188  15.725  0.00  0.00    +0.002 A 
ATOM     34  C   UNL     1     -12.511  -6.330  15.616  0.00  0.00    +0.000 A 
ENDBRANCH  16  18
ENDBRANCH  14  16
ENDBRANCH  10  14
TORSDOF 6
ENDMDL
