MODEL 1
REMARK VINA RESULT:      -7.6      0.000      0.000
REMARK  Name = 51137100
REMARK  3 active torsions:
REMARK  status: ('A' for Active; 'I' for Inactive)
REMARK    1  A    between atoms: N_2  and  C_6
REMARK    2  A    between atoms: C_5  and  C_6
REMARK    3  A    between atoms: C_7  and  C_16
REMARK                            x       y       z     vdW  Elec       q    Type
REMARK                         _______ _______ _______ _____ _____    ______ ____
ROOT
ATOM      2  N   UNL     1      13.998   6.992  20.202  0.00  0.00    -0.301 NA
ATOM      7  C   UNL     1      12.537   8.067  21.689  0.00  0.00    +0.070 C 
ATOM      8  C   UNL     1      13.972   8.112  21.146  0.00  0.00    +0.095 C 
ATOM      9  C   UNL     1      12.730   7.081  19.477  0.00  0.00    +0.085 C 
ATOM     12  C   UNL     1      11.725   7.366  20.585  0.00  0.00    +0.028 C 
ENDROOT
BRANCH   7  16
ATOM      1  F   UNL     1       9.974  13.921  25.144  0.00  0.00    -0.205 F 
ATOM      3  N   UNL     1      11.680   9.703  23.388  0.00  0.00    -0.341 N 
ATOM      4  N   UNL     1      11.832  10.465  21.305  0.00  0.00    -0.232 NA
ATOM     16  C   UNL     1      12.018   9.428  22.092  0.00  0.00    +0.113 A 
ATOM     17  C   UNL     1      11.247  11.005  23.440  0.00  0.00    +0.069 A 
ATOM     18  C   UNL     1      11.352  11.457  22.128  0.00  0.00    +0.089 A 
ATOM     19  C   UNL     1      10.788  11.799  24.491  0.00  0.00    +0.066 A 
ATOM     20  C   UNL     1      10.979  12.777  21.827  0.00  0.00    +0.032 A 
ATOM     21  C   UNL     1      10.423  13.112  24.174  0.00  0.00    +0.125 A 
ATOM     22  C   UNL     1      10.516  13.594  22.866  0.00  0.00    +0.040 A 
ATOM     23  H   UNL     1      11.737   9.066  24.171  0.00  0.00    +0.167 HD
ENDBRANCH   7  16
BRANCH   2   6
ATOM      6  C   UNL     1      15.150   7.043  19.313  0.00  0.00    +0.088 C 
BRANCH   6   5
ATOM      5  C   UNL     1      16.373   6.405  19.970  0.00  0.00    +0.003 C 
ATOM     10  C   UNL     1      17.133   7.437  20.815  0.00  0.00    +0.005 C 
ATOM     11  C   UNL     1      17.293   5.780  18.912  0.00  0.00    +0.005 C 
ATOM     13  C   UNL     1      18.390   6.838  21.440  0.00  0.00    +0.000 C 
ATOM     14  C   UNL     1      18.550   5.184  19.542  0.00  0.00    +0.000 C 
ATOM     15  C   UNL     1      19.298   6.210  20.387  0.00  0.00    +0.000 C 
ENDBRANCH   6   5
ENDBRANCH   2   6
TORSDOF 3
ENDMDL
MODEL 2
REMARK VINA RESULT:      -7.1     17.112     19.149
REMARK  Name = 51137100
REMARK  3 active torsions:
REMARK  status: ('A' for Active; 'I' for Inactive)
REMARK    1  A    between atoms: N_2  and  C_6
REMARK    2  A    between atoms: C_5  and  C_6
REMARK    3  A    between atoms: C_7  and  C_16
REMARK                            x       y       z     vdW  Elec       q    Type
REMARK                         _______ _______ _______ _____ _____    ______ ____
ROOT
ATOM      2  N   UNL     1      12.097   4.436   1.627  0.00  0.00    -0.301 NA
ATOM      7  C   UNL     1      10.397   5.115   3.093  0.00  0.00    +0.070 C 
ATOM      8  C   UNL     1      11.419   3.995   2.848  0.00  0.00    +0.095 C 
ATOM      9  C   UNL     1      12.321   5.869   1.817  0.00  0.00    +0.085 C 
ATOM     12  C   UNL     1      10.994   6.347   2.391  0.00  0.00    +0.028 C 
ENDROOT
BRANCH   7  16
ATOM      1  F   UNL     1       9.285   4.445  10.240  0.00  0.00    -0.205 F 
ATOM      3  N   UNL     1      10.196   4.284   5.453  0.00  0.00    -0.341 N 
ATOM      4  N   UNL     1       9.673   6.421   5.133  0.00  0.00    -0.232 NA
ATOM     16  C   UNL     1      10.079   5.310   4.557  0.00  0.00    +0.113 A 
ATOM     17  C   UNL     1       9.842   4.764   6.688  0.00  0.00    +0.069 A 
ATOM     18  C   UNL     1       9.520   6.098   6.462  0.00  0.00    +0.089 A 
ATOM     19  C   UNL     1       9.778   4.162   7.946  0.00  0.00    +0.066 A 
ATOM     20  C   UNL     1       9.107   6.896   7.542  0.00  0.00    +0.032 A 
ATOM     21  C   UNL     1       9.366   4.970   9.010  0.00  0.00    +0.125 A 
ATOM     22  C   UNL     1       9.036   6.314   8.814  0.00  0.00    +0.040 A 
ATOM     23  H   UNL     1      10.490   3.338   5.246  0.00  0.00    +0.167 HD
ENDBRANCH   7  16
BRANCH   2   6
ATOM      6  C   UNL     1      13.335   3.708   1.387  0.00  0.00    +0.088 C 
BRANCH   6   5
ATOM      5  C   UNL     1      13.525   3.434  -0.104  0.00  0.00    +0.003 C 
ATOM     10  C   UNL     1      14.369   4.538  -0.755  0.00  0.00    +0.005 C 
ATOM     11  C   UNL     1      12.167   3.299  -0.807  0.00  0.00    +0.005 C 
ATOM     13  C   UNL     1      14.528   4.315  -2.257  0.00  0.00    +0.000 C 
ATOM     14  C   UNL     1      12.330   3.077  -2.309  0.00  0.00    +0.000 C 
ATOM     15  C   UNL     1      13.177   4.172  -2.951  0.00  0.00    +0.000 C 
ENDBRANCH   6   5
ENDBRANCH   2   6
TORSDOF 3
ENDMDL
MODEL 3
REMARK VINA RESULT:      -7.0     26.632     28.037
REMARK  Name = 51137100
REMARK  3 active torsions:
REMARK  status: ('A' for Active; 'I' for Inactive)
REMARK    1  A    between atoms: N_2  and  C_6
REMARK    2  A    between atoms: C_5  and  C_6
REMARK    3  A    between atoms: C_7  and  C_16
REMARK                            x       y       z     vdW  Elec       q    Type
REMARK                         _______ _______ _______ _____ _____    ______ ____
ROOT
ATOM      2  N   UNL     1      -2.196 -11.144  12.933  0.00  0.00    -0.301 NA
ATOM      7  C   UNL     1      -2.713 -10.430  15.107  0.00  0.00    +0.070 C 
ATOM      8  C   UNL     1      -3.335 -10.671  13.724  0.00  0.00    +0.095 C 
ATOM      9  C   UNL     1      -1.493 -12.081  13.809  0.00  0.00    +0.085 C 
ATOM     12  C   UNL     1      -1.483 -11.354  15.147  0.00  0.00    +0.028 C 
ENDROOT
BRANCH   7  16
ATOM      1  F   UNL     1      -8.425 -10.447  19.595  0.00  0.00    -0.205 F 
ATOM      3  N   UNL     1      -4.943 -10.073  16.201  0.00  0.00    -0.341 N 
ATOM      4  N   UNL     1      -3.498 -11.324  17.337  0.00  0.00    -0.232 NA
ATOM     16  C   UNL     1      -3.695 -10.631  16.237  0.00  0.00    +0.113 A 
ATOM     17  C   UNL     1      -5.594 -10.430  17.355  0.00  0.00    +0.069 A 
ATOM     18  C   UNL     1      -4.672 -11.209  18.046  0.00  0.00    +0.089 A 
ATOM     19  C   UNL     1      -6.873 -10.146  17.837  0.00  0.00    +0.066 A 
ATOM     20  C   UNL     1      -5.027 -11.744  19.296  0.00  0.00    +0.032 A 
ATOM     21  C   UNL     1      -7.210 -10.688  19.082  0.00  0.00    +0.125 A 
ATOM     22  C   UNL     1      -6.305 -11.474  19.800  0.00  0.00    +0.040 A 
ATOM     23  H   UNL     1      -5.322  -9.500  15.459  0.00  0.00    +0.167 HD
ENDBRANCH   7  16
BRANCH   2   6
ATOM      6  C   UNL     1      -2.609 -11.760  11.680  0.00  0.00    +0.088 C 
BRANCH   6   5
ATOM      5  C   UNL     1      -3.652 -10.898  10.969  0.00  0.00    +0.003 C 
ATOM     10  C   UNL     1      -4.389 -11.714   9.898  0.00  0.00    +0.005 C 
ATOM     11  C   UNL     1      -2.997  -9.653  10.354  0.00  0.00    +0.005 C 
ATOM     13  C   UNL     1      -5.399 -10.860   9.135  0.00  0.00    +0.000 C 
ATOM     14  C   UNL     1      -4.011  -8.803   9.591  0.00  0.00    +0.000 C 
ATOM     15  C   UNL     1      -4.748  -9.620   8.533  0.00  0.00    +0.000 C 
ENDBRANCH   6   5
ENDBRANCH   2   6
TORSDOF 3
ENDMDL
MODEL 4
REMARK VINA RESULT:      -6.9     27.905     29.994
REMARK  Name = 51137100
REMARK  3 active torsions:
REMARK  status: ('A' for Active; 'I' for Inactive)
REMARK    1  A    between atoms: N_2  and  C_6
REMARK    2  A    between atoms: C_5  and  C_6
REMARK    3  A    between atoms: C_7  and  C_16
REMARK                            x       y       z     vdW  Elec       q    Type
REMARK                         _______ _______ _______ _____ _____    ______ ____
ROOT
ATOM      2  N   UNL     1      -9.526  -8.681  16.633  0.00  0.00    -0.301 NA
ATOM      7  C   UNL     1     -11.192  -7.042  16.433  0.00  0.00    +0.070 C 
ATOM      8  C   UNL     1      -9.826  -7.465  15.873  0.00  0.00    +0.095 C 
ATOM      9  C   UNL     1     -10.785  -9.425  16.666  0.00  0.00    +0.085 C 
ATOM     12  C   UNL     1     -11.811  -8.343  16.973  0.00  0.00    +0.028 C 
ENDROOT
BRANCH   7  16
ATOM      1  F   UNL     1     -13.818  -2.812  11.143  0.00  0.00    -0.205 F 
ATOM      3  N   UNL     1     -11.489  -5.405  14.554  0.00  0.00    -0.341 N 
ATOM      4  N   UNL     1     -13.338  -6.426  15.248  0.00  0.00    -0.232 NA
ATOM     16  C   UNL     1     -12.041  -6.307  15.422  0.00  0.00    +0.113 A 
ATOM     17  C   UNL     1     -12.499  -4.909  13.769  0.00  0.00    +0.069 A 
ATOM     18  C   UNL     1     -13.642  -5.561  14.222  0.00  0.00    +0.089 A 
ATOM     19  C   UNL     1     -12.509  -3.974  12.733  0.00  0.00    +0.066 A 
ATOM     20  C   UNL     1     -14.878  -5.275  13.619  0.00  0.00    +0.032 A 
ATOM     21  C   UNL     1     -13.748  -3.703  12.143  0.00  0.00    +0.125 A 
ATOM     22  C   UNL     1     -14.913  -4.341  12.576  0.00  0.00    +0.040 A 
ATOM     23  H   UNL     1     -10.513  -5.147  14.498  0.00  0.00    +0.167 HD
ENDBRANCH   7  16
BRANCH   2   6
ATOM      6  C   UNL     1      -8.442  -9.451  16.041  0.00  0.00    +0.088 C 
BRANCH   6   5
ATOM      5  C   UNL     1      -7.233  -9.495  16.975  0.00  0.00    +0.003 C 
ATOM     10  C   UNL     1      -6.005 -10.058  16.245  0.00  0.00    +0.005 C 
ATOM     11  C   UNL     1      -7.548 -10.319  18.231  0.00  0.00    +0.005 C 
ATOM     13  C   UNL     1      -4.797 -10.162  17.173  0.00  0.00    +0.000 C 
ATOM     14  C   UNL     1      -6.336 -10.422  19.155  0.00  0.00    +0.000 C 
ATOM     15  C   UNL     1      -5.116 -10.974  18.424  0.00  0.00    +0.000 C 
ENDBRANCH   6   5
ENDBRANCH   2   6
TORSDOF 3
ENDMDL
MODEL 5
REMARK VINA RESULT:      -6.8     26.903     29.346
REMARK  Name = 51137100
REMARK  3 active torsions:
REMARK  status: ('A' for Active; 'I' for Inactive)
REMARK    1  A    between atoms: N_2  and  C_6
REMARK    2  A    between atoms: C_5  and  C_6
REMARK    3  A    between atoms: C_7  and  C_16
REMARK                            x       y       z     vdW  Elec       q    Type
REMARK                         _______ _______ _______ _____ _____    ______ ____
ROOT
ATOM      2  N   UNL     1     -14.785   6.387  22.124  0.00  0.00    -0.301 NA
ATOM      7  C   UNL     1     -15.524   4.326  22.967  0.00  0.00    +0.070 C 
ATOM      8  C   UNL     1     -14.432   5.392  23.139  0.00  0.00    +0.095 C 
ATOM      9  C   UNL     1     -16.238   6.526  22.223  0.00  0.00    +0.085 C 
ATOM     12  C   UNL     1     -16.710   5.082  22.342  0.00  0.00    +0.028 C 
ENDROOT
BRANCH   7  16
ATOM      1  F   UNL     1     -16.648   2.278  29.845  0.00  0.00    -0.205 F 
ATOM      3  N   UNL     1     -15.734   4.218  25.466  0.00  0.00    -0.341 N 
ATOM      4  N   UNL     1     -16.240   2.350  24.371  0.00  0.00    -0.232 NA
ATOM     16  C   UNL     1     -15.842   3.597  24.252  0.00  0.00    +0.113 A 
ATOM     17  C   UNL     1     -16.086   3.309  26.433  0.00  0.00    +0.069 A 
ATOM     18  C   UNL     1     -16.397   2.153  25.724  0.00  0.00    +0.089 A 
ATOM     19  C   UNL     1     -16.156   3.399  27.823  0.00  0.00    +0.066 A 
ATOM     20  C   UNL     1     -16.803   1.007  26.428  0.00  0.00    +0.032 A 
ATOM     21  C   UNL     1     -16.563   2.250  28.508  0.00  0.00    +0.125 A 
ATOM     22  C   UNL     1     -16.882   1.074  27.825  0.00  0.00    +0.040 A 
ATOM     23  H   UNL     1     -15.447   5.174  25.627  0.00  0.00    +0.167 HD
ENDBRANCH   7  16
BRANCH   2   6
ATOM      6  C   UNL     1     -14.093   7.652  22.323  0.00  0.00    +0.088 C 
BRANCH   6   5
ATOM      5  C   UNL     1     -13.303   8.041  21.074  0.00  0.00    +0.003 C 
ATOM     10  C   UNL     1     -12.192   7.020  20.795  0.00  0.00    +0.005 C 
ATOM     11  C   UNL     1     -12.722   9.455  21.219  0.00  0.00    +0.005 C 
ATOM     13  C   UNL     1     -11.354   7.415  19.582  0.00  0.00    +0.000 C 
ATOM     14  C   UNL     1     -11.883   9.846  20.005  0.00  0.00    +0.000 C 
ATOM     15  C   UNL     1     -10.785   8.823  19.726  0.00  0.00    +0.000 C 
ENDBRANCH   6   5
ENDBRANCH   2   6
TORSDOF 3
ENDMDL
MODEL 6
REMARK VINA RESULT:      -6.7     27.630     30.235
REMARK  Name = 51137100
REMARK  3 active torsions:
REMARK  status: ('A' for Active; 'I' for Inactive)
REMARK    1  A    between atoms: N_2  and  C_6
REMARK    2  A    between atoms: C_5  and  C_6
REMARK    3  A    between atoms: C_7  and  C_16
REMARK                            x       y       z     vdW  Elec       q    Type
REMARK                         _______ _______ _______ _____ _____    ______ ____
ROOT
ATOM      2  N   UNL     1     -16.752   1.850  27.206  0.00  0.00    -0.301 NA
ATOM      7  C   UNL     1     -16.963   3.321  25.391  0.00  0.00    +0.070 C 
ATOM      8  C   UNL     1     -16.204   3.114  26.710  0.00  0.00    +0.095 C 
ATOM      9  C   UNL     1     -16.821   0.982  26.031  0.00  0.00    +0.085 C 
ATOM     12  C   UNL     1     -17.385   1.905  24.959  0.00  0.00    +0.028 C 
ENDROOT
BRANCH   7  16
ATOM      1  F   UNL     1     -11.821   6.202  21.146  0.00  0.00    -0.205 F 
ATOM      3  N   UNL     1     -14.804   3.951  24.279  0.00  0.00    -0.341 N 
ATOM      4  N   UNL     1     -16.629   4.929  23.470  0.00  0.00    -0.232 NA
ATOM     16  C   UNL     1     -16.162   4.086  24.364  0.00  0.00    +0.113 A 
ATOM     17  C   UNL     1     -14.366   4.762  23.262  0.00  0.00    +0.069 A 
ATOM     18  C   UNL     1     -15.523   5.361  22.775  0.00  0.00    +0.089 A 
ATOM     19  C   UNL     1     -13.095   5.015  22.745  0.00  0.00    +0.066 A 
ATOM     20  C   UNL     1     -15.426   6.270  21.708  0.00  0.00    +0.032 A 
ATOM     21  C   UNL     1     -13.017   5.921  21.682  0.00  0.00    +0.125 A 
ATOM     22  C   UNL     1     -14.161   6.538  21.171  0.00  0.00    +0.040 A 
ATOM     23  H   UNL     1     -14.222   3.360  24.859  0.00  0.00    +0.167 HD
ENDBRANCH   7  16
BRANCH   2   6
ATOM      6  C   UNL     1     -15.944   1.276  28.273  0.00  0.00    +0.088 C 
BRANCH   6   5
ATOM      5  C   UNL     1     -15.421   2.368  29.205  0.00  0.00    +0.003 C 
ATOM     10  C   UNL     1     -14.159   1.893  29.940  0.00  0.00    +0.005 C 
ATOM     11  C   UNL     1     -16.506   2.794  30.203  0.00  0.00    +0.005 C 
ATOM     13  C   UNL     1     -13.647   2.947  30.918  0.00  0.00    +0.000 C 
ATOM     14  C   UNL     1     -15.989   3.847  31.181  0.00  0.00    +0.000 C 
ATOM     15  C   UNL     1     -14.730   3.375  31.903  0.00  0.00    +0.000 C 
ENDBRANCH   6   5
ENDBRANCH   2   6
TORSDOF 3
ENDMDL
MODEL 7
REMARK VINA RESULT:      -6.6     27.264     28.613
REMARK  Name = 51137100
REMARK  3 active torsions:
REMARK  status: ('A' for Active; 'I' for Inactive)
REMARK    1  A    between atoms: N_2  and  C_6
REMARK    2  A    between atoms: C_5  and  C_6
REMARK    3  A    between atoms: C_7  and  C_16
REMARK                            x       y       z     vdW  Elec       q    Type
REMARK                         _______ _______ _______ _____ _____    ______ ____
ROOT
ATOM      2  N   UNL     1      -4.016 -10.701  14.779  0.00  0.00    -0.301 NA
ATOM      7  C   UNL     1      -5.229  -9.955  16.643  0.00  0.00    +0.070 C 
ATOM      8  C   UNL     1      -5.317 -10.121  15.119  0.00  0.00    +0.095 C 
ATOM      9  C   UNL     1      -3.774 -11.712  15.808  0.00  0.00    +0.085 C 
ATOM     12  C   UNL     1      -4.191 -11.000  17.088  0.00  0.00    +0.028 C 
ENDROOT
BRANCH   7  16
ATOM      1  F   UNL     1     -12.119  -9.286  18.844  0.00  0.00    -0.205 F 
ATOM      3  N   UNL     1      -7.628  -9.283  16.945  0.00  0.00    -0.341 N 
ATOM      4  N   UNL     1      -6.891 -10.873  18.313  0.00  0.00    -0.232 NA
ATOM     16  C   UNL     1      -6.573 -10.065  17.326  0.00  0.00    +0.113 A 
ATOM     17  C   UNL     1      -8.698  -9.608  17.740  0.00  0.00    +0.069 A 
ATOM     18  C   UNL     1      -8.212 -10.601  18.585  0.00  0.00    +0.089 A 
ATOM     19  C   UNL     1     -10.009  -9.132  17.791  0.00  0.00    +0.066 A 
ATOM     20  C   UNL     1      -9.070 -11.166  19.544  0.00  0.00    +0.032 A 
ATOM     21  C   UNL     1     -10.849  -9.705  18.751  0.00  0.00    +0.125 A 
ATOM     22  C   UNL     1     -10.390 -10.705  19.612  0.00  0.00    +0.040 A 
ATOM     23  H   UNL     1      -7.625  -8.588  16.210  0.00  0.00    +0.167 HD
ENDBRANCH   7  16
BRANCH   2   6
ATOM      6  C   UNL     1      -3.993 -11.261  13.435  0.00  0.00    +0.088 C 
BRANCH   6   5
ATOM      5  C   UNL     1      -3.873 -10.155  12.388  0.00  0.00    +0.003 C 
ATOM     10  C   UNL     1      -5.115 -10.126  11.486  0.00  0.00    +0.005 C 
ATOM     11  C   UNL     1      -2.597 -10.335  11.553  0.00  0.00    +0.005 C 
ATOM     13  C   UNL     1      -4.995  -9.064  10.396  0.00  0.00    +0.000 C 
ATOM     14  C   UNL     1      -2.482  -9.272  10.463  0.00  0.00    +0.000 C 
ATOM     15  C   UNL     1      -3.722  -9.240   9.575  0.00  0.00    +0.000 C 
ENDBRANCH   6   5
ENDBRANCH   2   6
TORSDOF 3
ENDMDL
MODEL 8
REMARK VINA RESULT:      -6.6     27.979     30.505
REMARK  Name = 51137100
REMARK  3 active torsions:
REMARK  status: ('A' for Active; 'I' for Inactive)
REMARK    1  A    between atoms: N_2  and  C_6
REMARK    2  A    between atoms: C_5  and  C_6
REMARK    3  A    between atoms: C_7  and  C_16
REMARK                            x       y       z     vdW  Elec       q    Type
REMARK                         _______ _______ _______ _____ _____    ______ ____
ROOT
ATOM      2  N   UNL     1     -12.169  -7.167  14.915  0.00  0.00    -0.301 NA
ATOM      7  C   UNL     1     -10.792  -8.190  16.515  0.00  0.00    +0.070 C 
ATOM      8  C   UNL     1     -11.288  -8.328  15.069  0.00  0.00    +0.095 C 
ATOM      9  C   UNL     1     -11.448  -6.062  15.546  0.00  0.00    +0.085 C 
ATOM     12  C   UNL     1     -10.919  -6.689  16.829  0.00  0.00    +0.028 C 
ENDROOT
BRANCH   7  16
ATOM      1  F   UNL     1      -4.679 -11.166  19.073  0.00  0.00    -0.205 F 
ATOM      3  N   UNL     1      -9.010  -9.232  17.943  0.00  0.00    -0.341 N 
ATOM      4  N   UNL     1      -8.466  -8.891  15.814  0.00  0.00    -0.232 NA
ATOM     16  C   UNL     1      -9.410  -8.766  16.721  0.00  0.00    +0.113 A 
ATOM     17  C   UNL     1      -7.722  -9.688  17.815  0.00  0.00    +0.069 A 
ATOM     18  C   UNL     1      -7.406  -9.464  16.479  0.00  0.00    +0.089 A 
ATOM     19  C   UNL     1      -6.835 -10.260  18.728  0.00  0.00    +0.066 A 
ATOM     20  C   UNL     1      -6.133  -9.823  16.006  0.00  0.00    +0.032 A 
ATOM     21  C   UNL     1      -5.572 -10.613  18.240  0.00  0.00    +0.125 A 
ATOM     22  C   UNL     1      -5.226 -10.400  16.904  0.00  0.00    +0.040 A 
ATOM     23  H   UNL     1      -9.562  -9.242  18.791  0.00  0.00    +0.167 HD
ENDBRANCH   7  16
BRANCH   2   6
ATOM      6  C   UNL     1     -12.491  -6.896  13.521  0.00  0.00    +0.088 C 
BRANCH   6   5
ATOM      5  C   UNL     1     -12.846  -5.424  13.322  0.00  0.00    +0.003 C 
ATOM     10  C   UNL     1     -14.367  -5.240  13.235  0.00  0.00    +0.005 C 
ATOM     11  C   UNL     1     -12.155  -4.864  12.070  0.00  0.00    +0.005 C 
ATOM     13  C   UNL     1     -14.746  -3.783  12.982  0.00  0.00    +0.000 C 
ATOM     14  C   UNL     1     -12.538  -3.407  11.820  0.00  0.00    +0.000 C 
ATOM     15  C   UNL     1     -14.052  -3.228  11.743  0.00  0.00    +0.000 C 
ENDBRANCH   6   5
ENDBRANCH   2   6
TORSDOF 3
ENDMDL
MODEL 9
REMARK VINA RESULT:      -6.6     26.466     28.784
REMARK  Name = 51137100
REMARK  3 active torsions:
REMARK  status: ('A' for Active; 'I' for Inactive)
REMARK    1  A    between atoms: N_2  and  C_6
REMARK    2  A    between atoms: C_5  and  C_6
REMARK    3  A    between atoms: C_7  and  C_16
REMARK                            x       y       z     vdW  Elec       q    Type
REMARK                         _______ _______ _______ _____ _____    ______ ____
ROOT
ATOM      2  N   UNL     1     -14.000   6.993  20.856  0.00  0.00    -0.301 NA
ATOM      7  C   UNL     1     -14.975   5.072  21.785  0.00  0.00    +0.070 C 
ATOM      8  C   UNL     1     -13.849   6.094  22.003  0.00  0.00    +0.095 C 
ATOM      9  C   UNL     1     -15.441   7.214  20.738  0.00  0.00    +0.085 C 
ATOM     12  C   UNL     1     -16.016   5.817  20.930  0.00  0.00    +0.028 C 
ENDROOT
BRANCH   7  16
ATOM      1  F   UNL     1     -17.388   0.863  27.191  0.00  0.00    -0.205 F 
ATOM      3  N   UNL     1     -15.701   3.154  23.230  0.00  0.00    -0.341 N 
ATOM      4  N   UNL     1     -15.836   5.169  24.160  0.00  0.00    -0.232 NA
ATOM     16  C   UNL     1     -15.508   4.499  23.077  0.00  0.00    +0.113 A 
ATOM     17  C   UNL     1     -16.187   2.943  24.496  0.00  0.00    +0.069 A 
ATOM     18  C   UNL     1     -16.262   4.214  25.055  0.00  0.00    +0.089 A 
ATOM     19  C   UNL     1     -16.555   1.782  25.178  0.00  0.00    +0.066 A 
ATOM     20  C   UNL     1     -16.731   4.358  26.371  0.00  0.00    +0.032 A 
ATOM     21  C   UNL     1     -17.019   1.943  26.488  0.00  0.00    +0.125 A 
ATOM     22  C   UNL     1     -17.106   3.207  27.076  0.00  0.00    +0.040 A 
ATOM     23  H   UNL     1     -15.520   2.439  22.538  0.00  0.00    +0.167 HD
ENDBRANCH   7  16
BRANCH   2   6
ATOM      6  C   UNL     1     -13.261   8.236  21.026  0.00  0.00    +0.088 C 
BRANCH   6   5
ATOM      5  C   UNL     1     -11.968   8.215  20.211  0.00  0.00    +0.003 C 
ATOM     10  C   UNL     1     -11.392   9.631  20.074  0.00  0.00    +0.005 C 
ATOM     11  C   UNL     1     -12.208   7.587  18.831  0.00  0.00    +0.005 C 
ATOM     13  C   UNL     1     -10.128   9.644  19.218  0.00  0.00    +0.000 C 
ATOM     14  C   UNL     1     -10.942   7.604  17.978  0.00  0.00    +0.000 C 
ATOM     15  C   UNL     1     -10.367   9.011  17.851  0.00  0.00    +0.000 C 
ENDBRANCH   6   5
ENDBRANCH   2   6
TORSDOF 3
ENDMDL
MODEL 10
REMARK VINA RESULT:      -6.3     19.095     20.770
REMARK  Name = 51137100
REMARK  3 active torsions:
REMARK  status: ('A' for Active; 'I' for Inactive)
REMARK    1  A    between atoms: N_2  and  C_6
REMARK    2  A    between atoms: C_5  and  C_6
REMARK    3  A    between atoms: C_7  and  C_16
REMARK                            x       y       z     vdW  Elec       q    Type
REMARK                         _______ _______ _______ _____ _____    ______ ____
ROOT
ATOM      2  N   UNL     1       7.556  -6.881  33.954  0.00  0.00    -0.301 NA
ATOM      7  C   UNL     1       9.809  -6.232  34.023  0.00  0.00    +0.070 C 
ATOM      8  C   UNL     1       8.870  -7.318  33.477  0.00  0.00    +0.095 C 
ATOM      9  C   UNL     1       7.533  -5.437  33.727  0.00  0.00    +0.085 C 
ATOM     12  C   UNL     1       8.911  -4.996  34.204  0.00  0.00    +0.028 C 
ENDROOT
BRANCH   7  16
ATOM      1  F   UNL     1      14.998  -6.423  28.944  0.00  0.00    -0.205 F 
ATOM      3  N   UNL     1      11.242  -6.769  32.035  0.00  0.00    -0.341 N 
ATOM      4  N   UNL     1      11.976  -5.125  33.339  0.00  0.00    -0.232 NA
ATOM     16  C   UNL     1      11.024  -6.013  33.153  0.00  0.00    +0.113 A 
ATOM     17  C   UNL     1      12.412  -6.339  31.461  0.00  0.00    +0.069 A 
ATOM     18  C   UNL     1      12.850  -5.314  32.293  0.00  0.00    +0.089 A 
ATOM     19  C   UNL     1      13.103  -6.748  30.320  0.00  0.00    +0.066 A 
ATOM     20  C   UNL     1      14.047  -4.646  31.986  0.00  0.00    +0.032 A 
ATOM     21  C   UNL     1      14.292  -6.072  30.028  0.00  0.00    +0.125 A 
ATOM     22  C   UNL     1      14.757  -5.038  30.845  0.00  0.00    +0.040 A 
ATOM     23  H   UNL     1      10.650  -7.512  31.688  0.00  0.00    +0.167 HD
ENDBRANCH   7  16
BRANCH   2   6
ATOM      6  C   UNL     1       6.464  -7.566  33.277  0.00  0.00    +0.088 C 
BRANCH   6   5
ATOM      5  C   UNL     1       6.991  -8.724  32.430  0.00  0.00    +0.003 C 
ATOM     10  C   UNL     1       6.519  -8.590  30.976  0.00  0.00    +0.005 C 
ATOM     11  C   UNL     1       6.557 -10.071  33.023  0.00  0.00    +0.005 C 
ATOM     13  C   UNL     1       6.989  -9.764  30.120  0.00  0.00    +0.000 C 
ATOM     14  C   UNL     1       7.027 -11.242  32.164  0.00  0.00    +0.000 C 
ATOM     15  C   UNL     1       6.563 -11.101  30.717  0.00  0.00    +0.000 C 
ENDBRANCH   6   5
ENDBRANCH   2   6
TORSDOF 3
ENDMDL
