REMARK  Name = 11941369
REMARK  4 active torsions:
REMARK  status: ('A' for Active; 'I' for Inactive)
REMARK    1  A    between atoms: N_3  and  C_11
REMARK    2  A    between atoms: C_20  and  C_23
REMARK    3  A    between atoms: C_22  and  C_24
REMARK    4  A    between atoms: C_25  and  C_28
REMARK                            x       y       z     vdW  Elec       q    Type
REMARK                         _______ _______ _______ _____ _____    ______ ____
ROOT
ATOM      1  O   UNL     1      -2.515  -0.494   1.942  0.00  0.00    -0.267 OA
ATOM      3  N   UNL     1       1.972  -1.547  -0.033  0.00  0.00    -0.298 NA
ATOM      4  N   UNL     1      -1.177  -1.690   0.453  0.00  0.00    -0.311 N 
ATOM      6  C   UNL     1       0.675  -3.282   1.230  0.00  0.00    +0.024 C 
ATOM      7  C   UNL     1       0.262  -2.974  -1.164  0.00  0.00    +0.050 C 
ATOM      8  C   UNL     1       0.374  -4.027  -0.065  0.00  0.00    +0.017 C 
ATOM      9  C   UNL     1       1.994  -2.492   1.090  0.00  0.00    +0.090 C 
ATOM     10  C   UNL     1       1.602  -2.214  -1.290  0.00  0.00    +0.094 C 
ATOM     12  C   UNL     1      -0.519  -2.381   1.571  0.00  0.00    +0.130 C 
ATOM     13  C   UNL     1      -0.871  -2.008  -0.872  0.00  0.00    +0.026 A 
ATOM     18  C   UNL     1      -1.562  -1.447  -1.876  0.00  0.00    +0.022 A 
ATOM     19  C   UNL     1      -2.195  -0.774   0.786  0.00  0.00    +0.259 A 
ATOM     20  C   UNL     1      -2.929  -0.136  -0.362  0.00  0.00    +0.047 A 
ATOM     21  C   UNL     1      -2.602  -0.493  -1.613  0.00  0.00    +0.015 A 
ENDROOT
BRANCH   3  11
ATOM      2  O   UNL     1       5.390   3.371   1.300  0.00  0.00    -0.276 OA
ATOM      5  N   UNL     1       4.826   1.570  -0.055  0.00  0.00    -0.302 N 
ATOM     11  C   UNL     1       3.254  -0.858  -0.164  0.00  0.00    +0.060 C 
ATOM     14  C   UNL     1       3.171   0.202  -1.269  0.00  0.00    +0.038 C 
ATOM     15  C   UNL     1       3.643  -0.211   1.172  0.00  0.00    +0.038 C 
ATOM     16  C   UNL     1       4.472   1.000  -1.361  0.00  0.00    +0.109 C 
ATOM     17  C   UNL     1       4.933   0.595   1.032  0.00  0.00    +0.109 C 
ATOM     22  C   UNL     1       5.094   2.916   0.192  0.00  0.00    +0.212 C 
ATOM     24  C   UNL     1       5.007   3.850  -0.988  0.00  0.00    +0.109 C 
ENDBRANCH   3  11
BRANCH  20  23
ATOM     23  C   UNL     1      -3.982   0.869  -0.131  0.00  0.00    -0.010 A 
ATOM     25  C   UNL     1      -3.684   2.231  -0.049  0.00  0.00    -0.043 A 
ATOM     26  C   UNL     1      -5.304   0.439   0.009  0.00  0.00    +0.009 A 
ATOM     27  C   UNL     1      -4.703   3.159   0.171  0.00  0.00    +0.004 A 
ATOM     28  C   UNL     1      -2.283   2.731  -0.193  0.00  0.00    +0.044 C 
ATOM     29  C   UNL     1      -6.322   1.367   0.229  0.00  0.00    +0.001 A 
ATOM     30  C   UNL     1      -6.022   2.726   0.310  0.00  0.00    +0.000 A 
ENDBRANCH  20  23
TORSDOF 2
