REMARK  Name = 11913161
REMARK  9 active torsions:
REMARK  status: ('A' for Active; 'I' for Inactive)
REMARK    1  A    between atoms: O_4  and  C_29
REMARK    2  A    between atoms: O_4  and  C_30
REMARK    3  A    between atoms: N_6  and  C_19
REMARK    4  A    between atoms: C_8  and  C_14
REMARK    5  A    between atoms: C_9  and  C_13
REMARK    6  A    between atoms: C_13  and  C_15
REMARK    7  A    between atoms: C_14  and  C_17
REMARK    8  A    between atoms: C_16  and  C_18
REMARK    9  A    between atoms: C_19  and  C_22
REMARK                            x       y       z     vdW  Elec       q    Type
REMARK                         _______ _______ _______ _____ _____    ______ ____
ROOT
ATOM      2  O   UNL     1      -4.859  -1.586  -0.517  0.00  0.00    -0.270 OA
ATOM      5  N   UNL     1      -2.741  -1.603   0.475  0.00  0.00    -0.297 N 
ATOM      8  C   UNL     1      -0.179  -2.951   0.409  0.00  0.00    +0.004 C 
ATOM      9  C   UNL     1      -0.272  -1.409   0.274  0.00  0.00    +0.010 C 
ATOM     10  C   UNL     1      -1.467  -3.639  -0.074  0.00  0.00    +0.023 C 
ATOM     11  C   UNL     1      -1.548  -0.898   0.966  0.00  0.00    +0.112 C 
ATOM     12  C   UNL     1      -2.697  -3.057   0.617  0.00  0.00    +0.108 C 
ATOM     16  C   UNL     1      -3.862  -1.000  -0.100  0.00  0.00    +0.247 C 
ENDROOT
BRANCH  16  18
ATOM      1 CL   UNL     1      -3.668   3.699   2.078  0.00  0.00    -0.062 Cl
ATOM      7  N   UNL     1      -3.889   3.247  -0.465  0.00  0.00    -0.244 NA
ATOM     18  C   UNL     1      -3.871   0.462  -0.225  0.00  0.00    +0.041 A 
ATOM     20  C   UNL     1      -3.771   1.261   0.909  0.00  0.00    +0.053 A 
ATOM     21  C   UNL     1      -3.980   1.054  -1.478  0.00  0.00    +0.033 A 
ATOM     23  C   UNL     1      -3.785   2.635   0.736  0.00  0.00    +0.130 A 
ATOM     24  C   UNL     1      -3.984   2.438  -1.544  0.00  0.00    +0.113 A 
ENDBRANCH  16  18
BRANCH   9  13
ATOM     13  C   UNL     1      -0.213  -0.906  -1.174  0.00  0.00    +0.002 C 
ATOM     15  C   UNL     1      -0.205   0.607  -1.226  0.00  0.00    +0.004 C 
ENDBRANCH   9  13
BRANCH   8  14
ATOM     14  C   UNL     1       1.044  -3.542  -0.293  0.00  0.00    +0.099 C 
BRANCH  14  17
ATOM      3  O   UNL     1       2.696  -3.006   1.391  0.00  0.00    -0.276 OA
ATOM      6  N   UNL     1       3.050  -2.343  -0.809  0.00  0.00    -0.311 N 
ATOM     17  C   UNL     1       2.340  -2.950   0.217  0.00  0.00    +0.214 C 
ATOM     31  H   UNL     1       2.677  -2.344  -1.753  0.00  0.00    +0.149 HD
BRANCH   6  19
ATOM     19  C   UNL     1       4.325  -1.692  -0.608  0.00  0.00    +0.139 C 
BRANCH  19  22
ATOM     22  C   UNL     1       4.165  -0.237  -0.273  0.00  0.00    -0.030 A 
ATOM     25  C   UNL     1       4.048   0.164   1.058  0.00  0.00    +0.009 A 
ATOM     26  C   UNL     1       4.136   0.714  -1.293  0.00  0.00    +0.009 A 
ATOM     27  C   UNL     1       3.900   1.516   1.369  0.00  0.00    +0.046 A 
ATOM     28  C   UNL     1       3.988   2.066  -0.982  0.00  0.00    +0.046 A 
ATOM     29  C   UNL     1       3.870   2.467   0.349  0.00  0.00    +0.120 A 
BRANCH  29   4
ATOM      4  O   UNL     1       3.727   3.786   0.652  0.00  0.00    -0.495 OA
ATOM     30  C   UNL     1       3.704   4.705  -0.439  0.00  0.00    +0.277 C 
ENDBRANCH  29   4
ENDBRANCH  19  22
ENDBRANCH   6  19
ENDBRANCH  14  17
ENDBRANCH   8  14
TORSDOF 7
