MODEL 1
REMARK VINA RESULT:      -7.4      0.000      0.000
REMARK  Name = 45783982
REMARK  12 active torsions:
REMARK  status: ('A' for Active; 'I' for Inactive)
REMARK    1  A    between atoms: N_2  and  C_14
REMARK    2  A    between atoms: N_8  and  C_36
REMARK    3  A    between atoms: N_8  and  C_37
REMARK    4  A    between atoms: N_8  and  C_38
REMARK    5  A    between atoms: C_9  and  C_13
REMARK    6  A    between atoms: C_10  and  C_14
REMARK    7  A    between atoms: C_12  and  C_17
REMARK    8  A    between atoms: C_13  and  C_18
REMARK    9  A    between atoms: C_13  and  C_19
REMARK   10  A    between atoms: C_16  and  C_22
REMARK   11  A    between atoms: C_17  and  C_25
REMARK   12  A    between atoms: C_27  and  C_28
REMARK                            x       y       z     vdW  Elec       q    Type
REMARK                         _______ _______ _______ _____ _____    ______ ____
ROOT
ATOM      9  C   UNL     1      -4.988 -12.024  15.579  0.00  0.00    +0.000 C 
ATOM     10  C   UNL     1      -4.596 -11.098  16.753  0.00  0.00    +0.029 C 
ATOM     11  C   UNL     1      -4.428 -11.482  14.256  0.00  0.00    +0.012 C 
ATOM     12  C   UNL     1      -2.895 -11.294  14.273  0.00  0.00    +0.024 C 
ATOM     15  C   UNL     1      -3.157 -10.656  16.688  0.00  0.00    -0.023 C 
ATOM     16  C   UNL     1      -2.377 -10.747  15.594  0.00  0.00    -0.073 C 
ATOM     22  C   UNL     1      -0.926 -10.357  15.665  0.00  0.00    +0.039 C 
ENDROOT
BRANCH   9  13
ATOM     13  C   UNL     1      -4.527 -13.467  15.827  0.00  0.00    -0.013 C 
ATOM     18  C   UNL     1      -4.955 -14.368  14.672  0.00  0.00    +0.007 C 
ATOM     19  C   UNL     1      -5.082 -13.983  17.150  0.00  0.00    +0.007 C 
ENDBRANCH   9  13
BRANCH  10  14
ATOM     14  C   UNL     1      -5.499  -9.862  16.824  0.00  0.00    +0.092 C 
BRANCH  14   2
ATOM      2  N   UNL     1      -6.880 -10.246  17.118  0.00  0.00    -0.299 NA
ATOM      3  N   UNL     1      -9.500  -9.924  18.208  0.00  0.00    -0.297 N 
ATOM      6  N   UNL     1     -11.788  -9.653  17.824  0.00  0.00    -0.223 NA
ATOM      7  N   UNL     1     -10.943 -10.094  20.037  0.00  0.00    -0.223 NA
ATOM     20  C   UNL     1      -7.095 -10.323  18.569  0.00  0.00    +0.103 C 
ATOM     21  C   UNL     1      -7.819  -9.288  16.524  0.00  0.00    +0.103 C 
ATOM     23  C   UNL     1      -8.520 -10.780  18.888  0.00  0.00    +0.123 C 
ATOM     24  C   UNL     1      -9.269  -9.710  16.776  0.00  0.00    +0.123 C 
ATOM     26  C   UNL     1     -10.804  -9.888  18.713  0.00  0.00    +0.218 A 
ATOM     29  C   UNL     1     -13.032  -9.625  18.345  0.00  0.00    +0.116 A 
ATOM     30  C   UNL     1     -12.213 -10.053  20.490  0.00  0.00    +0.116 A 
ATOM     31  C   UNL     1     -13.307  -9.820  19.682  0.00  0.00    +0.039 A 
ENDBRANCH  14   2
ENDBRANCH  10  14
BRANCH  12  17
ATOM     17  C   UNL     1      -2.496 -10.428  13.072  0.00  0.00    +0.105 C 
BRANCH  17  25
ATOM      1  O   UNL     1      -3.835 -10.144  11.051  0.00  0.00    -0.420 OA
ATOM      4  N   UNL     1      -2.899 -12.166  11.254  0.00  0.00    -0.112 NA
ATOM      5  N   UNL     1      -3.620 -12.146  10.075  0.00  0.00    -0.107 NA
ATOM     25  C   UNL     1      -3.051 -10.978  11.790  0.00  0.00    +0.218 A 
ATOM     27  C   UNL     1      -4.149 -10.947   9.998  0.00  0.00    +0.248 A 
BRANCH  27  28
ATOM     28  C   UNL     1      -4.992 -10.364   8.994  0.00  0.00    +0.039 A 
ATOM     32  C   UNL     1      -4.907 -10.800   7.672  0.00  0.00    +0.015 A 
ATOM     33  C   UNL     1      -5.897  -9.360   9.341  0.00  0.00    +0.015 A 
ATOM     34  C   UNL     1      -5.727 -10.234   6.697  0.00  0.00    +0.024 A 
ATOM     35  C   UNL     1      -6.716  -8.793   8.365  0.00  0.00    +0.024 A 
ATOM     36  C   UNL     1      -6.631  -9.230   7.043  0.00  0.00    +0.029 A 
BRANCH  36   8
ATOM      8  N   UNL     1      -7.459  -8.656   6.056  0.00  0.00    -0.336 N 
ATOM     37  C   UNL     1      -7.521  -9.229   4.726  0.00  0.00    +0.129 C 
ATOM     38  C   UNL     1      -8.265  -7.490   6.360  0.00  0.00    +0.129 C 
ENDBRANCH  36   8
ENDBRANCH  27  28
ENDBRANCH  17  25
ENDBRANCH  12  17
TORSDOF 7
ENDMDL
MODEL 2
REMARK VINA RESULT:      -7.3      2.459      8.433
REMARK  Name = 45783982
REMARK  12 active torsions:
REMARK  status: ('A' for Active; 'I' for Inactive)
REMARK    1  A    between atoms: N_2  and  C_14
REMARK    2  A    between atoms: N_8  and  C_36
REMARK    3  A    between atoms: N_8  and  C_37
REMARK    4  A    between atoms: N_8  and  C_38
REMARK    5  A    between atoms: C_9  and  C_13
REMARK    6  A    between atoms: C_10  and  C_14
REMARK    7  A    between atoms: C_12  and  C_17
REMARK    8  A    between atoms: C_13  and  C_18
REMARK    9  A    between atoms: C_13  and  C_19
REMARK   10  A    between atoms: C_16  and  C_22
REMARK   11  A    between atoms: C_17  and  C_25
REMARK   12  A    between atoms: C_27  and  C_28
REMARK                            x       y       z     vdW  Elec       q    Type
REMARK                         _______ _______ _______ _____ _____    ______ ____
ROOT
ATOM      9  C   UNL     1      -3.539 -10.431  15.541  0.00  0.00    +0.000 C 
ATOM     10  C   UNL     1      -4.588 -11.242  14.746  0.00  0.00    +0.029 C 
ATOM     11  C   UNL     1      -3.955 -10.311  17.014  0.00  0.00    +0.012 C 
ATOM     12  C   UNL     1      -4.176 -11.677  17.700  0.00  0.00    +0.024 C 
ATOM     15  C   UNL     1      -5.051 -12.472  15.484  0.00  0.00    -0.023 C 
ATOM     16  C   UNL     1      -4.866 -12.691  16.800  0.00  0.00    -0.073 C 
ATOM     22  C   UNL     1      -5.291 -13.994  17.418  0.00  0.00    +0.039 C 
ENDROOT
BRANCH   9  13
ATOM     13  C   UNL     1      -2.139 -11.046  15.408  0.00  0.00    -0.013 C 
ATOM     18  C   UNL     1      -1.068  -9.986  15.645  0.00  0.00    +0.007 C 
ATOM     19  C   UNL     1      -1.968 -11.691  14.036  0.00  0.00    +0.007 C 
ENDBRANCH   9  13
BRANCH  10  14
ATOM     14  C   UNL     1      -5.806 -10.387  14.380  0.00  0.00    +0.092 C 
BRANCH  14   2
ATOM      2  N   UNL     1      -5.692  -9.884  13.011  0.00  0.00    -0.299 NA
ATOM      3  N   UNL     1      -6.091  -9.910  10.184  0.00  0.00    -0.297 N 
ATOM      6  N   UNL     1      -7.087  -8.929   8.312  0.00  0.00    -0.223 NA
ATOM      7  N   UNL     1      -5.417 -10.650   8.073  0.00  0.00    -0.223 NA
ATOM     20  C   UNL     1      -4.970 -10.846  12.169  0.00  0.00    +0.103 C 
ATOM     21  C   UNL     1      -7.021  -9.624  12.446  0.00  0.00    +0.103 C 
ATOM     23  C   UNL     1      -4.795 -10.306  10.748  0.00  0.00    +0.123 C 
ATOM     24  C   UNL     1      -6.914  -9.044  11.033  0.00  0.00    +0.123 C 
ATOM     26  C   UNL     1      -6.204  -9.826   8.791  0.00  0.00    +0.218 A 
ATOM     29  C   UNL     1      -7.171  -8.875   6.967  0.00  0.00    +0.116 A 
ATOM     30  C   UNL     1      -5.551 -10.542   6.735  0.00  0.00    +0.116 A 
ATOM     31  C   UNL     1      -6.421  -9.664   6.120  0.00  0.00    +0.039 A 
ENDBRANCH  14   2
ENDBRANCH  10  14
BRANCH  12  17
ATOM     17  C   UNL     1      -4.923 -11.446  19.020  0.00  0.00    +0.105 C 
BRANCH  17  25
ATOM      1  O   UNL     1      -6.850 -10.411  17.937  0.00  0.00    -0.420 OA
ATOM      4  N   UNL     1      -7.370 -12.081  19.332  0.00  0.00    -0.112 NA
ATOM      5  N   UNL     1      -8.546 -11.593  18.794  0.00  0.00    -0.107 NA
ATOM     25  C   UNL     1      -6.407 -11.363  18.804  0.00  0.00    +0.218 A 
ATOM     27  C   UNL     1      -8.194 -10.620  17.986  0.00  0.00    +0.248 A 
BRANCH  27  28
ATOM     28  C   UNL     1      -8.993  -9.759  17.163  0.00  0.00    +0.039 A 
ATOM     32  C   UNL     1      -9.024  -9.947  15.781  0.00  0.00    +0.015 A 
ATOM     33  C   UNL     1      -9.739  -8.733  17.744  0.00  0.00    +0.015 A 
ATOM     34  C   UNL     1      -9.801  -9.111  14.980  0.00  0.00    +0.024 A 
ATOM     35  C   UNL     1     -10.516  -7.896  16.943  0.00  0.00    +0.024 A 
ATOM     36  C   UNL     1     -10.547  -8.085  15.561  0.00  0.00    +0.029 A 
BRANCH  36   8
ATOM      8  N   UNL     1     -11.332  -7.238  14.751  0.00  0.00    -0.336 N 
ATOM     37  C   UNL     1     -11.985  -7.756  13.564  0.00  0.00    +0.129 C 
ATOM     38  C   UNL     1     -11.503  -5.842  15.098  0.00  0.00    +0.129 C 
ENDBRANCH  36   8
ENDBRANCH  27  28
ENDBRANCH  17  25
ENDBRANCH  12  17
TORSDOF 7
ENDMDL
MODEL 3
REMARK VINA RESULT:      -7.2      2.517      8.442
REMARK  Name = 45783982
REMARK  12 active torsions:
REMARK  status: ('A' for Active; 'I' for Inactive)
REMARK    1  A    between atoms: N_2  and  C_14
REMARK    2  A    between atoms: N_8  and  C_36
REMARK    3  A    between atoms: N_8  and  C_37
REMARK    4  A    between atoms: N_8  and  C_38
REMARK    5  A    between atoms: C_9  and  C_13
REMARK    6  A    between atoms: C_10  and  C_14
REMARK    7  A    between atoms: C_12  and  C_17
REMARK    8  A    between atoms: C_13  and  C_18
REMARK    9  A    between atoms: C_13  and  C_19
REMARK   10  A    between atoms: C_16  and  C_22
REMARK   11  A    between atoms: C_17  and  C_25
REMARK   12  A    between atoms: C_27  and  C_28
REMARK                            x       y       z     vdW  Elec       q    Type
REMARK                         _______ _______ _______ _____ _____    ______ ____
ROOT
ATOM      9  C   UNL     1      -3.841 -10.626  15.306  0.00  0.00    +0.000 C 
ATOM     10  C   UNL     1      -4.756 -11.006  14.119  0.00  0.00    +0.029 C 
ATOM     11  C   UNL     1      -4.350 -11.268  16.604  0.00  0.00    +0.012 C 
ATOM     12  C   UNL     1      -4.471 -12.805  16.520  0.00  0.00    +0.024 C 
ATOM     15  C   UNL     1      -5.134 -12.465  14.122  0.00  0.00    -0.023 C 
ATOM     16  C   UNL     1      -5.002 -13.288  15.180  0.00  0.00    -0.073 C 
ATOM     22  C   UNL     1      -5.329 -14.750  15.047  0.00  0.00    +0.039 C 
ENDROOT
BRANCH   9  13
ATOM     13  C   UNL     1      -2.381 -11.012  15.031  0.00  0.00    -0.013 C 
ATOM     18  C   UNL     1      -1.459 -10.380  16.070  0.00  0.00    +0.007 C 
ATOM     19  C   UNL     1      -1.975 -10.593  13.622  0.00  0.00    +0.007 C 
ENDBRANCH   9  13
BRANCH  10  14
ATOM     14  C   UNL     1      -6.032 -10.156  14.094  0.00  0.00    +0.092 C 
BRANCH  14   2
ATOM      2  N   UNL     1      -6.563 -10.063  12.734  0.00  0.00    -0.299 NA
ATOM      3  N   UNL     1      -7.723  -8.760  10.473  0.00  0.00    -0.297 N 
ATOM      6  N   UNL     1      -7.484  -8.028   8.267  0.00  0.00    -0.223 NA
ATOM      7  N   UNL     1      -9.630  -7.995   9.362  0.00  0.00    -0.223 NA
ATOM     20  C   UNL     1      -7.970  -9.645  12.759  0.00  0.00    +0.103 C 
ATOM     21  C   UNL     1      -5.774  -9.114  11.938  0.00  0.00    +0.103 C 
ATOM     23  C   UNL     1      -8.554  -9.599  11.345  0.00  0.00    +0.123 C 
ATOM     24  C   UNL     1      -6.286  -9.049  10.496  0.00  0.00    +0.123 C 
ATOM     26  C   UNL     1      -8.306  -8.236   9.313  0.00  0.00    +0.218 A 
ATOM     29  C   UNL     1      -8.079  -7.523   7.167  0.00  0.00    +0.116 A 
ATOM     30  C   UNL     1     -10.160  -7.492   8.228  0.00  0.00    +0.116 A 
ATOM     31  C   UNL     1      -9.425  -7.232   7.089  0.00  0.00    +0.039 A 
ENDBRANCH  14   2
ENDBRANCH  10  14
BRANCH  12  17
ATOM     17  C   UNL     1      -5.311 -13.295  17.707  0.00  0.00    +0.105 C 
BRANCH  17  25
ATOM      1  O   UNL     1      -7.088 -11.627  17.581  0.00  0.00    -0.420 OA
ATOM      4  N   UNL     1      -5.956 -11.617  19.511  0.00  0.00    -0.112 NA
ATOM      5  N   UNL     1      -6.923 -10.631  19.578  0.00  0.00    -0.107 NA
ATOM     25  C   UNL     1      -6.089 -12.172  18.329  0.00  0.00    +0.218 A 
ATOM     27  C   UNL     1      -7.559 -10.673  18.431  0.00  0.00    +0.248 A 
BRANCH  27  28
ATOM     28  C   UNL     1      -8.653  -9.885  17.943  0.00  0.00    +0.039 A 
ATOM     32  C   UNL     1      -8.438  -8.934  16.945  0.00  0.00    +0.015 A 
ATOM     33  C   UNL     1      -9.933 -10.069  18.467  0.00  0.00    +0.015 A 
ATOM     34  C   UNL     1      -9.503  -8.169  16.470  0.00  0.00    +0.024 A 
ATOM     35  C   UNL     1     -10.998  -9.302  17.993  0.00  0.00    +0.024 A 
ATOM     36  C   UNL     1     -10.782  -8.352  16.994  0.00  0.00    +0.029 A 
BRANCH  36   8
ATOM      8  N   UNL     1     -11.858  -7.577  16.515  0.00  0.00    -0.336 N 
ATOM     37  C   UNL     1     -13.176  -8.163  16.365  0.00  0.00    +0.129 C 
ATOM     38  C   UNL     1     -11.664  -6.181  16.175  0.00  0.00    +0.129 C 
ENDBRANCH  36   8
ENDBRANCH  27  28
ENDBRANCH  17  25
ENDBRANCH  12  17
TORSDOF 7
ENDMDL
MODEL 4
REMARK VINA RESULT:      -7.1      2.575      4.162
REMARK  Name = 45783982
REMARK  12 active torsions:
REMARK  status: ('A' for Active; 'I' for Inactive)
REMARK    1  A    between atoms: N_2  and  C_14
REMARK    2  A    between atoms: N_8  and  C_36
REMARK    3  A    between atoms: N_8  and  C_37
REMARK    4  A    between atoms: N_8  and  C_38
REMARK    5  A    between atoms: C_9  and  C_13
REMARK    6  A    between atoms: C_10  and  C_14
REMARK    7  A    between atoms: C_12  and  C_17
REMARK    8  A    between atoms: C_13  and  C_18
REMARK    9  A    between atoms: C_13  and  C_19
REMARK   10  A    between atoms: C_16  and  C_22
REMARK   11  A    between atoms: C_17  and  C_25
REMARK   12  A    between atoms: C_27  and  C_28
REMARK                            x       y       z     vdW  Elec       q    Type
REMARK                         _______ _______ _______ _____ _____    ______ ____
ROOT
ATOM      9  C   UNL     1      -3.878 -11.706  12.576  0.00  0.00    +0.000 C 
ATOM     10  C   UNL     1      -2.843 -11.180  13.597  0.00  0.00    +0.029 C 
ATOM     11  C   UNL     1      -4.229 -10.614  11.555  0.00  0.00    +0.012 C 
ATOM     12  C   UNL     1      -2.999 -10.063  10.803  0.00  0.00    +0.024 C 
ATOM     15  C   UNL     1      -1.734 -10.394  12.947  0.00  0.00    -0.023 C 
ATOM     16  C   UNL     1      -1.779  -9.898  11.696  0.00  0.00    -0.073 C 
ATOM     22  C   UNL     1      -0.578  -9.204  11.114  0.00  0.00    +0.039 C 
ENDROOT
BRANCH   9  13
ATOM     13  C   UNL     1      -3.378 -12.978  11.878  0.00  0.00    -0.013 C 
ATOM     18  C   UNL     1      -4.449 -13.528  10.941  0.00  0.00    +0.007 C 
ATOM     19  C   UNL     1      -2.971 -14.026  12.909  0.00  0.00    +0.007 C 
ENDBRANCH   9  13
BRANCH  10  14
ATOM     14  C   UNL     1      -3.504 -10.317  14.678  0.00  0.00    +0.092 C 
BRANCH  14   2
ATOM      2  N   UNL     1      -4.663 -11.002  15.250  0.00  0.00    -0.299 NA
ATOM      3  N   UNL     1      -6.645 -11.565  17.227  0.00  0.00    -0.297 N 
ATOM      6  N   UNL     1      -8.899 -11.532  17.841  0.00  0.00    -0.223 NA
ATOM      7  N   UNL     1      -7.260 -12.678  19.186  0.00  0.00    -0.223 NA
ATOM     20  C   UNL     1      -4.295 -11.684  16.497  0.00  0.00    +0.103 C 
ATOM     21  C   UNL     1      -5.750 -10.049  15.503  0.00  0.00    +0.103 C 
ATOM     23  C   UNL     1      -5.486 -12.452  17.074  0.00  0.00    +0.123 C 
ATOM     24  C   UNL     1      -6.990 -10.763  16.049  0.00  0.00    +0.123 C 
ATOM     26  C   UNL     1      -7.648 -11.942  18.127  0.00  0.00    +0.218 A 
ATOM     29  C   UNL     1      -9.840 -11.913  18.730  0.00  0.00    +0.116 A 
ATOM     30  C   UNL     1      -8.252 -13.025  20.033  0.00  0.00    +0.116 A 
ATOM     31  C   UNL     1      -9.573 -12.667  19.854  0.00  0.00    +0.039 A 
ENDBRANCH  14   2
ENDBRANCH  10  14
BRANCH  12  17
ATOM     17  C   UNL     1      -3.400  -8.762  10.096  0.00  0.00    +0.105 C 
BRANCH  17  25
ATOM      1  O   UNL     1      -5.679  -8.063   9.572  0.00  0.00    -0.420 OA
ATOM      4  N   UNL     1      -4.959  -9.814   8.379  0.00  0.00    -0.112 NA
ATOM      5  N   UNL     1      -6.252  -9.529   7.981  0.00  0.00    -0.107 NA
ATOM     25  C   UNL     1      -4.666  -8.934   9.307  0.00  0.00    +0.218 A 
ATOM     27  C   UNL     1      -6.632  -8.501   8.704  0.00  0.00    +0.248 A 
BRANCH  27  28
ATOM     28  C   UNL     1      -7.872  -7.780   8.719  0.00  0.00    +0.039 A 
ATOM     32  C   UNL     1      -9.002  -8.349   9.308  0.00  0.00    +0.015 A 
ATOM     33  C   UNL     1      -7.948  -6.511   8.145  0.00  0.00    +0.015 A 
ATOM     34  C   UNL     1     -10.207  -7.648   9.324  0.00  0.00    +0.024 A 
ATOM     35  C   UNL     1      -9.154  -5.810   8.161  0.00  0.00    +0.024 A 
ATOM     36  C   UNL     1     -10.284  -6.379   8.750  0.00  0.00    +0.029 A 
BRANCH  36   8
ATOM      8  N   UNL     1     -11.503  -5.671   8.765  0.00  0.00    -0.336 N 
ATOM     37  C   UNL     1     -12.714  -6.284   8.254  0.00  0.00    +0.129 C 
ATOM     38  C   UNL     1     -11.565  -4.324   9.297  0.00  0.00    +0.129 C 
ENDBRANCH  36   8
ENDBRANCH  27  28
ENDBRANCH  17  25
ENDBRANCH  12  17
TORSDOF 7
ENDMDL
MODEL 5
REMARK VINA RESULT:      -7.1      2.439      3.869
REMARK  Name = 45783982
REMARK  12 active torsions:
REMARK  status: ('A' for Active; 'I' for Inactive)
REMARK    1  A    between atoms: N_2  and  C_14
REMARK    2  A    between atoms: N_8  and  C_36
REMARK    3  A    between atoms: N_8  and  C_37
REMARK    4  A    between atoms: N_8  and  C_38
REMARK    5  A    between atoms: C_9  and  C_13
REMARK    6  A    between atoms: C_10  and  C_14
REMARK    7  A    between atoms: C_12  and  C_17
REMARK    8  A    between atoms: C_13  and  C_18
REMARK    9  A    between atoms: C_13  and  C_19
REMARK   10  A    between atoms: C_16  and  C_22
REMARK   11  A    between atoms: C_17  and  C_25
REMARK   12  A    between atoms: C_27  and  C_28
REMARK                            x       y       z     vdW  Elec       q    Type
REMARK                         _______ _______ _______ _____ _____    ______ ____
ROOT
ATOM      9  C   UNL     1      -7.177 -11.915  16.748  0.00  0.00    +0.000 C 
ATOM     10  C   UNL     1      -7.362 -11.716  18.271  0.00  0.00    +0.029 C 
ATOM     11  C   UNL     1      -5.905 -11.206  16.265  0.00  0.00    +0.012 C 
ATOM     12  C   UNL     1      -4.629 -11.667  17.002  0.00  0.00    +0.024 C 
ATOM     15  C   UNL     1      -6.079 -11.897  19.040  0.00  0.00    -0.023 C 
ATOM     16  C   UNL     1      -4.850 -11.891  18.490  0.00  0.00    -0.073 C 
ATOM     22  C   UNL     1      -3.640 -12.169  19.339  0.00  0.00    +0.039 C 
ENDROOT
BRANCH   9  13
ATOM     13  C   UNL     1      -7.158 -13.404  16.378  0.00  0.00    -0.013 C 
ATOM     18  C   UNL     1      -7.064 -13.574  14.865  0.00  0.00    +0.007 C 
ATOM     19  C   UNL     1      -8.396 -14.106  16.926  0.00  0.00    +0.007 C 
ENDBRANCH   9  13
BRANCH  10  14
ATOM     14  C   UNL     1      -7.952 -10.338  18.594  0.00  0.00    +0.092 C 
BRANCH  14   2
ATOM      2  N   UNL     1      -8.963  -9.965  17.604  0.00  0.00    -0.299 NA
ATOM      3  N   UNL     1     -10.976  -8.313  16.430  0.00  0.00    -0.297 N 
ATOM      6  N   UNL     1     -11.638  -6.960  14.645  0.00  0.00    -0.223 NA
ATOM      7  N   UNL     1     -13.208  -7.630  16.346  0.00  0.00    -0.223 NA
ATOM     20  C   UNL     1     -10.281  -9.836  18.239  0.00  0.00    +0.103 C 
ATOM     21  C   UNL     1      -8.599  -8.703  16.948  0.00  0.00    +0.103 C 
ATOM     23  C   UNL     1     -11.358  -9.501  17.204  0.00  0.00    +0.123 C 
ATOM     24  C   UNL     1      -9.621  -8.329  15.871  0.00  0.00    +0.123 C 
ATOM     26  C   UNL     1     -11.988  -7.600  15.777  0.00  0.00    +0.218 A 
ATOM     29  C   UNL     1     -12.637  -6.284  14.041  0.00  0.00    +0.116 A 
ATOM     30  C   UNL     1     -14.159  -6.934  15.690  0.00  0.00    +0.116 A 
ATOM     31  C   UNL     1     -13.929  -6.234  14.523  0.00  0.00    +0.039 A 
ENDBRANCH  14   2
ENDBRANCH  10  14
BRANCH  12  17
ATOM     17  C   UNL     1      -3.506 -10.664  16.711  0.00  0.00    +0.105 C 
BRANCH  17  25
ATOM      1  O   UNL     1      -3.601 -10.833  14.278  0.00  0.00    -0.420 OA
ATOM      4  N   UNL     1      -1.600 -11.321  15.153  0.00  0.00    -0.112 NA
ATOM      5  N   UNL     1      -1.510 -11.456  13.781  0.00  0.00    -0.107 NA
ATOM     25  C   UNL     1      -2.837 -10.956  15.399  0.00  0.00    +0.218 A 
ATOM     27  C   UNL     1      -2.700 -11.162  13.312  0.00  0.00    +0.248 A 
BRANCH  27  28
ATOM     28  C   UNL     1      -3.189 -11.133  11.963  0.00  0.00    +0.039 A 
ATOM     32  C   UNL     1      -3.222  -9.930  11.258  0.00  0.00    +0.015 A 
ATOM     33  C   UNL     1      -3.631 -12.309  11.357  0.00  0.00    +0.015 A 
ATOM     34  C   UNL     1      -3.696  -9.902   9.947  0.00  0.00    +0.024 A 
ATOM     35  C   UNL     1      -4.106 -12.281  10.045  0.00  0.00    +0.024 A 
ATOM     36  C   UNL     1      -4.138 -11.077   9.341  0.00  0.00    +0.029 A 
BRANCH  36   8
ATOM      8  N   UNL     1      -4.619 -11.049   8.016  0.00  0.00    -0.336 N 
ATOM     37  C   UNL     1      -4.368 -12.162   7.120  0.00  0.00    +0.129 C 
ATOM     38  C   UNL     1      -5.378  -9.912   7.533  0.00  0.00    +0.129 C 
ENDBRANCH  36   8
ENDBRANCH  27  28
ENDBRANCH  17  25
ENDBRANCH  12  17
TORSDOF 7
ENDMDL
MODEL 6
REMARK VINA RESULT:      -7.1      2.527      4.068
REMARK  Name = 45783982
REMARK  12 active torsions:
REMARK  status: ('A' for Active; 'I' for Inactive)
REMARK    1  A    between atoms: N_2  and  C_14
REMARK    2  A    between atoms: N_8  and  C_36
REMARK    3  A    between atoms: N_8  and  C_37
REMARK    4  A    between atoms: N_8  and  C_38
REMARK    5  A    between atoms: C_9  and  C_13
REMARK    6  A    between atoms: C_10  and  C_14
REMARK    7  A    between atoms: C_12  and  C_17
REMARK    8  A    between atoms: C_13  and  C_18
REMARK    9  A    between atoms: C_13  and  C_19
REMARK   10  A    between atoms: C_16  and  C_22
REMARK   11  A    between atoms: C_17  and  C_25
REMARK   12  A    between atoms: C_27  and  C_28
REMARK                            x       y       z     vdW  Elec       q    Type
REMARK                         _______ _______ _______ _____ _____    ______ ____
ROOT
ATOM      9  C   UNL     1      -3.889 -11.857  12.684  0.00  0.00    +0.000 C 
ATOM     10  C   UNL     1      -2.783 -11.303  13.612  0.00  0.00    +0.029 C 
ATOM     11  C   UNL     1      -4.406 -10.756  11.747  0.00  0.00    +0.012 C 
ATOM     12  C   UNL     1      -3.295 -10.110  10.892  0.00  0.00    +0.024 C 
ATOM     15  C   UNL     1      -1.793 -10.434  12.879  0.00  0.00    -0.023 C 
ATOM     16  C   UNL     1      -1.998  -9.902  11.659  0.00  0.00    -0.073 C 
ATOM     22  C   UNL     1      -0.906  -9.121  10.981  0.00  0.00    +0.039 C 
ENDROOT
BRANCH   9  13
ATOM     13  C   UNL     1      -3.397 -13.075  11.892  0.00  0.00    -0.013 C 
ATOM     18  C   UNL     1      -4.530 -13.658  11.053  0.00  0.00    +0.007 C 
ATOM     19  C   UNL     1      -2.824 -14.128  12.834  0.00  0.00    +0.007 C 
ENDBRANCH   9  13
BRANCH  10  14
ATOM     14  C   UNL     1      -3.371 -10.515  14.787  0.00  0.00    +0.092 C 
BRANCH  14   2
ATOM      2  N   UNL     1      -4.547 -11.197  15.329  0.00  0.00    -0.299 NA
ATOM      3  N   UNL     1      -6.617 -11.710  17.228  0.00  0.00    -0.297 N 
ATOM      6  N   UNL     1      -8.899 -11.693  17.727  0.00  0.00    -0.223 NA
ATOM      7  N   UNL     1      -7.312 -12.749  19.201  0.00  0.00    -0.223 NA
ATOM     20  C   UNL     1      -4.231 -11.816  16.622  0.00  0.00    +0.103 C 
ATOM     21  C   UNL     1      -5.661 -10.254  15.486  0.00  0.00    +0.103 C 
ATOM     23  C   UNL     1      -5.437 -12.581  17.173  0.00  0.00    +0.123 C 
ATOM     24  C   UNL     1      -6.915 -10.967  16.000  0.00  0.00    +0.123 C 
ATOM     26  C   UNL     1      -7.658 -12.067  18.093  0.00  0.00    +0.218 A 
ATOM     29  C   UNL     1      -9.878 -12.053  18.583  0.00  0.00    +0.116 A 
ATOM     30  C   UNL     1      -8.339 -13.077  20.012  0.00  0.00    +0.116 A 
ATOM     31  C   UNL     1      -9.655 -12.752  19.751  0.00  0.00    +0.039 A 
ENDBRANCH  14   2
ENDBRANCH  10  14
BRANCH  12  17
ATOM     17  C   UNL     1      -3.840  -8.813  10.281  0.00  0.00    +0.105 C 
BRANCH  17  25
ATOM      1  O   UNL     1      -4.541  -9.821   8.171  0.00  0.00    -0.420 OA
ATOM      4  N   UNL     1      -6.170  -8.737   9.256  0.00  0.00    -0.112 NA
ATOM      5  N   UNL     1      -6.704  -9.253   8.090  0.00  0.00    -0.107 NA
ATOM     25  C   UNL     1      -4.907  -9.093   9.263  0.00  0.00    +0.218 A 
ATOM     27  C   UNL     1      -5.718  -9.877   7.489  0.00  0.00    +0.248 A 
BRANCH  27  28
ATOM     28  C   UNL     1      -5.689 -10.597   6.249  0.00  0.00    +0.039 A 
ATOM     32  C   UNL     1      -4.603 -11.417   5.943  0.00  0.00    +0.015 A 
ATOM     33  C   UNL     1      -6.748 -10.475   5.348  0.00  0.00    +0.015 A 
ATOM     34  C   UNL     1      -4.576 -12.117   4.737  0.00  0.00    +0.024 A 
ATOM     35  C   UNL     1      -6.720 -11.175   4.141  0.00  0.00    +0.024 A 
ATOM     36  C   UNL     1      -5.634 -11.996   3.836  0.00  0.00    +0.029 A 
BRANCH  36   8
ATOM      8  N   UNL     1      -5.606 -12.703   2.616  0.00  0.00    -0.336 N 
ATOM     37  C   UNL     1      -4.382 -13.334   2.161  0.00  0.00    +0.129 C 
ATOM     38  C   UNL     1      -6.801 -12.815   1.804  0.00  0.00    +0.129 C 
ENDBRANCH  36   8
ENDBRANCH  27  28
ENDBRANCH  17  25
ENDBRANCH  12  17
TORSDOF 7
ENDMDL
MODEL 7
REMARK VINA RESULT:      -7.0      1.604      2.637
REMARK  Name = 45783982
REMARK  12 active torsions:
REMARK  status: ('A' for Active; 'I' for Inactive)
REMARK    1  A    between atoms: N_2  and  C_14
REMARK    2  A    between atoms: N_8  and  C_36
REMARK    3  A    between atoms: N_8  and  C_37
REMARK    4  A    between atoms: N_8  and  C_38
REMARK    5  A    between atoms: C_9  and  C_13
REMARK    6  A    between atoms: C_10  and  C_14
REMARK    7  A    between atoms: C_12  and  C_17
REMARK    8  A    between atoms: C_13  and  C_18
REMARK    9  A    between atoms: C_13  and  C_19
REMARK   10  A    between atoms: C_16  and  C_22
REMARK   11  A    between atoms: C_17  and  C_25
REMARK   12  A    between atoms: C_27  and  C_28
REMARK                            x       y       z     vdW  Elec       q    Type
REMARK                         _______ _______ _______ _____ _____    ______ ____
ROOT
ATOM      9  C   UNL     1      -4.388 -12.240  14.072  0.00  0.00    +0.000 C 
ATOM     10  C   UNL     1      -3.177 -11.612  14.801  0.00  0.00    +0.029 C 
ATOM     11  C   UNL     1      -4.957 -11.263  13.034  0.00  0.00    +0.012 C 
ATOM     12  C   UNL     1      -3.914 -10.801  11.993  0.00  0.00    +0.024 C 
ATOM     15  C   UNL     1      -2.236 -10.906  13.859  0.00  0.00    -0.023 C 
ATOM     16  C   UNL     1      -2.542 -10.547  12.598  0.00  0.00    -0.073 C 
ATOM     22  C   UNL     1      -1.497  -9.925  11.713  0.00  0.00    +0.039 C 
ENDROOT
BRANCH   9  13
ATOM     13  C   UNL     1      -4.017 -13.582  13.427  0.00  0.00    -0.013 C 
ATOM     18  C   UNL     1      -5.262 -14.269  12.873  0.00  0.00    +0.007 C 
ATOM     19  C   UNL     1      -3.307 -14.480  14.436  0.00  0.00    +0.007 C 
ENDBRANCH   9  13
BRANCH  10  14
ATOM     14  C   UNL     1      -3.621 -10.634  15.895  0.00  0.00    +0.092 C 
BRANCH  14   2
ATOM      2  N   UNL     1      -5.032 -10.832  16.223  0.00  0.00    -0.299 NA
ATOM      3  N   UNL     1      -7.429 -10.489  17.738  0.00  0.00    -0.297 N 
ATOM      6  N   UNL     1      -9.606  -9.647  17.843  0.00  0.00    -0.223 NA
ATOM      7  N   UNL     1      -8.758 -11.117  19.554  0.00  0.00    -0.223 NA
ATOM     20  C   UNL     1      -5.171 -11.457  17.545  0.00  0.00    +0.103 C 
ATOM     21  C   UNL     1      -5.750  -9.552  16.199  0.00  0.00    +0.103 C 
ATOM     23  C   UNL     1      -6.642 -11.721  17.875  0.00  0.00    +0.123 C 
ATOM     24  C   UNL     1      -7.241  -9.752  16.485  0.00  0.00    +0.123 C 
ATOM     26  C   UNL     1      -8.654 -10.414  18.410  0.00  0.00    +0.218 A 
ATOM     29  C   UNL     1     -10.773  -9.597  18.517  0.00  0.00    +0.116 A 
ATOM     30  C   UNL     1      -9.951 -11.023  20.175  0.00  0.00    +0.116 A 
ATOM     31  C   UNL     1     -11.006 -10.270  19.699  0.00  0.00    +0.039 A 
ENDBRANCH  14   2
ENDBRANCH  10  14
BRANCH  12  17
ATOM     17  C   UNL     1      -4.473  -9.582  11.249  0.00  0.00    +0.105 C 
BRANCH  17  25
ATOM      1  O   UNL     1      -5.720  -9.138   9.198  0.00  0.00    -0.420 OA
ATOM      4  N   UNL     1      -4.276 -10.841   9.043  0.00  0.00    -0.112 NA
ATOM      5  N   UNL     1      -4.907 -10.703   7.821  0.00  0.00    -0.107 NA
ATOM     25  C   UNL     1      -4.781  -9.908   9.816  0.00  0.00    +0.218 A 
ATOM     27  C   UNL     1      -5.740  -9.698   7.958  0.00  0.00    +0.248 A 
BRANCH  27  28
ATOM     28  C   UNL     1      -6.651  -9.110   7.019  0.00  0.00    +0.039 A 
ATOM     32  C   UNL     1      -6.589  -9.463   5.671  0.00  0.00    +0.015 A 
ATOM     33  C   UNL     1      -7.600  -8.185   7.455  0.00  0.00    +0.015 A 
ATOM     34  C   UNL     1      -7.476  -8.891   4.759  0.00  0.00    +0.024 A 
ATOM     35  C   UNL     1      -8.486  -7.612   6.543  0.00  0.00    +0.024 A 
ATOM     36  C   UNL     1      -8.424  -7.966   5.194  0.00  0.00    +0.029 A 
BRANCH  36   8
ATOM      8  N   UNL     1      -9.320  -7.387   4.272  0.00  0.00    -0.336 N 
ATOM     37  C   UNL     1      -8.892  -7.096   2.917  0.00  0.00    +0.129 C 
ATOM     38  C   UNL     1     -10.682  -7.082   4.662  0.00  0.00    +0.129 C 
ENDBRANCH  36   8
ENDBRANCH  27  28
ENDBRANCH  17  25
ENDBRANCH  12  17
TORSDOF 7
ENDMDL
MODEL 8
REMARK VINA RESULT:      -6.9     25.469     29.034
REMARK  Name = 45783982
REMARK  12 active torsions:
REMARK  status: ('A' for Active; 'I' for Inactive)
REMARK    1  A    between atoms: N_2  and  C_14
REMARK    2  A    between atoms: N_8  and  C_36
REMARK    3  A    between atoms: N_8  and  C_37
REMARK    4  A    between atoms: N_8  and  C_38
REMARK    5  A    between atoms: C_9  and  C_13
REMARK    6  A    between atoms: C_10  and  C_14
REMARK    7  A    between atoms: C_12  and  C_17
REMARK    8  A    between atoms: C_13  and  C_18
REMARK    9  A    between atoms: C_13  and  C_19
REMARK   10  A    between atoms: C_16  and  C_22
REMARK   11  A    between atoms: C_17  and  C_25
REMARK   12  A    between atoms: C_27  and  C_28
REMARK                            x       y       z     vdW  Elec       q    Type
REMARK                         _______ _______ _______ _____ _____    ______ ____
ROOT
ATOM      9  C   UNL     1      10.959  10.140   7.074  0.00  0.00    +0.000 C 
ATOM     10  C   UNL     1      12.146   9.222   6.702  0.00  0.00    +0.029 C 
ATOM     11  C   UNL     1       9.630   9.495   6.657  0.00  0.00    +0.012 C 
ATOM     12  C   UNL     1       9.410   8.095   7.271  0.00  0.00    +0.024 C 
ATOM     15  C   UNL     1      11.890   7.776   7.040  0.00  0.00    -0.023 C 
ATOM     16  C   UNL     1      10.677   7.256   7.310  0.00  0.00    -0.073 C 
ATOM     22  C   UNL     1      10.546   5.816   7.723  0.00  0.00    +0.039 C 
ENDROOT
BRANCH   9  13
ATOM     13  C   UNL     1      10.964  10.482   8.570  0.00  0.00    -0.013 C 
ATOM     18  C   UNL     1       9.650  11.146   8.968  0.00  0.00    +0.007 C 
ATOM     19  C   UNL     1      12.149  11.382   8.906  0.00  0.00    +0.007 C 
ENDBRANCH   9  13
BRANCH  10  14
ATOM     14  C   UNL     1      12.505   9.335   5.216  0.00  0.00    +0.092 C 
BRANCH  14   2
ATOM      2  N   UNL     1      13.952   9.459   5.042  0.00  0.00    -0.299 NA
ATOM      3  N   UNL     1      16.688   8.701   5.346  0.00  0.00    -0.297 N 
ATOM      6  N   UNL     1      18.664   7.959   4.344  0.00  0.00    -0.223 NA
ATOM      7  N   UNL     1      18.636   8.705   6.635  0.00  0.00    -0.223 NA
ATOM     20  C   UNL     1      14.618   9.589   6.344  0.00  0.00    +0.103 C 
ATOM     21  C   UNL     1      14.485   8.297   4.322  0.00  0.00    +0.103 C 
ATOM     23  C   UNL     1      16.127   9.776   6.172  0.00  0.00    +0.123 C 
ATOM     24  C   UNL     1      15.991   8.441   4.083  0.00  0.00    +0.123 C 
ATOM     26  C   UNL     1      18.060   8.442   5.446  0.00  0.00    +0.218 A 
ATOM     29  C   UNL     1      19.985   7.721   4.476  0.00  0.00    +0.116 A 
ATOM     30  C   UNL     1      19.959   8.445   6.696  0.00  0.00    +0.116 A 
ATOM     31  C   UNL     1      20.692   7.947   5.639  0.00  0.00    +0.039 A 
ENDBRANCH  14   2
ENDBRANCH  10  14
BRANCH  12  17
ATOM     17  C   UNL     1       8.262   7.407   6.521  0.00  0.00    +0.105 C 
BRANCH  17  25
ATOM      1  O   UNL     1       9.422   6.536   4.559  0.00  0.00    -0.420 OA
ATOM      4  N   UNL     1       7.932   8.143   4.106  0.00  0.00    -0.112 NA
ATOM      5  N   UNL     1       8.507   7.746   2.913  0.00  0.00    -0.107 NA
ATOM     25  C   UNL     1       8.494   7.411   5.038  0.00  0.00    +0.218 A 
ATOM     27  C   UNL     1       9.370   6.808   3.226  0.00  0.00    +0.248 A 
BRANCH  27  28
ATOM     28  C   UNL     1      10.251   6.038   2.395  0.00  0.00    +0.039 A 
ATOM     32  C   UNL     1      11.237   5.240   2.975  0.00  0.00    +0.015 A 
ATOM     33  C   UNL     1      10.120   6.088   1.007  0.00  0.00    +0.015 A 
ATOM     34  C   UNL     1      12.092   4.490   2.167  0.00  0.00    +0.024 A 
ATOM     35  C   UNL     1      10.976   5.339   0.199  0.00  0.00    +0.024 A 
ATOM     36  C   UNL     1      11.962   4.540   0.779  0.00  0.00    +0.029 A 
BRANCH  36   8
ATOM      8  N   UNL     1      12.827   3.784  -0.037  0.00  0.00    -0.336 N 
ATOM     37  C   UNL     1      12.320   3.106  -1.214  0.00  0.00    +0.129 C 
ATOM     38  C   UNL     1      14.237   3.680   0.284  0.00  0.00    +0.129 C 
ENDBRANCH  36   8
ENDBRANCH  27  28
ENDBRANCH  17  25
ENDBRANCH  12  17
TORSDOF 7
ENDMDL
MODEL 9
REMARK VINA RESULT:      -6.8      2.436     10.942
REMARK  Name = 45783982
REMARK  12 active torsions:
REMARK  status: ('A' for Active; 'I' for Inactive)
REMARK    1  A    between atoms: N_2  and  C_14
REMARK    2  A    between atoms: N_8  and  C_36
REMARK    3  A    between atoms: N_8  and  C_37
REMARK    4  A    between atoms: N_8  and  C_38
REMARK    5  A    between atoms: C_9  and  C_13
REMARK    6  A    between atoms: C_10  and  C_14
REMARK    7  A    between atoms: C_12  and  C_17
REMARK    8  A    between atoms: C_13  and  C_18
REMARK    9  A    between atoms: C_13  and  C_19
REMARK   10  A    between atoms: C_16  and  C_22
REMARK   11  A    between atoms: C_17  and  C_25
REMARK   12  A    between atoms: C_27  and  C_28
REMARK                            x       y       z     vdW  Elec       q    Type
REMARK                         _______ _______ _______ _____ _____    ______ ____
ROOT
ATOM      9  C   UNL     1      -5.862 -10.318  10.172  0.00  0.00    +0.000 C 
ATOM     10  C   UNL     1      -5.060  -9.896   8.919  0.00  0.00    +0.029 C 
ATOM     11  C   UNL     1      -4.960 -11.074  11.157  0.00  0.00    +0.012 C 
ATOM     12  C   UNL     1      -3.717 -10.268  11.590  0.00  0.00    +0.024 C 
ATOM     15  C   UNL     1      -3.705  -9.332   9.260  0.00  0.00    -0.023 C 
ATOM     16  C   UNL     1      -3.094  -9.476  10.451  0.00  0.00    -0.073 C 
ATOM     22  C   UNL     1      -1.778  -8.797  10.714  0.00  0.00    +0.039 C 
ENDROOT
BRANCH   9  13
ATOM     13  C   UNL     1      -6.527  -9.109  10.843  0.00  0.00    -0.013 C 
ATOM     18  C   UNL     1      -6.727  -9.371  12.333  0.00  0.00    +0.007 C 
ATOM     19  C   UNL     1      -7.856  -8.788  10.167  0.00  0.00    +0.007 C 
ENDBRANCH   9  13
BRANCH  10  14
ATOM     14  C   UNL     1      -4.888 -11.061   7.938  0.00  0.00    +0.092 C 
BRANCH  14   2
ATOM      2  N   UNL     1      -5.267 -10.658   6.584  0.00  0.00    -0.299 NA
ATOM      3  N   UNL     1      -7.026 -10.328   4.359  0.00  0.00    -0.297 N 
ATOM      6  N   UNL     1      -8.184  -8.873   2.944  0.00  0.00    -0.223 NA
ATOM      7  N   UNL     1      -8.041 -11.229   2.458  0.00  0.00    -0.223 NA
ATOM     20  C   UNL     1      -5.701 -11.823   5.802  0.00  0.00    +0.103 C 
ATOM     21  C   UNL     1      -6.339  -9.657   6.627  0.00  0.00    +0.103 C 
ATOM     23  C   UNL     1      -6.046 -11.422   4.367  0.00  0.00    +0.123 C 
ATOM     24  C   UNL     1      -6.706  -9.184   5.217  0.00  0.00    +0.123 C 
ATOM     26  C   UNL     1      -7.786 -10.135   3.200  0.00  0.00    +0.218 A 
ATOM     29  C   UNL     1      -8.914  -8.723   1.820  0.00  0.00    +0.116 A 
ATOM     30  C   UNL     1      -8.775 -11.007   1.348  0.00  0.00    +0.116 A 
ATOM     31  C   UNL     1      -9.244  -9.763   0.976  0.00  0.00    +0.039 A 
ENDBRANCH  14   2
ENDBRANCH  10  14
BRANCH  12  17
ATOM     17  C   UNL     1      -2.725 -11.224  12.265  0.00  0.00    +0.105 C 
BRANCH  17  25
ATOM      1  O   UNL     1      -4.014 -11.322  14.335  0.00  0.00    -0.420 OA
ATOM      4  N   UNL     1      -1.843 -10.864  14.627  0.00  0.00    -0.112 NA
ATOM      5  N   UNL     1      -2.446 -10.889  15.871  0.00  0.00    -0.107 NA
ATOM     25  C   UNL     1      -2.795 -11.122  13.761  0.00  0.00    +0.218 A 
ATOM     27  C   UNL     1      -3.711 -11.160  15.652  0.00  0.00    +0.248 A 
BRANCH  27  28
ATOM     28  C   UNL     1      -4.804 -11.308  16.569  0.00  0.00    +0.039 A 
ATOM     32  C   UNL     1      -4.554 -11.558  17.918  0.00  0.00    +0.015 A 
ATOM     33  C   UNL     1      -6.118 -11.203  16.111  0.00  0.00    +0.015 A 
ATOM     34  C   UNL     1      -5.616 -11.702  18.810  0.00  0.00    +0.024 A 
ATOM     35  C   UNL     1      -7.181 -11.347  17.003  0.00  0.00    +0.024 A 
ATOM     36  C   UNL     1      -6.929 -11.596  18.353  0.00  0.00    +0.029 A 
BRANCH  36   8
ATOM      8  N   UNL     1      -8.004 -11.743  19.254  0.00  0.00    -0.336 N 
ATOM     37  C   UNL     1      -9.025 -10.719  19.352  0.00  0.00    +0.129 C 
ATOM     38  C   UNL     1      -8.106 -12.924  20.089  0.00  0.00    +0.129 C 
ENDBRANCH  36   8
ENDBRANCH  27  28
ENDBRANCH  17  25
ENDBRANCH  12  17
TORSDOF 7
ENDMDL
MODEL 10
REMARK VINA RESULT:      -6.8      4.678      9.303
REMARK  Name = 45783982
REMARK  12 active torsions:
REMARK  status: ('A' for Active; 'I' for Inactive)
REMARK    1  A    between atoms: N_2  and  C_14
REMARK    2  A    between atoms: N_8  and  C_36
REMARK    3  A    between atoms: N_8  and  C_37
REMARK    4  A    between atoms: N_8  and  C_38
REMARK    5  A    between atoms: C_9  and  C_13
REMARK    6  A    between atoms: C_10  and  C_14
REMARK    7  A    between atoms: C_12  and  C_17
REMARK    8  A    between atoms: C_13  and  C_18
REMARK    9  A    between atoms: C_13  and  C_19
REMARK   10  A    between atoms: C_16  and  C_22
REMARK   11  A    between atoms: C_17  and  C_25
REMARK   12  A    between atoms: C_27  and  C_28
REMARK                            x       y       z     vdW  Elec       q    Type
REMARK                         _______ _______ _______ _____ _____    ______ ____
ROOT
ATOM      9  C   UNL     1      -7.085  -8.632   7.399  0.00  0.00    +0.000 C 
ATOM     10  C   UNL     1      -6.608  -9.667   8.444  0.00  0.00    +0.029 C 
ATOM     11  C   UNL     1      -6.739  -9.103   5.979  0.00  0.00    +0.012 C 
ATOM     12  C   UNL     1      -7.326 -10.489   5.635  0.00  0.00    +0.024 C 
ATOM     15  C   UNL     1      -6.921 -11.085   8.041  0.00  0.00    -0.023 C 
ATOM     16  C   UNL     1      -7.256 -11.470   6.795  0.00  0.00    -0.073 C 
ATOM     22  C   UNL     1      -7.634 -12.900   6.521  0.00  0.00    +0.039 C 
ENDROOT
BRANCH   9  13
ATOM     13  C   UNL     1      -8.587  -8.347   7.539  0.00  0.00    -0.013 C 
ATOM     18  C   UNL     1      -9.012  -7.245   6.574  0.00  0.00    +0.007 C 
ATOM     19  C   UNL     1      -8.925  -7.969   8.977  0.00  0.00    +0.007 C 
ENDBRANCH   9  13
BRANCH  10  14
ATOM     14  C   UNL     1      -5.105  -9.542   8.719  0.00  0.00    +0.092 C 
BRANCH  14   2
ATOM      2  N   UNL     1      -4.757 -10.182   9.987  0.00  0.00    -0.299 NA
ATOM      3  N   UNL     1      -3.724 -10.308  12.647  0.00  0.00    -0.297 N 
ATOM      6  N   UNL     1      -4.143 -10.618  14.924  0.00  0.00    -0.223 NA
ATOM      7  N   UNL     1      -1.889 -10.536  14.074  0.00  0.00    -0.223 NA
ATOM     20  C   UNL     1      -3.311 -10.097  10.227  0.00  0.00    +0.103 C 
ATOM     21  C   UNL     1      -5.485  -9.556  11.097  0.00  0.00    +0.103 C 
ATOM     23  C   UNL     1      -2.927 -10.814  11.523  0.00  0.00    +0.123 C 
ATOM     24  C   UNL     1      -5.172 -10.254  12.423  0.00  0.00    +0.123 C 
ATOM     26  C   UNL     1      -3.229 -10.495  13.942  0.00  0.00    +0.218 A 
ATOM     29  C   UNL     1      -3.631 -10.797  16.159  0.00  0.00    +0.116 A 
ATOM     30  C   UNL     1      -1.446 -10.718  15.335  0.00  0.00    +0.116 A 
ATOM     31  C   UNL     1      -2.279 -10.856  16.428  0.00  0.00    +0.039 A 
ENDBRANCH  14   2
ENDBRANCH  10  14
BRANCH  12  17
ATOM     17  C   UNL     1      -6.635 -11.011   4.369  0.00  0.00    +0.105 C 
BRANCH  17  25
ATOM      1  O   UNL     1      -8.032  -9.428   3.144  0.00  0.00    -0.420 OA
ATOM      4  N   UNL     1      -7.556 -11.297   2.011  0.00  0.00    -0.112 NA
ATOM      5  N   UNL     1      -8.345 -10.499   1.205  0.00  0.00    -0.107 NA
ATOM     25  C   UNL     1      -7.398 -10.633   3.132  0.00  0.00    +0.218 A 
ATOM     27  C   UNL     1      -8.598  -9.419   1.907  0.00  0.00    +0.248 A 
BRANCH  27  28
ATOM     28  C   UNL     1      -9.366  -8.253   1.577  0.00  0.00    +0.039 A 
ATOM     32  C   UNL     1      -9.358  -7.149   2.430  0.00  0.00    +0.015 A 
ATOM     33  C   UNL     1     -10.119  -8.223   0.403  0.00  0.00    +0.015 A 
ATOM     34  C   UNL     1     -10.103  -6.014   2.108  0.00  0.00    +0.024 A 
ATOM     35  C   UNL     1     -10.866  -7.089   0.083  0.00  0.00    +0.024 A 
ATOM     36  C   UNL     1     -10.857  -5.984   0.935  0.00  0.00    +0.029 A 
BRANCH  36   8
ATOM      8  N   UNL     1     -11.612  -4.838   0.612  0.00  0.00    -0.336 N 
ATOM     37  C   UNL     1     -13.056  -4.850   0.739  0.00  0.00    +0.129 C 
ATOM     38  C   UNL     1     -10.954  -3.630   0.154  0.00  0.00    +0.129 C 
ENDBRANCH  36   8
ENDBRANCH  27  28
ENDBRANCH  17  25
ENDBRANCH  12  17
TORSDOF 7
ENDMDL
