MODEL 1
REMARK VINA RESULT:      -5.6      0.000      0.000
REMARK  Name = 11912229
REMARK  10 active torsions:
REMARK  status: ('A' for Active; 'I' for Inactive)
REMARK    1  A    between atoms: N_4  and  C_17
REMARK    2  A    between atoms: N_5  and  C_18
REMARK    3  A    between atoms: N_5  and  C_19
REMARK    4  A    between atoms: C_7  and  C_13
REMARK    5  A    between atoms: C_8  and  C_12
REMARK    6  A    between atoms: C_12  and  C_14
REMARK    7  A    between atoms: C_13  and  C_16
REMARK    8  A    between atoms: C_17  and  C_20
REMARK    9  A    between atoms: C_17  and  C_21
REMARK   10  A    between atoms: C_18  and  C_22
REMARK                            x       y       z     vdW  Elec       q    Type
REMARK                         _______ _______ _______ _____ _____    ______ ____
ROOT
ATOM      1  O   UNL     1      14.643   7.175  17.665  0.00  0.00    -0.253 OA
ATOM      3  N   UNL     1      15.647   6.681  19.695  0.00  0.00    -0.285 N 
ATOM      4  N   UNL     1      13.797   8.146  19.562  0.00  0.00    -0.297 N 
ATOM      7  C   UNL     1      18.270   6.458  20.902  0.00  0.00    +0.004 C 
ATOM      8  C   UNL     1      17.165   7.340  21.542  0.00  0.00    +0.010 C 
ATOM      9  C   UNL     1      18.054   6.282  19.387  0.00  0.00    +0.023 C 
ATOM     10  C   UNL     1      15.780   6.793  21.155  0.00  0.00    +0.113 C 
ATOM     11  C   UNL     1      16.638   5.800  19.077  0.00  0.00    +0.109 C 
ATOM     15  C   UNL     1      14.691   7.321  18.890  0.00  0.00    +0.302 C 
ATOM     23  H   UNL     1      13.867   8.302  20.555  0.00  0.00    +0.150 HD
ENDROOT
BRANCH   4  17
ATOM     17  C   UNL     1      12.760   8.880  18.870  0.00  0.00    +0.068 C 
ATOM     20  C   UNL     1      11.410   8.658  19.541  0.00  0.00    +0.027 C 
ATOM     21  C   UNL     1      13.110  10.362  18.811  0.00  0.00    +0.027 C 
ENDBRANCH   4  17
BRANCH   8  12
ATOM     12  C   UNL     1      17.271   8.828  21.188  0.00  0.00    +0.002 C 
ATOM     14  C   UNL     1      16.152   9.624  21.827  0.00  0.00    +0.004 C 
ENDBRANCH   8  12
BRANCH   7  13
ATOM     13  C   UNL     1      19.684   6.963  21.189  0.00  0.00    +0.100 C 
BRANCH  13  16
ATOM      2  O   UNL     1      20.024   6.300  23.467  0.00  0.00    -0.276 OA
ATOM      5  N   UNL     1      21.387   5.306  21.876  0.00  0.00    -0.291 N 
ATOM     16  C   UNL     1      20.368   6.170  22.289  0.00  0.00    +0.216 C 
ATOM     19  C   UNL     1      22.138   4.478  22.812  0.00  0.00    +0.133 C 
BRANCH   5  18
ATOM     18  C   UNL     1      21.778   5.169  20.474  0.00  0.00    +0.226 C 
BRANCH  18  22
ATOM      6  N   UNL     1      24.328   4.601  20.263  0.00  0.00    -0.195 NA
ATOM     22  C   UNL     1      23.200   4.852  20.358  0.00  0.00    +0.082 C 
ENDBRANCH  18  22
ENDBRANCH   5  18
ENDBRANCH  13  16
ENDBRANCH   7  13
TORSDOF 6
ENDMDL
MODEL 2
REMARK VINA RESULT:      -5.2     27.798     29.749
REMARK  Name = 11912229
REMARK  10 active torsions:
REMARK  status: ('A' for Active; 'I' for Inactive)
REMARK    1  A    between atoms: N_4  and  C_17
REMARK    2  A    between atoms: N_5  and  C_18
REMARK    3  A    between atoms: N_5  and  C_19
REMARK    4  A    between atoms: C_7  and  C_13
REMARK    5  A    between atoms: C_8  and  C_12
REMARK    6  A    between atoms: C_12  and  C_14
REMARK    7  A    between atoms: C_13  and  C_16
REMARK    8  A    between atoms: C_17  and  C_20
REMARK    9  A    between atoms: C_17  and  C_21
REMARK   10  A    between atoms: C_18  and  C_22
REMARK                            x       y       z     vdW  Elec       q    Type
REMARK                         _______ _______ _______ _____ _____    ______ ____
ROOT
ATOM      1  O   UNL     1      -1.673 -10.203  12.065  0.00  0.00    -0.253 OA
ATOM      3  N   UNL     1      -3.037 -11.403  13.505  0.00  0.00    -0.285 N 
ATOM      4  N   UNL     1      -3.796 -10.722  11.372  0.00  0.00    -0.297 N 
ATOM      7  C   UNL     1      -3.858 -11.465  16.281  0.00  0.00    +0.004 C 
ATOM      8  C   UNL     1      -4.905 -11.446  15.135  0.00  0.00    +0.010 C 
ATOM      9  C   UNL     1      -2.520 -10.842  15.842  0.00  0.00    +0.023 C 
ATOM     10  C   UNL     1      -4.295 -12.071  13.868  0.00  0.00    +0.113 C 
ATOM     11  C   UNL     1      -2.010 -11.467  14.545  0.00  0.00    +0.109 C 
ATOM     15  C   UNL     1      -2.759 -10.742  12.298  0.00  0.00    +0.302 C 
ATOM     23  H   UNL     1      -4.698 -11.121  11.582  0.00  0.00    +0.150 HD
ENDROOT
BRANCH   4  17
ATOM     17  C   UNL     1      -3.665 -10.073  10.086  0.00  0.00    +0.068 C 
ATOM     20  C   UNL     1      -4.329 -10.908   8.997  0.00  0.00    +0.027 C 
ATOM     21  C   UNL     1      -4.253  -8.669  10.140  0.00  0.00    +0.027 C 
ENDBRANCH   4  17
BRANCH   8  12
ATOM     12  C   UNL     1      -5.467 -10.053  14.827  0.00  0.00    +0.002 C 
ATOM     14  C   UNL     1      -6.509 -10.114  13.731  0.00  0.00    +0.004 C 
ENDBRANCH   8  12
BRANCH   7  13
ATOM     13  C   UNL     1      -4.362 -10.810  17.567  0.00  0.00    +0.100 C 
BRANCH  13  16
ATOM      2  O   UNL     1      -4.584 -12.823  18.850  0.00  0.00    -0.276 OA
ATOM      5  N   UNL     1      -6.432 -11.423  18.774  0.00  0.00    -0.291 N 
ATOM     16  C   UNL     1      -5.119 -11.784  18.453  0.00  0.00    +0.216 C 
ATOM     19  C   UNL     1      -7.288 -12.252  19.614  0.00  0.00    +0.133 C 
BRANCH   5  18
ATOM     18  C   UNL     1      -7.046 -10.188  18.291  0.00  0.00    +0.226 C 
BRANCH  18  22
ATOM      6  N   UNL     1      -8.972 -10.702  16.588  0.00  0.00    -0.195 NA
ATOM     22  C   UNL     1      -8.120 -10.476  17.342  0.00  0.00    +0.082 C 
ENDBRANCH  18  22
ENDBRANCH   5  18
ENDBRANCH  13  16
ENDBRANCH   7  13
TORSDOF 6
ENDMDL
MODEL 3
REMARK VINA RESULT:      -5.2     27.807     30.642
REMARK  Name = 11912229
REMARK  10 active torsions:
REMARK  status: ('A' for Active; 'I' for Inactive)
REMARK    1  A    between atoms: N_4  and  C_17
REMARK    2  A    between atoms: N_5  and  C_18
REMARK    3  A    between atoms: N_5  and  C_19
REMARK    4  A    between atoms: C_7  and  C_13
REMARK    5  A    between atoms: C_8  and  C_12
REMARK    6  A    between atoms: C_12  and  C_14
REMARK    7  A    between atoms: C_13  and  C_16
REMARK    8  A    between atoms: C_17  and  C_20
REMARK    9  A    between atoms: C_17  and  C_21
REMARK   10  A    between atoms: C_18  and  C_22
REMARK                            x       y       z     vdW  Elec       q    Type
REMARK                         _______ _______ _______ _____ _____    ______ ____
ROOT
ATOM      1  O   UNL     1     -11.697  12.717  18.950  0.00  0.00    -0.253 OA
ATOM      3  N   UNL     1     -11.068  10.600  19.656  0.00  0.00    -0.285 N 
ATOM      4  N   UNL     1     -10.070  11.615  17.769  0.00  0.00    -0.297 N 
ATOM      7  C   UNL     1     -12.227   8.093  20.524  0.00  0.00    +0.004 C 
ATOM      8  C   UNL     1     -11.179   8.139  19.380  0.00  0.00    +0.010 C 
ATOM      9  C   UNL     1     -12.982   9.428  20.660  0.00  0.00    +0.023 C 
ATOM     10  C   UNL     1     -10.271   9.368  19.560  0.00  0.00    +0.113 C 
ATOM     11  C   UNL     1     -12.017  10.608  20.769  0.00  0.00    +0.109 C 
ATOM     15  C   UNL     1     -10.991  11.714  18.804  0.00  0.00    +0.302 C 
ATOM     23  H   UNL     1      -9.529  10.777  17.622  0.00  0.00    +0.150 HD
ENDROOT
BRANCH   4  17
ATOM     17  C   UNL     1      -9.881  12.677  16.804  0.00  0.00    +0.068 C 
ATOM     20  C   UNL     1      -8.397  12.968  16.614  0.00  0.00    +0.027 C 
ATOM     21  C   UNL     1     -10.545  12.315  15.482  0.00  0.00    +0.027 C 
ENDBRANCH   4  17
BRANCH   8  12
ATOM     12  C   UNL     1     -11.790   8.125  17.974  0.00  0.00    +0.002 C 
ATOM     14  C   UNL     1     -10.713   8.180  16.910  0.00  0.00    +0.004 C 
ENDBRANCH   8  12
BRANCH   7  13
ATOM     13  C   UNL     1     -13.209   6.930  20.393  0.00  0.00    +0.100 C 
BRANCH  13  16
ATOM      2  O   UNL     1     -12.102   5.494  21.961  0.00  0.00    -0.276 OA
ATOM      5  N   UNL     1     -14.390   5.765  22.229  0.00  0.00    -0.291 N 
ATOM     16  C   UNL     1     -13.166   5.999  21.593  0.00  0.00    +0.216 C 
ATOM     19  C   UNL     1     -14.513   4.897  23.393  0.00  0.00    +0.133 C 
BRANCH   5  18
ATOM     18  C   UNL     1     -15.638   6.374  21.774  0.00  0.00    +0.226 C 
BRANCH  18  22
ATOM      6  N   UNL     1     -17.091   4.647  20.440  0.00  0.00    -0.195 NA
ATOM     22  C   UNL     1     -16.447   5.410  21.031  0.00  0.00    +0.082 C 
ENDBRANCH  18  22
ENDBRANCH   5  18
ENDBRANCH  13  16
ENDBRANCH   7  13
TORSDOF 6
ENDMDL
MODEL 4
REMARK VINA RESULT:      -5.1     17.527     20.306
REMARK  Name = 11912229
REMARK  10 active torsions:
REMARK  status: ('A' for Active; 'I' for Inactive)
REMARK    1  A    between atoms: N_4  and  C_17
REMARK    2  A    between atoms: N_5  and  C_18
REMARK    3  A    between atoms: N_5  and  C_19
REMARK    4  A    between atoms: C_7  and  C_13
REMARK    5  A    between atoms: C_8  and  C_12
REMARK    6  A    between atoms: C_12  and  C_14
REMARK    7  A    between atoms: C_13  and  C_16
REMARK    8  A    between atoms: C_17  and  C_20
REMARK    9  A    between atoms: C_17  and  C_21
REMARK   10  A    between atoms: C_18  and  C_22
REMARK                            x       y       z     vdW  Elec       q    Type
REMARK                         _______ _______ _______ _____ _____    ______ ____
ROOT
ATOM      1  O   UNL     1       9.207   5.149  -1.379  0.00  0.00    -0.253 OA
ATOM      3  N   UNL     1      10.862   5.884   0.068  0.00  0.00    -0.285 N 
ATOM      4  N   UNL     1      11.352   4.416  -1.719  0.00  0.00    -0.297 N 
ATOM      7  C   UNL     1      11.365   6.248   2.895  0.00  0.00    +0.004 C 
ATOM      8  C   UNL     1      12.352   5.452   2.001  0.00  0.00    +0.010 C 
ATOM      9  C   UNL     1       9.938   6.240   2.318  0.00  0.00    +0.023 C 
ATOM     10  C   UNL     1      12.250   5.949   0.549  0.00  0.00    +0.113 C 
ATOM     11  C   UNL     1       9.923   6.683   0.856  0.00  0.00    +0.109 C 
ATOM     15  C   UNL     1      10.393   5.152  -1.035  0.00  0.00    +0.302 C 
ATOM     23  H   UNL     1      12.311   4.382  -1.409  0.00  0.00    +0.150 HD
ENDROOT
BRANCH   4  17
ATOM     17  C   UNL     1      11.022   3.605  -2.870  0.00  0.00    +0.068 C 
ATOM     20  C   UNL     1      11.945   3.935  -4.038  0.00  0.00    +0.027 C 
ATOM     21  C   UNL     1      11.092   2.126  -2.513  0.00  0.00    +0.027 C 
ENDBRANCH   4  17
BRANCH   8  12
ATOM     12  C   UNL     1      12.161   3.932   2.061  0.00  0.00    +0.002 C 
ATOM     14  C   UNL     1      13.383   3.206   1.540  0.00  0.00    +0.004 C 
ENDBRANCH   8  12
BRANCH   7  13
ATOM     13  C   UNL     1      11.360   5.780   4.350  0.00  0.00    +0.100 C 
BRANCH  13  16
ATOM      2  O   UNL     1      11.256   8.038   5.151  0.00  0.00    -0.276 OA
ATOM      5  N   UNL     1      10.054   6.451   6.341  0.00  0.00    -0.291 N 
ATOM     16  C   UNL     1      10.896   6.867   5.305  0.00  0.00    +0.216 C 
ATOM     19  C   UNL     1       9.525   7.374   7.338  0.00  0.00    +0.133 C 
BRANCH   5  18
ATOM     18  C   UNL     1       9.641   5.058   6.504  0.00  0.00    +0.226 C 
BRANCH  18  22
ATOM      6  N   UNL     1      10.030   4.250   8.968  0.00  0.00    -0.195 NA
ATOM     22  C   UNL     1       9.856   4.608   7.878  0.00  0.00    +0.082 C 
ENDBRANCH  18  22
ENDBRANCH   5  18
ENDBRANCH  13  16
ENDBRANCH   7  13
TORSDOF 6
ENDMDL
MODEL 5
REMARK VINA RESULT:      -5.0     27.343     30.357
REMARK  Name = 11912229
REMARK  10 active torsions:
REMARK  status: ('A' for Active; 'I' for Inactive)
REMARK    1  A    between atoms: N_4  and  C_17
REMARK    2  A    between atoms: N_5  and  C_18
REMARK    3  A    between atoms: N_5  and  C_19
REMARK    4  A    between atoms: C_7  and  C_13
REMARK    5  A    between atoms: C_8  and  C_12
REMARK    6  A    between atoms: C_12  and  C_14
REMARK    7  A    between atoms: C_13  and  C_16
REMARK    8  A    between atoms: C_17  and  C_20
REMARK    9  A    between atoms: C_17  and  C_21
REMARK   10  A    between atoms: C_18  and  C_22
REMARK                            x       y       z     vdW  Elec       q    Type
REMARK                         _______ _______ _______ _____ _____    ______ ____
ROOT
ATOM      1  O   UNL     1      -8.716 -11.181  20.032  0.00  0.00    -0.253 OA
ATOM      3  N   UNL     1      -7.303 -10.264  18.439  0.00  0.00    -0.285 N 
ATOM      4  N   UNL     1      -9.644 -10.335  18.114  0.00  0.00    -0.297 N 
ATOM      7  C   UNL     1      -4.815 -10.818  17.067  0.00  0.00    +0.004 C 
ATOM      8  C   UNL     1      -6.105 -10.469  16.278  0.00  0.00    +0.010 C 
ATOM      9  C   UNL     1      -5.135 -11.423  18.446  0.00  0.00    +0.023 C 
ATOM     10  C   UNL     1      -7.028  -9.604  17.154  0.00  0.00    +0.113 C 
ATOM     11  C   UNL     1      -6.106 -10.542  19.231  0.00  0.00    +0.109 C 
ATOM     15  C   UNL     1      -8.565 -10.628  18.938  0.00  0.00    +0.302 C 
ATOM     23  H   UNL     1      -9.515  -9.927  17.201  0.00  0.00    +0.150 HD
ENDROOT
BRANCH   4  17
ATOM     17  C   UNL     1     -11.005 -10.656  18.486  0.00  0.00    +0.068 C 
ATOM     20  C   UNL     1     -11.919  -9.458  18.255  0.00  0.00    +0.027 C 
ATOM     21  C   UNL     1     -11.489 -11.877  17.714  0.00  0.00    +0.027 C 
ENDBRANCH   4  17
BRANCH   8  12
ATOM     12  C   UNL     1      -6.862 -11.692  15.748  0.00  0.00    +0.002 C 
ATOM     14  C   UNL     1      -8.066 -11.277  14.928  0.00  0.00    +0.004 C 
ENDBRANCH   8  12
BRANCH   7  13
ATOM     13  C   UNL     1      -3.862 -11.725  16.290  0.00  0.00    +0.100 C 
BRANCH  13  16
ATOM      2  O   UNL     1      -1.855 -10.414  16.246  0.00  0.00    -0.276 OA
ATOM      5  N   UNL     1      -2.845 -10.875  14.200  0.00  0.00    -0.291 N 
ATOM     16  C   UNL     1      -2.759 -10.944  15.595  0.00  0.00    +0.216 C 
ATOM     19  C   UNL     1      -1.864 -10.163  13.390  0.00  0.00    +0.133 C 
BRANCH   5  18
ATOM     18  C   UNL     1      -3.926 -11.511  13.450  0.00  0.00    +0.226 C 
BRANCH  18  22
ATOM      6  N   UNL     1      -5.419  -9.714  12.260  0.00  0.00    -0.195 NA
ATOM     22  C   UNL     1      -4.758 -10.510  12.785  0.00  0.00    +0.082 C 
ENDBRANCH  18  22
ENDBRANCH   5  18
ENDBRANCH  13  16
ENDBRANCH   7  13
TORSDOF 6
ENDMDL
MODEL 6
REMARK VINA RESULT:      -4.9     26.896     29.929
REMARK  Name = 11912229
REMARK  10 active torsions:
REMARK  status: ('A' for Active; 'I' for Inactive)
REMARK    1  A    between atoms: N_4  and  C_17
REMARK    2  A    between atoms: N_5  and  C_18
REMARK    3  A    between atoms: N_5  and  C_19
REMARK    4  A    between atoms: C_7  and  C_13
REMARK    5  A    between atoms: C_8  and  C_12
REMARK    6  A    between atoms: C_12  and  C_14
REMARK    7  A    between atoms: C_13  and  C_16
REMARK    8  A    between atoms: C_17  and  C_20
REMARK    9  A    between atoms: C_17  and  C_21
REMARK   10  A    between atoms: C_18  and  C_22
REMARK                            x       y       z     vdW  Elec       q    Type
REMARK                         _______ _______ _______ _____ _____    ______ ____
ROOT
ATOM      1  O   UNL     1      -7.816  -8.174   8.999  0.00  0.00    -0.253 OA
ATOM      3  N   UNL     1      -5.578  -8.611   9.416  0.00  0.00    -0.285 N 
ATOM      4  N   UNL     1      -6.546  -9.053   7.305  0.00  0.00    -0.297 N 
ATOM      7  C   UNL     1      -3.867  -9.820  11.414  0.00  0.00    +0.004 C 
ATOM      8  C   UNL     1      -3.781 -10.242   9.923  0.00  0.00    +0.010 C 
ATOM      9  C   UNL     1      -5.253  -9.250  11.768  0.00  0.00    +0.023 C 
ATOM     10  C   UNL     1      -4.238  -9.076   9.029  0.00  0.00    +0.113 C 
ATOM     11  C   UNL     1      -5.667  -8.144  10.800  0.00  0.00    +0.109 C 
ATOM     15  C   UNL     1      -6.721  -8.582   8.600  0.00  0.00    +0.302 C 
ATOM     23  H   UNL     1      -5.664  -9.430   6.996  0.00  0.00    +0.150 HD
ENDROOT
BRANCH   4  17
ATOM     17  C   UNL     1      -7.631  -9.094   6.349  0.00  0.00    +0.068 C 
ATOM     20  C   UNL     1      -7.243  -8.363   5.069  0.00  0.00    +0.027 C 
ATOM     21  C   UNL     1      -8.028 -10.536   6.062  0.00  0.00    +0.027 C 
ENDBRANCH   4  17
BRANCH   8  12
ATOM     12  C   UNL     1      -4.570 -11.514   9.590  0.00  0.00    +0.002 C 
ATOM     14  C   UNL     1      -4.441 -11.868   8.123  0.00  0.00    +0.004 C 
ENDBRANCH   8  12
BRANCH   7  13
ATOM     13  C   UNL     1      -3.483 -10.940  12.380  0.00  0.00    +0.100 C 
BRANCH  13  16
ATOM      2  O   UNL     1      -1.328  -9.976  12.801  0.00  0.00    -0.276 OA
ATOM      5  N   UNL     1      -2.425 -10.915  14.616  0.00  0.00    -0.291 N 
ATOM     16  C   UNL     1      -2.310 -10.561  13.268  0.00  0.00    +0.216 C 
ATOM     19  C   UNL     1      -1.384 -10.621  15.594  0.00  0.00    +0.133 C 
BRANCH   5  18
ATOM     18  C   UNL     1      -3.597 -11.609  15.147  0.00  0.00    +0.226 C 
BRANCH  18  22
ATOM      6  N   UNL     1      -4.755 -10.189  17.022  0.00  0.00    -0.195 NA
ATOM     22  C   UNL     1      -4.241 -10.817  16.193  0.00  0.00    +0.082 C 
ENDBRANCH  18  22
ENDBRANCH   5  18
ENDBRANCH  13  16
ENDBRANCH   7  13
TORSDOF 6
ENDMDL
MODEL 7
REMARK VINA RESULT:      -4.8     28.069     31.634
REMARK  Name = 11912229
REMARK  10 active torsions:
REMARK  status: ('A' for Active; 'I' for Inactive)
REMARK    1  A    between atoms: N_4  and  C_17
REMARK    2  A    between atoms: N_5  and  C_18
REMARK    3  A    between atoms: N_5  and  C_19
REMARK    4  A    between atoms: C_7  and  C_13
REMARK    5  A    between atoms: C_8  and  C_12
REMARK    6  A    between atoms: C_12  and  C_14
REMARK    7  A    between atoms: C_13  and  C_16
REMARK    8  A    between atoms: C_17  and  C_20
REMARK    9  A    between atoms: C_17  and  C_21
REMARK   10  A    between atoms: C_18  and  C_22
REMARK                            x       y       z     vdW  Elec       q    Type
REMARK                         _______ _______ _______ _____ _____    ______ ____
ROOT
ATOM      1  O   UNL     1      -5.089 -10.622  14.478  0.00  0.00    -0.253 OA
ATOM      3  N   UNL     1      -5.660 -10.260  16.696  0.00  0.00    -0.285 N 
ATOM      4  N   UNL     1      -3.401 -10.404  16.014  0.00  0.00    -0.297 N 
ATOM      7  C   UNL     1      -7.473 -11.239  18.730  0.00  0.00    +0.004 C 
ATOM      8  C   UNL     1      -5.947 -11.139  18.996  0.00  0.00    +0.010 C 
ATOM      9  C   UNL     1      -7.782 -11.381  17.228  0.00  0.00    +0.023 C 
ATOM     10  C   UNL     1      -5.340 -10.035  18.113  0.00  0.00    +0.113 C 
ATOM     11  C   UNL     1      -7.095 -10.291  16.409  0.00  0.00    +0.109 C 
ATOM     15  C   UNL     1      -4.741 -10.438  15.649  0.00  0.00    +0.302 C 
ATOM     23  H   UNL     1      -3.119 -10.302  16.977  0.00  0.00    +0.150 HD
ENDROOT
BRANCH   4  17
ATOM     17  C   UNL     1      -2.337 -10.580  15.051  0.00  0.00    +0.068 C 
ATOM     20  C   UNL     1      -1.047  -9.945  15.557  0.00  0.00    +0.027 C 
ATOM     21  C   UNL     1      -2.140 -12.059  14.744  0.00  0.00    +0.027 C 
ENDBRANCH   4  17
BRANCH   8  12
ATOM     12  C   UNL     1      -5.192 -12.459  18.798  0.00  0.00    +0.002 C 
ATOM     14  C   UNL     1      -3.766 -12.353  19.298  0.00  0.00    +0.004 C 
ENDBRANCH   8  12
BRANCH   7  13
ATOM     13  C   UNL     1      -8.151 -12.352  19.527  0.00  0.00    +0.100 C 
BRANCH  13  16
ATOM      2  O   UNL     1      -9.756 -10.747  20.296  0.00  0.00    -0.276 OA
ATOM      5  N   UNL     1     -10.428 -12.966  20.274  0.00  0.00    -0.291 N 
ATOM     16  C   UNL     1      -9.508 -11.934  20.065  0.00  0.00    +0.216 C 
ATOM     19  C   UNL     1     -11.772 -12.726  20.785  0.00  0.00    +0.133 C 
BRANCH   5  18
ATOM     18  C   UNL     1     -10.111 -14.366  19.994  0.00  0.00    +0.226 C 
BRANCH  18  22
ATOM      6  N   UNL     1     -11.832 -15.389  18.302  0.00  0.00    -0.195 NA
ATOM     22  C   UNL     1     -11.070 -14.938  19.050  0.00  0.00    +0.082 C 
ENDBRANCH  18  22
ENDBRANCH   5  18
ENDBRANCH  13  16
ENDBRANCH   7  13
TORSDOF 6
ENDMDL
MODEL 8
REMARK VINA RESULT:      -4.8      3.025      7.818
REMARK  Name = 11912229
REMARK  10 active torsions:
REMARK  status: ('A' for Active; 'I' for Inactive)
REMARK    1  A    between atoms: N_4  and  C_17
REMARK    2  A    between atoms: N_5  and  C_18
REMARK    3  A    between atoms: N_5  and  C_19
REMARK    4  A    between atoms: C_7  and  C_13
REMARK    5  A    between atoms: C_8  and  C_12
REMARK    6  A    between atoms: C_12  and  C_14
REMARK    7  A    between atoms: C_13  and  C_16
REMARK    8  A    between atoms: C_17  and  C_20
REMARK    9  A    between atoms: C_17  and  C_21
REMARK   10  A    between atoms: C_18  and  C_22
REMARK                            x       y       z     vdW  Elec       q    Type
REMARK                         _______ _______ _______ _____ _____    ______ ____
ROOT
ATOM      1  O   UNL     1      19.797   7.716  22.874  0.00  0.00    -0.253 OA
ATOM      3  N   UNL     1      18.157   8.224  21.315  0.00  0.00    -0.285 N 
ATOM      4  N   UNL     1      19.103   9.893  22.696  0.00  0.00    -0.297 N 
ATOM      7  C   UNL     1      15.598   7.263  20.363  0.00  0.00    +0.004 C 
ATOM      8  C   UNL     1      15.787   8.739  20.803  0.00  0.00    +0.010 C 
ATOM      9  C   UNL     1      16.615   6.329  21.045  0.00  0.00    +0.023 C 
ATOM     10  C   UNL     1      17.257   9.150  20.613  0.00  0.00    +0.113 C 
ATOM     11  C   UNL     1      18.045   6.835  20.869  0.00  0.00    +0.109 C 
ATOM     15  C   UNL     1      19.071   8.554  22.330  0.00  0.00    +0.302 C 
ATOM     23  H   UNL     1      18.476  10.568  22.285  0.00  0.00    +0.150 HD
ENDROOT
BRANCH   4  17
ATOM     17  C   UNL     1      19.985  10.386  23.732  0.00  0.00    +0.068 C 
ATOM     20  C   UNL     1      21.355  10.719  23.152  0.00  0.00    +0.027 C 
ATOM     21  C   UNL     1      19.368  11.597  24.419  0.00  0.00    +0.027 C 
ENDBRANCH   4  17
BRANCH   8  12
ATOM     12  C   UNL     1      15.333   9.024  22.239  0.00  0.00    +0.002 C 
ATOM     14  C   UNL     1      14.584  10.338  22.324  0.00  0.00    +0.004 C 
ENDBRANCH   8  12
BRANCH   7  13
ATOM     13  C   UNL     1      14.173   6.751  20.571  0.00  0.00    +0.100 C 
BRANCH  13  16
ATOM      2  O   UNL     1      13.407   7.704  18.509  0.00  0.00    -0.276 OA
ATOM      5  N   UNL     1      11.976   7.862  20.328  0.00  0.00    -0.291 N 
ATOM     16  C   UNL     1      13.165   7.478  19.698  0.00  0.00    +0.216 C 
ATOM     19  C   UNL     1      10.911   8.567  19.625  0.00  0.00    +0.133 C 
BRANCH   5  18
ATOM     18  C   UNL     1      11.712   7.584  21.738  0.00  0.00    +0.226 C 
BRANCH  18  22
ATOM      6  N   UNL     1      10.830   9.728  22.963  0.00  0.00    -0.195 NA
ATOM     22  C   UNL     1      11.222   8.780  22.421  0.00  0.00    +0.082 C 
ENDBRANCH  18  22
ENDBRANCH   5  18
ENDBRANCH  13  16
ENDBRANCH   7  13
TORSDOF 6
ENDMDL
MODEL 9
REMARK VINA RESULT:      -4.6     28.364     31.282
REMARK  Name = 11912229
REMARK  10 active torsions:
REMARK  status: ('A' for Active; 'I' for Inactive)
REMARK    1  A    between atoms: N_4  and  C_17
REMARK    2  A    between atoms: N_5  and  C_18
REMARK    3  A    between atoms: N_5  and  C_19
REMARK    4  A    between atoms: C_7  and  C_13
REMARK    5  A    between atoms: C_8  and  C_12
REMARK    6  A    between atoms: C_12  and  C_14
REMARK    7  A    between atoms: C_13  and  C_16
REMARK    8  A    between atoms: C_17  and  C_20
REMARK    9  A    between atoms: C_17  and  C_21
REMARK   10  A    between atoms: C_18  and  C_22
REMARK                            x       y       z     vdW  Elec       q    Type
REMARK                         _______ _______ _______ _____ _____    ______ ____
ROOT
ATOM      1  O   UNL     1     -14.585   4.725  21.665  0.00  0.00    -0.253 OA
ATOM      3  N   UNL     1     -13.726   6.813  21.138  0.00  0.00    -0.285 N 
ATOM      4  N   UNL     1     -16.055   6.412  21.169  0.00  0.00    -0.297 N 
ATOM      7  C   UNL     1     -11.667   8.043  19.517  0.00  0.00    +0.004 C 
ATOM      8  C   UNL     1     -13.144   8.511  19.428  0.00  0.00    +0.010 C 
ATOM      9  C   UNL     1     -11.557   6.586  20.002  0.00  0.00    +0.023 C 
ATOM     10  C   UNL     1     -13.856   8.228  20.762  0.00  0.00    +0.113 C 
ATOM     11  C   UNL     1     -12.341   6.366  21.294  0.00  0.00    +0.109 C 
ATOM     15  C   UNL     1     -14.775   5.903  21.349  0.00  0.00    +0.302 C 
ATOM     23  H   UNL     1     -16.208   7.361  20.865  0.00  0.00    +0.150 HD
ENDROOT
BRANCH   4  17
ATOM     17  C   UNL     1     -17.238   5.597  21.341  0.00  0.00    +0.068 C 
ATOM     20  C   UNL     1     -18.349   6.401  22.005  0.00  0.00    +0.027 C 
ATOM     21  C   UNL     1     -17.691   5.032  20.001  0.00  0.00    +0.027 C 
ENDBRANCH   4  17
BRANCH   8  12
ATOM     12  C   UNL     1     -13.925   7.893  18.263  0.00  0.00    +0.002 C 
ATOM     14  C   UNL     1     -15.358   8.380  18.246  0.00  0.00    +0.004 C 
ENDBRANCH   8  12
BRANCH   7  13
ATOM     13  C   UNL     1     -10.895   8.236  18.212  0.00  0.00    +0.100 C 
BRANCH  13  16
ATOM      2  O   UNL     1     -10.083  10.329  19.053  0.00  0.00    -0.276 OA
ATOM      5  N   UNL     1     -10.209  10.109  16.748  0.00  0.00    -0.291 N 
ATOM     16  C   UNL     1     -10.360   9.650  18.060  0.00  0.00    +0.216 C 
ATOM     19  C   UNL     1      -9.707  11.442  16.438  0.00  0.00    +0.133 C 
BRANCH   5  18
ATOM     18  C   UNL     1     -10.545   9.286  15.587  0.00  0.00    +0.226 C 
BRANCH  18  22
ATOM      6  N   UNL     1     -12.630  10.258  14.329  0.00  0.00    -0.195 NA
ATOM     22  C   UNL     1     -11.707   9.827  14.884  0.00  0.00    +0.082 C 
ENDBRANCH  18  22
ENDBRANCH   5  18
ENDBRANCH  13  16
ENDBRANCH   7  13
TORSDOF 6
ENDMDL
MODEL 10
REMARK VINA RESULT:      -4.6     15.547     18.269
REMARK  Name = 11912229
REMARK  10 active torsions:
REMARK  status: ('A' for Active; 'I' for Inactive)
REMARK    1  A    between atoms: N_4  and  C_17
REMARK    2  A    between atoms: N_5  and  C_18
REMARK    3  A    between atoms: N_5  and  C_19
REMARK    4  A    between atoms: C_7  and  C_13
REMARK    5  A    between atoms: C_8  and  C_12
REMARK    6  A    between atoms: C_12  and  C_14
REMARK    7  A    between atoms: C_13  and  C_16
REMARK    8  A    between atoms: C_17  and  C_20
REMARK    9  A    between atoms: C_17  and  C_21
REMARK   10  A    between atoms: C_18  and  C_22
REMARK                            x       y       z     vdW  Elec       q    Type
REMARK                         _______ _______ _______ _____ _____    ______ ____
ROOT
ATOM      1  O   UNL     1       9.419  10.282   4.782  0.00  0.00    -0.253 OA
ATOM      3  N   UNL     1       9.111   8.000   5.054  0.00  0.00    -0.285 N 
ATOM      4  N   UNL     1       9.605   9.403   6.892  0.00  0.00    -0.297 N 
ATOM      7  C   UNL     1       9.888   5.478   3.866  0.00  0.00    +0.004 C 
ATOM      8  C   UNL     1      10.076   5.741   5.384  0.00  0.00    +0.010 C 
ATOM      9  C   UNL     1       9.873   6.787   3.057  0.00  0.00    +0.023 C 
ATOM     10  C   UNL     1       9.040   6.773   5.861  0.00  0.00    +0.113 C 
ATOM     11  C   UNL     1       8.869   7.787   3.627  0.00  0.00    +0.109 C 
ATOM     15  C   UNL     1       9.378   9.296   5.525  0.00  0.00    +0.302 C 
ATOM     23  H   UNL     1       9.617   8.592   7.490  0.00  0.00    +0.150 HD
ENDROOT
BRANCH   4  17
ATOM     17  C   UNL     1       9.901  10.670   7.525  0.00  0.00    +0.068 C 
ATOM     20  C   UNL     1       9.318  10.713   8.933  0.00  0.00    +0.027 C 
ATOM     21  C   UNL     1      11.404  10.913   7.543  0.00  0.00    +0.027 C 
ENDBRANCH   4  17
BRANCH   8  12
ATOM     12  C   UNL     1      11.492   6.186   5.768  0.00  0.00    +0.002 C 
ATOM     14  C   UNL     1      11.595   6.458   7.255  0.00  0.00    +0.004 C 
ENDBRANCH   8  12
BRANCH   7  13
ATOM     13  C   UNL     1      10.915   4.502   3.293  0.00  0.00    +0.100 C 
BRANCH  13  16
ATOM      2  O   UNL     1       9.728   3.929   1.290  0.00  0.00    -0.276 OA
ATOM      5  N   UNL     1      11.908   4.678   1.034  0.00  0.00    -0.291 N 
ATOM     16  C   UNL     1      10.780   4.338   1.788  0.00  0.00    +0.216 C 
ATOM     19  C   UNL     1      11.936   4.576  -0.420  0.00  0.00    +0.133 C 
BRANCH   5  18
ATOM     18  C   UNL     1      13.144   5.160   1.646  0.00  0.00    +0.226 C 
BRANCH  18  22
ATOM      6  N   UNL     1      14.968   3.277   1.675  0.00  0.00    -0.195 NA
ATOM     22  C   UNL     1      14.161   4.110   1.664  0.00  0.00    +0.082 C 
ENDBRANCH  18  22
ENDBRANCH   5  18
ENDBRANCH  13  16
ENDBRANCH   7  13
TORSDOF 6
ENDMDL
