REMARK  Name = 9424630
REMARK  4 active torsions:
REMARK  status: ('A' for Active; 'I' for Inactive)
REMARK    1  A    between atoms: N_4  and  C_14
REMARK    2  A    between atoms: N_7  and  C_21
REMARK    3  A    between atoms: N_8  and  C_28
REMARK    4  A    between atoms: C_25  and  C_26
REMARK                            x       y       z     vdW  Elec       q    Type
REMARK                         _______ _______ _______ _____ _____    ______ ____
ROOT
ATOM      1  O   UNL     1       1.667   3.885  -2.639  0.00  0.00    -0.268 OA
ATOM      4  N   UNL     1       2.331   0.557   1.058  0.00  0.00    -0.298 NA
ATOM      5  N   UNL     1       1.050   2.991  -0.564  0.00  0.00    -0.310 N 
ATOM      9  C   UNL     1       2.628   3.014   1.456  0.00  0.00    +0.024 C 
ATOM     10  C   UNL     1       0.401   2.020   1.663  0.00  0.00    +0.052 C 
ATOM     11  C   UNL     1       1.343   3.060   2.266  0.00  0.00    +0.017 C 
ATOM     12  C   UNL     1       3.250   1.604   1.521  0.00  0.00    +0.090 C 
ATOM     13  C   UNL     1       1.046   0.619   1.769  0.00  0.00    +0.094 C 
ATOM     15  C   UNL     1       2.313   3.458   0.025  0.00  0.00    +0.130 C 
ATOM     16  C   UNL     1       0.068   2.344   0.208  0.00  0.00    +0.047 A 
ATOM     21  C   UNL     1      -1.114   2.008  -0.357  0.00  0.00    +0.055 A 
ATOM     22  C   UNL     1       0.851   3.307  -1.920  0.00  0.00    +0.252 A 
ATOM     23  C   UNL     1      -1.369   2.312  -1.744  0.00  0.00    +0.030 A 
ATOM     24  C   UNL     1      -0.456   2.917  -2.506  0.00  0.00    +0.072 A 
ENDROOT
BRANCH   4  14
ATOM      2  O   UNL     1       5.491  -3.993  -1.582  0.00  0.00    -0.276 OA
ATOM      6  N   UNL     1       3.972  -3.186  -0.019  0.00  0.00    -0.302 N 
ATOM     14  C   UNL     1       2.937  -0.766   1.187  0.00  0.00    +0.060 C 
ATOM     17  C   UNL     1       4.298  -0.794   0.479  0.00  0.00    +0.038 C 
ATOM     18  C   UNL     1       2.004  -1.832   0.596  0.00  0.00    +0.038 C 
ATOM     19  C   UNL     1       4.905  -2.195   0.520  0.00  0.00    +0.109 C 
ATOM     20  C   UNL     1       2.657  -3.213   0.634  0.00  0.00    +0.109 C 
ATOM     25  C   UNL     1       4.379  -4.035  -1.048  0.00  0.00    +0.212 C 
ATOM     26  C   UNL     1       3.376  -5.058  -1.517  0.00  0.00    +0.109 C 
ENDBRANCH   4  14
BRANCH  21   7
ATOM      3  O   UNL     1      -2.985   0.200  -1.505  0.00  0.00    -0.252 OA
ATOM      7  N   UNL     1      -2.115   1.353   0.308  0.00  0.00    -0.268 N 
ATOM      8  N   UNL     1      -3.910  -0.031   0.640  0.00  0.00    -0.269 N 
ATOM     27  C   UNL     1      -3.010   0.472  -0.307  0.00  0.00    +0.308 C 
ATOM     34  H   UNL     1      -2.075   1.313   1.321  0.00  0.00    +0.156 HD
ATOM     35  H   UNL     1      -3.798   0.299   1.595  0.00  0.00    +0.156 HD
BRANCH   8  28
ATOM     28  C   UNL     1      -4.969  -0.945   0.432  0.00  0.00    +0.035 A 
ATOM     29  C   UNL     1      -5.757  -1.326   1.506  0.00  0.00    +0.023 A 
ATOM     30  C   UNL     1      -5.197  -1.441  -0.842  0.00  0.00    +0.023 A 
ATOM     31  C   UNL     1      -6.801  -2.227   1.301  0.00  0.00    +0.002 A 
ATOM     32  C   UNL     1      -6.241  -2.343  -1.046  0.00  0.00    +0.002 A 
ATOM     33  C   UNL     1      -7.043  -2.736   0.025  0.00  0.00    +0.000 A 
ENDBRANCH   8  28
ENDBRANCH  21   7
TORSDOF 3
