MODEL 1
REMARK VINA RESULT:      -6.4      0.000      0.000
REMARK  Name = 75536969
REMARK  3 active torsions:
REMARK  status: ('A' for Active; 'I' for Inactive)
REMARK    1  A    between atoms: O_3  and  C_16
REMARK    2  A    between atoms: O_3  and  C_21
REMARK    3  A    between atoms: N_7  and  C_15
REMARK                            x       y       z     vdW  Elec       q    Type
REMARK                         _______ _______ _______ _____ _____    ______ ____
ROOT
ATOM      1  O   UNL     1     -17.817   2.343  22.031  0.00  0.00    -0.253 OA
ATOM      2  O   UNL     1     -16.709   1.393  28.796  0.00  0.00    -0.252 OA
ATOM      4  N   UNL     1     -16.850   2.580  24.164  0.00  0.00    -0.278 N 
ATOM      5  N   UNL     1     -16.700   2.758  26.933  0.00  0.00    -0.282 N 
ATOM      6  N   UNL     1     -16.212   3.981  22.527  0.00  0.00    -0.297 N 
ATOM      7  N   UNL     1     -15.094   3.051  28.635  0.00  0.00    -0.266 N 
ATOM      8  C   UNL     1     -15.777   3.367  24.748  0.00  0.00    +0.112 C 
ATOM      9  C   UNL     1     -16.194   3.884  26.121  0.00  0.00    +0.133 C 
ATOM     10  C   UNL     1     -15.520   4.450  23.705  0.00  0.00    +0.129 C 
ATOM     11  C   UNL     1     -17.493   1.536  24.944  0.00  0.00    +0.128 C 
ATOM     12  C   UNL     1     -17.850   2.062  26.334  0.00  0.00    +0.128 C 
ATOM     13  C   UNL     1     -17.056   2.892  22.815  0.00  0.00    +0.303 C 
ATOM     14  C   UNL     1     -16.204   2.336  28.183  0.00  0.00    +0.307 C 
ATOM     22  H   UNL     1     -16.165   4.432  21.618  0.00  0.00    +0.150 HD
ATOM     23  H   UNL     1     -14.474   3.457  27.944  0.00  0.00    +0.156 HD
ENDROOT
BRANCH   7  15
ATOM     15  C   UNL     1     -14.729   3.311  29.979  0.00  0.00    +0.077 A 
ATOM     16  C   UNL     1     -13.869   2.450  30.661  0.00  0.00    +0.141 A 
ATOM     17  C   UNL     1     -15.241   4.438  30.622  0.00  0.00    +0.027 A 
ATOM     18  C   UNL     1     -13.520   2.717  31.985  0.00  0.00    +0.047 A 
ATOM     19  C   UNL     1     -14.892   4.704  31.945  0.00  0.00    +0.002 A 
ATOM     20  C   UNL     1     -14.033   3.844  32.628  0.00  0.00    +0.004 A 
BRANCH  16   3
ATOM      3  O   UNL     1     -13.358   1.343  30.051  0.00  0.00    -0.493 OA
ATOM     21  C   UNL     1     -13.903   0.082  30.432  0.00  0.00    +0.277 C 
ENDBRANCH  16   3
ENDBRANCH   7  15
TORSDOF 2
ENDMDL
MODEL 2
REMARK VINA RESULT:      -6.3     31.800     32.794
REMARK  Name = 75536969
REMARK  3 active torsions:
REMARK  status: ('A' for Active; 'I' for Inactive)
REMARK    1  A    between atoms: O_3  and  C_16
REMARK    2  A    between atoms: O_3  and  C_21
REMARK    3  A    between atoms: N_7  and  C_15
REMARK                            x       y       z     vdW  Elec       q    Type
REMARK                         _______ _______ _______ _____ _____    ______ ____
ROOT
ATOM      1  O   UNL     1      10.295   8.457  17.127  0.00  0.00    -0.253 OA
ATOM      2  O   UNL     1      15.320   6.034  21.223  0.00  0.00    -0.252 OA
ATOM      4  N   UNL     1      12.460   8.006  17.934  0.00  0.00    -0.278 N 
ATOM      5  N   UNL     1      14.514   7.638  19.769  0.00  0.00    -0.282 N 
ATOM      6  N   UNL     1      12.226   9.411  16.196  0.00  0.00    -0.297 N 
ATOM      7  N   UNL     1      16.814   7.121  19.819  0.00  0.00    -0.266 N 
ATOM      8  C   UNL     1      13.819   8.312  17.519  0.00  0.00    +0.112 C 
ATOM      9  C   UNL     1      14.666   8.680  18.733  0.00  0.00    +0.133 C 
ATOM     10  C   UNL     1      13.638   9.430  16.498  0.00  0.00    +0.129 C 
ATOM     11  C   UNL     1      12.225   7.088  19.036  0.00  0.00    +0.128 C 
ATOM     12  C   UNL     1      13.126   7.444  20.218  0.00  0.00    +0.128 C 
ATOM     13  C   UNL     1      11.510   8.599  17.095  0.00  0.00    +0.303 C 
ATOM     14  C   UNL     1      15.547   6.871  20.345  0.00  0.00    +0.307 C 
ATOM     22  H   UNL     1      11.787   9.979  15.477  0.00  0.00    +0.150 HD
ATOM     23  H   UNL     1      16.879   7.433  18.857  0.00  0.00    +0.156 HD
ENDROOT
BRANCH   7  15
ATOM     15  C   UNL     1      18.058   7.014  20.488  0.00  0.00    +0.077 A 
ATOM     16  C   UNL     1      18.435   7.956  21.444  0.00  0.00    +0.141 A 
ATOM     17  C   UNL     1      18.912   5.955  20.178  0.00  0.00    +0.027 A 
ATOM     18  C   UNL     1      19.664   7.840  22.092  0.00  0.00    +0.047 A 
ATOM     19  C   UNL     1      20.142   5.839  20.826  0.00  0.00    +0.002 A 
ATOM     20  C   UNL     1      20.519   6.781  21.783  0.00  0.00    +0.004 A 
BRANCH  16   3
ATOM      3  O   UNL     1      17.615   8.998  21.761  0.00  0.00    -0.493 OA
ATOM     21  C   UNL     1      17.980  10.285  21.266  0.00  0.00    +0.277 C 
ENDBRANCH  16   3
ENDBRANCH   7  15
TORSDOF 2
ENDMDL
MODEL 3
REMARK VINA RESULT:      -6.1     19.653     22.162
REMARK  Name = 75536969
REMARK  3 active torsions:
REMARK  status: ('A' for Active; 'I' for Inactive)
REMARK    1  A    between atoms: O_3  and  C_16
REMARK    2  A    between atoms: O_3  and  C_21
REMARK    3  A    between atoms: N_7  and  C_15
REMARK                            x       y       z     vdW  Elec       q    Type
REMARK                         _______ _______ _______ _____ _____    ______ ____
ROOT
ATOM      1  O   UNL     1      -6.037 -11.322  20.546  0.00  0.00    -0.253 OA
ATOM      2  O   UNL     1      -3.028 -11.376  14.315  0.00  0.00    -0.252 OA
ATOM      4  N   UNL     1      -5.746 -10.999  18.233  0.00  0.00    -0.278 N 
ATOM      5  N   UNL     1      -4.458 -10.401  15.844  0.00  0.00    -0.282 N 
ATOM      6  N   UNL     1      -7.562 -10.123  19.226  0.00  0.00    -0.297 N 
ATOM      7  N   UNL     1      -4.915 -10.271  13.535  0.00  0.00    -0.266 N 
ATOM      8  C   UNL     1      -6.534 -10.446  17.143  0.00  0.00    +0.112 C 
ATOM      9  C   UNL     1      -5.646  -9.610  16.228  0.00  0.00    +0.133 C 
ATOM     10  C   UNL     1      -7.634  -9.668  17.857  0.00  0.00    +0.129 C 
ATOM     11  C   UNL     1      -4.494 -11.681  17.952  0.00  0.00    +0.128 C 
ATOM     12  C   UNL     1      -3.647 -10.849  16.988  0.00  0.00    +0.128 C 
ATOM     13  C   UNL     1      -6.397 -10.876  19.466  0.00  0.00    +0.303 C 
ATOM     14  C   UNL     1      -4.052 -10.723  14.534  0.00  0.00    +0.307 C 
ATOM     22  H   UNL     1      -8.224  -9.863  19.952  0.00  0.00    +0.150 HD
ATOM     23  H   UNL     1      -5.897 -10.173  13.761  0.00  0.00    +0.156 HD
ENDROOT
BRANCH   7  15
ATOM     15  C   UNL     1      -4.575  -9.897  12.212  0.00  0.00    +0.077 A 
ATOM     16  C   UNL     1      -5.472  -9.178  11.423  0.00  0.00    +0.141 A 
ATOM     17  C   UNL     1      -3.329 -10.258  11.697  0.00  0.00    +0.027 A 
ATOM     18  C   UNL     1      -5.125  -8.819  10.120  0.00  0.00    +0.047 A 
ATOM     19  C   UNL     1      -2.982  -9.900  10.395  0.00  0.00    +0.002 A 
ATOM     20  C   UNL     1      -3.880  -9.181   9.606  0.00  0.00    +0.004 A 
BRANCH  16   3
ATOM      3  O   UNL     1      -6.694  -8.815  11.907  0.00  0.00    -0.493 OA
ATOM     21  C   UNL     1      -7.817  -9.575  11.466  0.00  0.00    +0.277 C 
ENDBRANCH  16   3
ENDBRANCH   7  15
TORSDOF 2
ENDMDL
MODEL 4
REMARK VINA RESULT:      -6.0      1.130      2.026
REMARK  Name = 75536969
REMARK  3 active torsions:
REMARK  status: ('A' for Active; 'I' for Inactive)
REMARK    1  A    between atoms: O_3  and  C_16
REMARK    2  A    between atoms: O_3  and  C_21
REMARK    3  A    between atoms: N_7  and  C_15
REMARK                            x       y       z     vdW  Elec       q    Type
REMARK                         _______ _______ _______ _____ _____    ______ ____
ROOT
ATOM      1  O   UNL     1     -17.748   1.628  22.369  0.00  0.00    -0.253 OA
ATOM      2  O   UNL     1     -16.213   1.244  29.106  0.00  0.00    -0.252 OA
ATOM      4  N   UNL     1     -16.755   2.145  24.440  0.00  0.00    -0.278 N 
ATOM      5  N   UNL     1     -16.528   2.491  27.188  0.00  0.00    -0.282 N 
ATOM      6  N   UNL     1     -16.449   3.551  22.713  0.00  0.00    -0.297 N 
ATOM      7  N   UNL     1     -14.936   3.156  28.794  0.00  0.00    -0.266 N 
ATOM      8  C   UNL     1     -15.820   3.142  24.935  0.00  0.00    +0.112 C 
ATOM      9  C   UNL     1     -16.269   3.645  26.303  0.00  0.00    +0.133 C 
ATOM     10  C   UNL     1     -15.807   4.198  23.834  0.00  0.00    +0.129 C 
ATOM     11  C   UNL     1     -17.165   1.044  25.295  0.00  0.00    +0.128 C 
ATOM     12  C   UNL     1     -17.555   1.568  26.677  0.00  0.00    +0.128 C 
ATOM     13  C   UNL     1     -17.068   2.345  23.090  0.00  0.00    +0.303 C 
ATOM     14  C   UNL     1     -15.913   2.231  28.429  0.00  0.00    +0.307 C 
ATOM     22  H   UNL     1     -16.523   3.956  21.785  0.00  0.00    +0.150 HD
ATOM     23  H   UNL     1     -14.428   3.631  28.056  0.00  0.00    +0.156 HD
ENDROOT
BRANCH   7  15
ATOM     15  C   UNL     1     -14.570   3.546  30.106  0.00  0.00    +0.077 A 
ATOM     16  C   UNL     1     -15.315   4.499  30.799  0.00  0.00    +0.141 A 
ATOM     17  C   UNL     1     -13.448   2.970  30.702  0.00  0.00    +0.027 A 
ATOM     18  C   UNL     1     -14.941   4.876  32.089  0.00  0.00    +0.047 A 
ATOM     19  C   UNL     1     -13.073   3.347  31.992  0.00  0.00    +0.002 A 
ATOM     20  C   UNL     1     -13.819   4.300  32.686  0.00  0.00    +0.004 A 
BRANCH  16   3
ATOM      3  O   UNL     1     -16.415   5.074  30.234  0.00  0.00    -0.493 OA
ATOM     21  C   UNL     1     -17.687   4.668  30.734  0.00  0.00    +0.277 C 
ENDBRANCH  16   3
ENDBRANCH   7  15
TORSDOF 2
ENDMDL
MODEL 5
REMARK VINA RESULT:      -5.7     30.418     32.209
REMARK  Name = 75536969
REMARK  3 active torsions:
REMARK  status: ('A' for Active; 'I' for Inactive)
REMARK    1  A    between atoms: O_3  and  C_16
REMARK    2  A    between atoms: O_3  and  C_21
REMARK    3  A    between atoms: N_7  and  C_15
REMARK                            x       y       z     vdW  Elec       q    Type
REMARK                         _______ _______ _______ _____ _____    ______ ____
ROOT
ATOM      1  O   UNL     1      11.266   6.389  21.334  0.00  0.00    -0.253 OA
ATOM      2  O   UNL     1      13.854   8.683  15.340  0.00  0.00    -0.252 OA
ATOM      4  N   UNL     1      11.938   7.891  19.650  0.00  0.00    -0.278 N 
ATOM      5  N   UNL     1      13.480   8.962  17.601  0.00  0.00    -0.282 N 
ATOM      6  N   UNL     1      11.291   8.716  21.638  0.00  0.00    -0.297 N 
ATOM      7  N   UNL     1      13.515  10.827  16.160  0.00  0.00    -0.266 N 
ATOM      8  C   UNL     1      11.944   9.334  19.472  0.00  0.00    +0.112 C 
ATOM      9  C   UNL     1      13.246   9.774  18.813  0.00  0.00    +0.133 C 
ATOM     10  C   UNL     1      11.725   9.868  20.884  0.00  0.00    +0.129 C 
ATOM     11  C   UNL     1      12.285   7.020  18.540  0.00  0.00    +0.128 C 
ATOM     12  C   UNL     1      13.562   7.515  17.862  0.00  0.00    +0.128 C 
ATOM     13  C   UNL     1      11.473   7.521  20.917  0.00  0.00    +0.303 C 
ATOM     14  C   UNL     1      13.643   9.444  16.287  0.00  0.00    +0.307 C 
ATOM     22  H   UNL     1      10.974   8.749  22.603  0.00  0.00    +0.150 HD
ATOM     23  H   UNL     1      12.917  11.314  16.817  0.00  0.00    +0.156 HD
ENDROOT
BRANCH   7  15
ATOM     15  C   UNL     1      14.155  11.665  15.213  0.00  0.00    +0.077 A 
ATOM     16  C   UNL     1      13.548  11.950  13.990  0.00  0.00    +0.141 A 
ATOM     17  C   UNL     1      15.406  12.205  15.513  0.00  0.00    +0.027 A 
ATOM     18  C   UNL     1      14.192  12.774  13.067  0.00  0.00    +0.047 A 
ATOM     19  C   UNL     1      16.049  13.030  14.591  0.00  0.00    +0.002 A 
ATOM     20  C   UNL     1      15.443  13.314  13.367  0.00  0.00    +0.004 A 
BRANCH  16   3
ATOM      3  O   UNL     1      12.326  11.433  13.678  0.00  0.00    -0.493 OA
ATOM     21  C   UNL     1      11.569  12.116  12.682  0.00  0.00    +0.277 C 
ENDBRANCH  16   3
ENDBRANCH   7  15
TORSDOF 2
ENDMDL
MODEL 6
REMARK VINA RESULT:      -5.7     28.591     29.630
REMARK  Name = 75536969
REMARK  3 active torsions:
REMARK  status: ('A' for Active; 'I' for Inactive)
REMARK    1  A    between atoms: O_3  and  C_16
REMARK    2  A    between atoms: O_3  and  C_21
REMARK    3  A    between atoms: N_7  and  C_15
REMARK                            x       y       z     vdW  Elec       q    Type
REMARK                         _______ _______ _______ _____ _____    ______ ____
ROOT
ATOM      1  O   UNL     1      13.614   7.127  16.988  0.00  0.00    -0.253 OA
ATOM      2  O   UNL     1      10.564   9.490  22.732  0.00  0.00    -0.252 OA
ATOM      4  N   UNL     1      13.121   8.543  18.802  0.00  0.00    -0.278 N 
ATOM      5  N   UNL     1      11.597   9.879  20.704  0.00  0.00    -0.282 N 
ATOM      6  N   UNL     1      14.525   9.278  17.209  0.00  0.00    -0.297 N 
ATOM      7  N   UNL     1      11.870  11.393  22.490  0.00  0.00    -0.266 N 
ATOM      8  C   UNL     1      13.598   9.826  19.292  0.00  0.00    +0.112 C 
ATOM      9  C   UNL     1      12.423  10.672  19.770  0.00  0.00    +0.133 C 
ATOM     10  C   UNL     1      14.362  10.400  18.103  0.00  0.00    +0.129 C 
ATOM     11  C   UNL     1      12.199   7.755  19.604  0.00  0.00    +0.128 C 
ATOM     12  C   UNL     1      11.062   8.639  20.118  0.00  0.00    +0.128 C 
ATOM     13  C   UNL     1      13.735   8.180  17.598  0.00  0.00    +0.303 C 
ATOM     14  C   UNL     1      11.282  10.213  22.036  0.00  0.00    +0.307 C 
ATOM     22  H   UNL     1      15.075   9.301  16.355  0.00  0.00    +0.150 HD
ATOM     23  H   UNL     1      12.755  11.673  22.084  0.00  0.00    +0.156 HD
ENDROOT
BRANCH   7  15
ATOM     15  C   UNL     1      11.356  12.291  23.458  0.00  0.00    +0.077 A 
ATOM     16  C   UNL     1      10.560  13.370  23.077  0.00  0.00    +0.141 A 
ATOM     17  C   UNL     1      11.659  12.090  24.805  0.00  0.00    +0.027 A 
ATOM     18  C   UNL     1      10.064  14.248  24.041  0.00  0.00    +0.047 A 
ATOM     19  C   UNL     1      11.163  12.967  25.770  0.00  0.00    +0.002 A 
ATOM     20  C   UNL     1      10.367  14.047  25.388  0.00  0.00    +0.004 A 
BRANCH  16   3
ATOM      3  O   UNL     1      10.253  13.584  21.766  0.00  0.00    -0.493 OA
ATOM     21  C   UNL     1      10.174  14.940  21.332  0.00  0.00    +0.277 C 
ENDBRANCH  16   3
ENDBRANCH   7  15
TORSDOF 2
ENDMDL
MODEL 7
REMARK VINA RESULT:      -5.7     28.574     30.091
REMARK  Name = 75536969
REMARK  3 active torsions:
REMARK  status: ('A' for Active; 'I' for Inactive)
REMARK    1  A    between atoms: O_3  and  C_16
REMARK    2  A    between atoms: O_3  and  C_21
REMARK    3  A    between atoms: N_7  and  C_15
REMARK                            x       y       z     vdW  Elec       q    Type
REMARK                         _______ _______ _______ _____ _____    ______ ____
ROOT
ATOM      1  O   UNL     1      10.727  14.302  26.298  0.00  0.00    -0.253 OA
ATOM      2  O   UNL     1      13.449   9.331  22.326  0.00  0.00    -0.252 OA
ATOM      4  N   UNL     1      11.114  12.948  24.412  0.00  0.00    -0.278 N 
ATOM      5  N   UNL     1      12.525  11.435  22.556  0.00  0.00    -0.282 N 
ATOM      6  N   UNL     1       9.794  14.753  24.193  0.00  0.00    -0.297 N 
ATOM      7  N   UNL     1      12.148  10.174  20.600  0.00  0.00    -0.266 N 
ATOM      8  C   UNL     1      10.604  12.871  23.052  0.00  0.00    +0.112 C 
ATOM      9  C   UNL     1      11.746  12.597  22.080  0.00  0.00    +0.133 C 
ATOM     10  C   UNL     1       9.902  14.211  22.858  0.00  0.00    +0.129 C 
ATOM     11  C   UNL     1      11.995  11.908  24.918  0.00  0.00    +0.128 C 
ATOM     12  C   UNL     1      13.097  11.613  23.901  0.00  0.00    +0.128 C 
ATOM     13  C   UNL     1      10.568  14.026  25.116  0.00  0.00    +0.303 C 
ATOM     14  C   UNL     1      12.766  10.240  21.848  0.00  0.00    +0.307 C 
ATOM     22  H   UNL     1       9.291  15.605  24.426  0.00  0.00    +0.150 HD
ATOM     23  H   UNL     1      11.284  10.687  20.466  0.00  0.00    +0.156 HD
ENDROOT
BRANCH   7  15
ATOM     15  C   UNL     1      12.603   9.480  19.452  0.00  0.00    +0.077 A 
ATOM     16  C   UNL     1      12.162   8.184  19.183  0.00  0.00    +0.141 A 
ATOM     17  C   UNL     1      13.505  10.102  18.588  0.00  0.00    +0.027 A 
ATOM     18  C   UNL     1      12.621   7.512  18.050  0.00  0.00    +0.047 A 
ATOM     19  C   UNL     1      13.964   9.429  17.456  0.00  0.00    +0.002 A 
ATOM     20  C   UNL     1      13.523   8.134  17.187  0.00  0.00    +0.004 A 
BRANCH  16   3
ATOM      3  O   UNL     1      11.281   7.558  20.013  0.00  0.00    -0.493 OA
ATOM     21  C   UNL     1      11.812   6.579  20.903  0.00  0.00    +0.277 C 
ENDBRANCH  16   3
ENDBRANCH   7  15
TORSDOF 2
ENDMDL
MODEL 8
REMARK VINA RESULT:      -5.6     16.008     17.716
REMARK  Name = 75536969
REMARK  3 active torsions:
REMARK  status: ('A' for Active; 'I' for Inactive)
REMARK    1  A    between atoms: O_3  and  C_16
REMARK    2  A    between atoms: O_3  and  C_21
REMARK    3  A    between atoms: N_7  and  C_15
REMARK                            x       y       z     vdW  Elec       q    Type
REMARK                         _______ _______ _______ _____ _____    ______ ____
ROOT
ATOM      1  O   UNL     1     -14.172  -6.783  15.811  0.00  0.00    -0.253 OA
ATOM      2  O   UNL     1      -9.732 -11.423  18.387  0.00  0.00    -0.252 OA
ATOM      4  N   UNL     1     -12.133  -7.848  16.305  0.00  0.00    -0.278 N 
ATOM      5  N   UNL     1     -10.234  -9.256  17.767  0.00  0.00    -0.282 N 
ATOM      6  N   UNL     1     -12.086  -5.824  15.330  0.00  0.00    -0.297 N 
ATOM      7  N   UNL     1      -8.037 -10.082  17.543  0.00  0.00    -0.266 N 
ATOM      8  C   UNL     1     -10.726  -7.602  16.029  0.00  0.00    +0.112 C 
ATOM      9  C   UNL     1      -9.889  -7.910  17.265  0.00  0.00    +0.133 C 
ATOM     10  C   UNL     1     -10.700  -6.144  15.581  0.00  0.00    +0.129 C 
ATOM     11  C   UNL     1     -12.545  -9.099  16.919  0.00  0.00    +0.128 C 
ATOM     12  C   UNL     1     -11.655  -9.413  18.121  0.00  0.00    +0.128 C 
ATOM     13  C   UNL     1     -12.950  -6.823  15.816  0.00  0.00    +0.303 C 
ATOM     14  C   UNL     1      -9.349 -10.339  17.942  0.00  0.00    +0.307 C 
ATOM     22  H   UNL     1     -12.407  -4.947  14.929  0.00  0.00    +0.150 HD
ATOM     23  H   UNL     1      -7.887  -9.407  16.803  0.00  0.00    +0.156 HD
ENDROOT
BRANCH   7  15
ATOM     15  C   UNL     1      -6.852 -10.644  18.077  0.00  0.00    +0.077 A 
ATOM     16  C   UNL     1      -5.872 -11.170  17.236  0.00  0.00    +0.141 A 
ATOM     17  C   UNL     1      -6.671 -10.673  19.460  0.00  0.00    +0.027 A 
ATOM     18  C   UNL     1      -4.711 -11.723  17.776  0.00  0.00    +0.047 A 
ATOM     19  C   UNL     1      -5.510 -11.226  20.001  0.00  0.00    +0.002 A 
ATOM     20  C   UNL     1      -4.530 -11.752  19.159  0.00  0.00    +0.004 A 
BRANCH  16   3
ATOM      3  O   UNL     1      -6.029 -11.151  15.882  0.00  0.00    -0.493 OA
ATOM     21  C   UNL     1      -5.199 -10.255  15.145  0.00  0.00    +0.277 C 
ENDBRANCH  16   3
ENDBRANCH   7  15
TORSDOF 2
ENDMDL
MODEL 9
REMARK VINA RESULT:      -5.6     16.333     18.044
REMARK  Name = 75536969
REMARK  3 active torsions:
REMARK  status: ('A' for Active; 'I' for Inactive)
REMARK    1  A    between atoms: O_3  and  C_16
REMARK    2  A    between atoms: O_3  and  C_21
REMARK    3  A    between atoms: N_7  and  C_15
REMARK                            x       y       z     vdW  Elec       q    Type
REMARK                         _______ _______ _______ _____ _____    ______ ____
ROOT
ATOM      1  O   UNL     1     -13.112  -6.969  13.607  0.00  0.00    -0.253 OA
ATOM      2  O   UNL     1      -8.065 -11.334  15.442  0.00  0.00    -0.252 OA
ATOM      4  N   UNL     1     -11.215  -7.807  14.720  0.00  0.00    -0.278 N 
ATOM      5  N   UNL     1      -9.549  -9.646  15.972  0.00  0.00    -0.282 N 
ATOM      6  N   UNL     1     -12.104  -5.863  15.414  0.00  0.00    -0.297 N 
ATOM      7  N   UNL     1      -7.437  -9.746  17.013  0.00  0.00    -0.266 N 
ATOM      8  C   UNL     1     -10.302  -7.327  15.744  0.00  0.00    +0.112 C 
ATOM      9  C   UNL     1      -9.977  -8.449  16.724  0.00  0.00    +0.133 C 
ATOM     10  C   UNL     1     -11.039  -6.137  16.350  0.00  0.00    +0.129 C 
ATOM     11  C   UNL     1     -10.934  -9.050  14.020  0.00  0.00    +0.128 C 
ATOM     12  C   UNL     1     -10.557 -10.143  15.020  0.00  0.00    +0.128 C 
ATOM     13  C   UNL     1     -12.246  -6.896  14.468  0.00  0.00    +0.303 C 
ATOM     14  C   UNL     1      -8.322 -10.326  16.105  0.00  0.00    +0.307 C 
ATOM     22  H   UNL     1     -12.732  -5.067  15.478  0.00  0.00    +0.150 HD
ATOM     23  H   UNL     1      -7.490  -8.745  17.160  0.00  0.00    +0.156 HD
ENDROOT
BRANCH   7  15
ATOM     15  C   UNL     1      -6.459 -10.404  17.799  0.00  0.00    +0.077 A 
ATOM     16  C   UNL     1      -6.758 -10.837  19.091  0.00  0.00    +0.141 A 
ATOM     17  C   UNL     1      -5.185 -10.615  17.271  0.00  0.00    +0.027 A 
ATOM     18  C   UNL     1      -5.784 -11.481  19.854  0.00  0.00    +0.047 A 
ATOM     19  C   UNL     1      -4.211 -11.259  18.034  0.00  0.00    +0.002 A 
ATOM     20  C   UNL     1      -4.510 -11.691  19.326  0.00  0.00    +0.004 A 
BRANCH  16   3
ATOM      3  O   UNL     1      -7.996 -10.641  19.625  0.00  0.00    -0.493 OA
ATOM     21  C   UNL     1      -8.878 -11.762  19.646  0.00  0.00    +0.277 C 
ENDBRANCH  16   3
ENDBRANCH   7  15
TORSDOF 2
ENDMDL
MODEL 10
REMARK VINA RESULT:      -5.6     28.976     29.944
REMARK  Name = 75536969
REMARK  3 active torsions:
REMARK  status: ('A' for Active; 'I' for Inactive)
REMARK    1  A    between atoms: O_3  and  C_16
REMARK    2  A    between atoms: O_3  and  C_21
REMARK    3  A    between atoms: N_7  and  C_15
REMARK                            x       y       z     vdW  Elec       q    Type
REMARK                         _______ _______ _______ _____ _____    ______ ____
ROOT
ATOM      1  O   UNL     1      13.220   7.234  16.934  0.00  0.00    -0.253 OA
ATOM      2  O   UNL     1      10.923   9.481  23.063  0.00  0.00    -0.252 OA
ATOM      4  N   UNL     1      13.016   8.573  18.859  0.00  0.00    -0.278 N 
ATOM      5  N   UNL     1      11.792   9.909  20.967  0.00  0.00    -0.282 N 
ATOM      6  N   UNL     1      14.323   9.291  17.177  0.00  0.00    -0.297 N 
ATOM      7  N   UNL     1      12.354  11.289  22.794  0.00  0.00    -0.266 N 
ATOM      8  C   UNL     1      13.641   9.784  19.366  0.00  0.00    +0.112 C 
ATOM      9  C   UNL     1      12.591  10.690  20.000  0.00  0.00    +0.133 C 
ATOM     10  C   UNL     1      14.337  10.367  18.140  0.00  0.00    +0.129 C 
ATOM     11  C   UNL     1      12.111   7.814  19.705  0.00  0.00    +0.128 C 
ATOM     12  C   UNL     1      11.104   8.751  20.372  0.00  0.00    +0.128 C 
ATOM     13  C   UNL     1      13.483   8.237  17.584  0.00  0.00    +0.303 C 
ATOM     14  C   UNL     1      11.631  10.186  22.339  0.00  0.00    +0.307 C 
ATOM     22  H   UNL     1      14.791   9.322  16.276  0.00  0.00    +0.150 HD
ATOM     23  H   UNL     1      13.218  11.522  22.319  0.00  0.00    +0.156 HD
ENDROOT
BRANCH   7  15
ATOM     15  C   UNL     1      12.009  12.164  23.853  0.00  0.00    +0.077 A 
ATOM     16  C   UNL     1      12.940  12.488  24.840  0.00  0.00    +0.141 A 
ATOM     17  C   UNL     1      10.722  12.701  23.905  0.00  0.00    +0.027 A 
ATOM     18  C   UNL     1      12.585  13.350  25.878  0.00  0.00    +0.047 A 
ATOM     19  C   UNL     1      10.368  13.562  24.943  0.00  0.00    +0.002 A 
ATOM     20  C   UNL     1      11.298  13.886  25.930  0.00  0.00    +0.004 A 
BRANCH  16   3
ATOM      3  O   UNL     1      14.202  11.975  24.807  0.00  0.00    -0.493 OA
ATOM     21  C   UNL     1      14.764  11.557  26.049  0.00  0.00    +0.277 C 
ENDBRANCH  16   3
ENDBRANCH   7  15
TORSDOF 2
ENDMDL
