MODEL 1
REMARK VINA RESULT:      -7.1      0.000      0.000
REMARK  Name = 44716323
REMARK  10 active torsions:
REMARK  status: ('A' for Active; 'I' for Inactive)
REMARK    1  A    between atoms: N_3  and  C_19
REMARK    2  A    between atoms: N_4  and  C_14
REMARK    3  A    between atoms: N_4  and  C_18
REMARK    4  A    between atoms: N_6  and  C_27
REMARK    5  A    between atoms: N_6  and  C_30
REMARK    6  A    between atoms: N_6  and  C_31
REMARK    7  A    between atoms: C_8  and  C_15
REMARK    8  A    between atoms: C_9  and  C_14
REMARK    9  A    between atoms: C_17  and  C_20
REMARK   10  A    between atoms: C_18  and  C_21
REMARK                            x       y       z     vdW  Elec       q    Type
REMARK                         _______ _______ _______ _____ _____    ______ ____
ROOT
ATOM      2  N   UNL     1      12.961   7.174  21.341  0.00  0.00    -0.298 NA
ATOM      7  C   UNL     1      11.243   8.825  20.289  0.00  0.00    +0.002 C 
ATOM      8  C   UNL     1      12.029   8.077  19.177  0.00  0.00    +0.055 C 
ATOM      9  C   UNL     1      13.100   8.517  21.964  0.00  0.00    +0.071 C 
ATOM     10  C   UNL     1      12.239   9.556  21.214  0.00  0.00    +0.024 C 
ATOM     11  C   UNL     1      10.541   7.746  21.141  0.00  0.00    +0.019 C 
ATOM     12  C   UNL     1      13.162   7.270  19.874  0.00  0.00    +0.094 C 
ATOM     13  C   UNL     1      11.578   6.700  21.587  0.00  0.00    +0.085 C 
ENDROOT
BRANCH   8  15
ATOM      3  N   UNL     1      11.839   9.021  16.830  0.00  0.00    -0.270 N 
ATOM      5  N   UNL     1      12.462   9.772  15.905  0.00  0.00    -0.171 NA
ATOM     15  C   UNL     1      12.540   8.884  17.991  0.00  0.00    +0.044 A 
ATOM     16  C   UNL     1      13.702   9.593  17.815  0.00  0.00    +0.053 A 
ATOM     17  C   UNL     1      13.600  10.119  16.513  0.00  0.00    +0.093 A 
ATOM     19  C   UNL     1      10.547   8.453  16.522  0.00  0.00    +0.172 C 
BRANCH  17  20
ATOM     20  C   UNL     1      14.568  10.943  15.839  0.00  0.00    +0.002 A 
ATOM     22  C   UNL     1      15.246  10.453  14.722  0.00  0.00    +0.012 A 
ATOM     23  C   UNL     1      14.829  12.233  16.302  0.00  0.00    +0.012 A 
ATOM     25  C   UNL     1      16.184  11.252  14.068  0.00  0.00    +0.024 A 
ATOM     26  C   UNL     1      15.766  13.032  15.648  0.00  0.00    +0.024 A 
ATOM     27  C   UNL     1      16.444  12.542  14.532  0.00  0.00    +0.029 A 
BRANCH  27   6
ATOM      6  N   UNL     1      17.392  13.349  13.870  0.00  0.00    -0.336 N 
ATOM     30  C   UNL     1      18.461  12.744  13.100  0.00  0.00    +0.129 C 
ATOM     31  C   UNL     1      17.316  14.794  13.957  0.00  0.00    +0.129 C 
ENDBRANCH  27   6
ENDBRANCH  17  20
ENDBRANCH   8  15
BRANCH   9  14
ATOM     14  C   UNL     1      14.560   8.960  22.074  0.00  0.00    +0.100 C 
BRANCH  14   4
ATOM      4  N   UNL     1      15.450   7.812  22.066  0.00  0.00    -0.308 NA
ATOM     32  H   UNL     1      15.010   7.053  21.546  0.00  0.00    +0.122 HD
BRANCH   4  18
ATOM     18  C   UNL     1      16.733   8.147  21.461  0.00  0.00    +0.155 C 
BRANCH  18  21
ATOM      1  O   UNL     1      16.404   6.815  19.450  0.00  0.00    -0.467 OA
ATOM     21  C   UNL     1      17.205   7.074  20.518  0.00  0.00    +0.119 A 
ATOM     24  C   UNL     1      18.316   6.261  20.496  0.00  0.00    +0.046 A 
ATOM     28  C   UNL     1      18.189   5.453  19.341  0.00  0.00    +0.041 A 
ATOM     29  C   UNL     1      17.010   5.828  18.739  0.00  0.00    +0.195 A 
ENDBRANCH  18  21
ENDBRANCH   4  18
ENDBRANCH  14   4
ENDBRANCH   9  14
TORSDOF 7
ENDMDL
MODEL 2
REMARK VINA RESULT:      -6.8     27.166     29.857
REMARK  Name = 44716323
REMARK  10 active torsions:
REMARK  status: ('A' for Active; 'I' for Inactive)
REMARK    1  A    between atoms: N_3  and  C_19
REMARK    2  A    between atoms: N_4  and  C_14
REMARK    3  A    between atoms: N_4  and  C_18
REMARK    4  A    between atoms: N_6  and  C_27
REMARK    5  A    between atoms: N_6  and  C_30
REMARK    6  A    between atoms: N_6  and  C_31
REMARK    7  A    between atoms: C_8  and  C_15
REMARK    8  A    between atoms: C_9  and  C_14
REMARK    9  A    between atoms: C_17  and  C_20
REMARK   10  A    between atoms: C_18  and  C_21
REMARK                            x       y       z     vdW  Elec       q    Type
REMARK                         _______ _______ _______ _____ _____    ______ ____
ROOT
ATOM      2  N   UNL     1      -5.348 -12.534  16.915  0.00  0.00    -0.298 NA
ATOM      7  C   UNL     1      -5.864 -10.648  18.635  0.00  0.00    +0.002 C 
ATOM      8  C   UNL     1      -7.175 -11.361  18.202  0.00  0.00    +0.055 C 
ATOM      9  C   UNL     1      -4.687 -11.270  16.497  0.00  0.00    +0.071 C 
ATOM     10  C   UNL     1      -5.148 -10.094  17.385  0.00  0.00    +0.024 C 
ATOM     11  C   UNL     1      -4.947 -11.730  19.242  0.00  0.00    +0.019 C 
ATOM     12  C   UNL     1      -6.813 -12.326  17.036  0.00  0.00    +0.094 C 
ATOM     13  C   UNL     1      -4.822 -12.902  18.252  0.00  0.00    +0.085 C 
ENDROOT
BRANCH   8  15
ATOM      3  N   UNL     1      -9.480 -10.426  18.700  0.00  0.00    -0.270 N 
ATOM      5  N   UNL     1     -10.447  -9.612  18.240  0.00  0.00    -0.171 NA
ATOM     15  C   UNL     1      -8.390 -10.501  17.884  0.00  0.00    +0.044 A 
ATOM     16  C   UNL     1      -8.661  -9.681  16.817  0.00  0.00    +0.053 A 
ATOM     17  C   UNL     1      -9.940  -9.160  17.090  0.00  0.00    +0.093 A 
ATOM     19  C   UNL     1      -9.677 -11.115  19.954  0.00  0.00    +0.172 C 
BRANCH  17  20
ATOM     20  C   UNL     1     -10.688  -8.241  16.272  0.00  0.00    +0.002 A 
ATOM     22  C   UNL     1     -10.876  -6.924  16.694  0.00  0.00    +0.012 A 
ATOM     23  C   UNL     1     -11.225  -8.667  15.057  0.00  0.00    +0.012 A 
ATOM     25  C   UNL     1     -11.599  -6.034  15.901  0.00  0.00    +0.024 A 
ATOM     26  C   UNL     1     -11.949  -7.776  14.265  0.00  0.00    +0.024 A 
ATOM     27  C   UNL     1     -12.137  -6.460  14.687  0.00  0.00    +0.029 A 
BRANCH  27   6
ATOM      6  N   UNL     1     -12.868  -5.559  13.886  0.00  0.00    -0.336 N 
ATOM     30  C   UNL     1     -14.316  -5.626  13.842  0.00  0.00    +0.129 C 
ATOM     31  C   UNL     1     -12.184  -4.560  13.091  0.00  0.00    +0.129 C 
ENDBRANCH  27   6
ENDBRANCH  17  20
ENDBRANCH   8  15
BRANCH   9  14
ATOM     14  C   UNL     1      -4.887 -10.972  15.009  0.00  0.00    +0.100 C 
BRANCH  14   4
ATOM      4  N   UNL     1      -3.687 -10.391  14.433  0.00  0.00    -0.308 NA
ATOM     32  H   UNL     1      -2.939 -10.414  15.127  0.00  0.00    +0.122 HD
BRANCH   4  18
ATOM     18  C   UNL     1      -3.274 -11.118  13.239  0.00  0.00    +0.155 C 
BRANCH  18  21
ATOM      1  O   UNL     1      -4.639  -9.723  11.785  0.00  0.00    -0.467 OA
ATOM     21  C   UNL     1      -3.419 -10.282  11.996  0.00  0.00    +0.119 A 
ATOM     24  C   UNL     1      -2.551  -9.943  10.982  0.00  0.00    +0.046 A 
ATOM     28  C   UNL     1      -3.286  -9.124  10.093  0.00  0.00    +0.041 A 
ATOM     29  C   UNL     1      -4.550  -9.020  10.625  0.00  0.00    +0.195 A 
ENDBRANCH  18  21
ENDBRANCH   4  18
ENDBRANCH  14   4
ENDBRANCH   9  14
TORSDOF 7
ENDMDL
MODEL 3
REMARK VINA RESULT:      -6.6     26.085     29.188
REMARK  Name = 44716323
REMARK  10 active torsions:
REMARK  status: ('A' for Active; 'I' for Inactive)
REMARK    1  A    between atoms: N_3  and  C_19
REMARK    2  A    between atoms: N_4  and  C_14
REMARK    3  A    between atoms: N_4  and  C_18
REMARK    4  A    between atoms: N_6  and  C_27
REMARK    5  A    between atoms: N_6  and  C_30
REMARK    6  A    between atoms: N_6  and  C_31
REMARK    7  A    between atoms: C_8  and  C_15
REMARK    8  A    between atoms: C_9  and  C_14
REMARK    9  A    between atoms: C_17  and  C_20
REMARK   10  A    between atoms: C_18  and  C_21
REMARK                            x       y       z     vdW  Elec       q    Type
REMARK                         _______ _______ _______ _____ _____    ______ ____
ROOT
ATOM      2  N   UNL     1      -6.293 -10.683  17.863  0.00  0.00    -0.298 NA
ATOM      7  C   UNL     1      -4.130 -11.996  17.249  0.00  0.00    +0.002 C 
ATOM      8  C   UNL     1      -4.175 -10.639  16.493  0.00  0.00    +0.055 C 
ATOM      9  C   UNL     1      -6.637 -12.077  17.480  0.00  0.00    +0.071 C 
ATOM     10  C   UNL     1      -5.399 -12.808  16.916  0.00  0.00    +0.024 C 
ATOM     11  C   UNL     1      -4.183 -11.669  18.756  0.00  0.00    +0.019 C 
ATOM     12  C   UNL     1      -5.575 -10.012  16.751  0.00  0.00    +0.094 C 
ATOM     13  C   UNL     1      -5.382 -10.743  19.031  0.00  0.00    +0.085 C 
ENDROOT
BRANCH   8  15
ATOM      3  N   UNL     1      -2.516 -10.469  14.581  0.00  0.00    -0.270 N 
ATOM      5  N   UNL     1      -2.394 -10.483  13.242  0.00  0.00    -0.171 NA
ATOM     15  C   UNL     1      -3.799 -10.625  15.018  0.00  0.00    +0.044 A 
ATOM     16  C   UNL     1      -4.569 -10.752  13.889  0.00  0.00    +0.053 A 
ATOM     17  C   UNL     1      -3.651 -10.657  12.825  0.00  0.00    +0.093 A 
ATOM     19  C   UNL     1      -1.335 -10.293  15.394  0.00  0.00    +0.172 C 
BRANCH  17  20
ATOM     20  C   UNL     1      -3.952 -10.728  11.419  0.00  0.00    +0.002 A 
ATOM     22  C   UNL     1      -4.261 -11.955  10.832  0.00  0.00    +0.012 A 
ATOM     23  C   UNL     1      -3.937  -9.568  10.644  0.00  0.00    +0.012 A 
ATOM     25  C   UNL     1      -4.554 -12.023   9.470  0.00  0.00    +0.024 A 
ATOM     26  C   UNL     1      -4.230  -9.636   9.282  0.00  0.00    +0.024 A 
ATOM     27  C   UNL     1      -4.537 -10.863   8.695  0.00  0.00    +0.029 A 
BRANCH  27   6
ATOM      6  N   UNL     1      -4.834 -10.933   7.318  0.00  0.00    -0.336 N 
ATOM     30  C   UNL     1      -5.712  -9.955   6.706  0.00  0.00    +0.129 C 
ATOM     31  C   UNL     1      -4.271 -11.987   6.498  0.00  0.00    +0.129 C 
ENDBRANCH  27   6
ENDBRANCH  17  20
ENDBRANCH   8  15
BRANCH   9  14
ATOM     14  C   UNL     1      -7.824 -12.142  16.517  0.00  0.00    +0.100 C 
BRANCH  14   4
ATOM      4  N   UNL     1      -8.855 -11.193  16.903  0.00  0.00    -0.308 NA
ATOM     32  H   UNL     1      -8.465 -10.535  17.579  0.00  0.00    +0.122 HD
BRANCH   4  18
ATOM     18  C   UNL     1      -9.362 -10.469  15.745  0.00  0.00    +0.155 C 
BRANCH  18  21
ATOM      1  O   UNL     1      -9.717  -8.125  15.195  0.00  0.00    -0.467 OA
ATOM     21  C   UNL     1      -9.883  -9.108  16.119  0.00  0.00    +0.119 A 
ATOM     24  C   UNL     1     -10.517  -8.617  17.238  0.00  0.00    +0.046 A 
ATOM     28  C   UNL     1     -10.757  -7.246  16.984  0.00  0.00    +0.041 A 
ATOM     29  C   UNL     1     -10.252  -6.995  15.729  0.00  0.00    +0.195 A 
ENDBRANCH  18  21
ENDBRANCH   4  18
ENDBRANCH  14   4
ENDBRANCH   9  14
TORSDOF 7
ENDMDL
MODEL 4
REMARK VINA RESULT:      -6.6     26.175     29.237
REMARK  Name = 44716323
REMARK  10 active torsions:
REMARK  status: ('A' for Active; 'I' for Inactive)
REMARK    1  A    between atoms: N_3  and  C_19
REMARK    2  A    between atoms: N_4  and  C_14
REMARK    3  A    between atoms: N_4  and  C_18
REMARK    4  A    between atoms: N_6  and  C_27
REMARK    5  A    between atoms: N_6  and  C_30
REMARK    6  A    between atoms: N_6  and  C_31
REMARK    7  A    between atoms: C_8  and  C_15
REMARK    8  A    between atoms: C_9  and  C_14
REMARK    9  A    between atoms: C_17  and  C_20
REMARK   10  A    between atoms: C_18  and  C_21
REMARK                            x       y       z     vdW  Elec       q    Type
REMARK                         _______ _______ _______ _____ _____    ______ ____
ROOT
ATOM      2  N   UNL     1      -6.384 -10.442  17.953  0.00  0.00    -0.298 NA
ATOM      7  C   UNL     1      -4.411 -12.039  17.366  0.00  0.00    +0.002 C 
ATOM      8  C   UNL     1      -4.249 -10.681  16.628  0.00  0.00    +0.055 C 
ATOM      9  C   UNL     1      -6.910 -11.771  17.544  0.00  0.00    +0.071 C 
ATOM     10  C   UNL     1      -5.774 -12.662  16.995  0.00  0.00    +0.024 C 
ATOM     11  C   UNL     1      -4.452 -11.723  18.876  0.00  0.00    +0.019 C 
ATOM     12  C   UNL     1      -5.553  -9.867  16.865  0.00  0.00    +0.094 C 
ATOM     13  C   UNL     1      -5.517 -10.642  19.139  0.00  0.00    +0.085 C 
ENDROOT
BRANCH   8  15
ATOM      3  N   UNL     1      -2.547 -10.586  14.749  0.00  0.00    -0.270 N 
ATOM      5  N   UNL     1      -2.396 -10.630  13.414  0.00  0.00    -0.171 NA
ATOM     15  C   UNL     1      -3.841 -10.704  15.161  0.00  0.00    +0.044 A 
ATOM     16  C   UNL     1      -4.590 -10.835  14.018  0.00  0.00    +0.053 A 
ATOM     17  C   UNL     1      -3.648 -10.782  12.973  0.00  0.00    +0.093 A 
ATOM     19  C   UNL     1      -1.380 -10.423  15.585  0.00  0.00    +0.172 C 
BRANCH  17  20
ATOM     20  C   UNL     1      -3.921 -10.873  11.563  0.00  0.00    +0.002 A 
ATOM     22  C   UNL     1      -4.214 -12.109  10.986  0.00  0.00    +0.012 A 
ATOM     23  C   UNL     1      -3.893  -9.724  10.772  0.00  0.00    +0.012 A 
ATOM     25  C   UNL     1      -4.479 -12.196   9.619  0.00  0.00    +0.024 A 
ATOM     26  C   UNL     1      -4.159  -9.811   9.406  0.00  0.00    +0.024 A 
ATOM     27  C   UNL     1      -4.451 -11.047   8.829  0.00  0.00    +0.029 A 
BRANCH  27   6
ATOM      6  N   UNL     1      -4.719 -11.136   7.448  0.00  0.00    -0.336 N 
ATOM     30  C   UNL     1      -5.562 -10.150   6.799  0.00  0.00    +0.129 C 
ATOM     31  C   UNL     1      -4.164 -12.218   6.659  0.00  0.00    +0.129 C 
ENDBRANCH  27   6
ENDBRANCH  17  20
ENDBRANCH   8  15
BRANCH   9  14
ATOM     14  C   UNL     1      -8.072 -11.658  16.555  0.00  0.00    +0.100 C 
BRANCH  14   4
ATOM      4  N   UNL     1      -7.693 -12.175  15.251  0.00  0.00    -0.308 NA
ATOM     32  H   UNL     1      -7.500 -13.174  15.332  0.00  0.00    +0.122 HD
BRANCH   4  18
ATOM     18  C   UNL     1      -8.750 -11.955  14.272  0.00  0.00    +0.155 C 
BRANCH  18  21
ATOM      1  O   UNL     1      -7.910  -9.920  13.232  0.00  0.00    -0.467 OA
ATOM     21  C   UNL     1      -8.245 -11.226  13.056  0.00  0.00    +0.119 A 
ATOM     24  C   UNL     1      -8.038 -11.605  11.749  0.00  0.00    +0.046 A 
ATOM     28  C   UNL     1      -7.544 -10.460  11.081  0.00  0.00    +0.041 A 
ATOM     29  C   UNL     1      -7.484  -9.462  12.026  0.00  0.00    +0.195 A 
ENDBRANCH  18  21
ENDBRANCH   4  18
ENDBRANCH  14   4
ENDBRANCH   9  14
TORSDOF 7
ENDMDL
MODEL 5
REMARK VINA RESULT:      -6.4      5.277     10.008
REMARK  Name = 44716323
REMARK  10 active torsions:
REMARK  status: ('A' for Active; 'I' for Inactive)
REMARK    1  A    between atoms: N_3  and  C_19
REMARK    2  A    between atoms: N_4  and  C_14
REMARK    3  A    between atoms: N_4  and  C_18
REMARK    4  A    between atoms: N_6  and  C_27
REMARK    5  A    between atoms: N_6  and  C_30
REMARK    6  A    between atoms: N_6  and  C_31
REMARK    7  A    between atoms: C_8  and  C_15
REMARK    8  A    between atoms: C_9  and  C_14
REMARK    9  A    between atoms: C_17  and  C_20
REMARK   10  A    between atoms: C_18  and  C_21
REMARK                            x       y       z     vdW  Elec       q    Type
REMARK                         _______ _______ _______ _____ _____    ______ ____
ROOT
ATOM      2  N   UNL     1      24.779   3.566  22.754  0.00  0.00    -0.298 NA
ATOM      7  C   UNL     1      22.948   2.707  21.114  0.00  0.00    +0.002 C 
ATOM      8  C   UNL     1      23.208   4.223  20.892  0.00  0.00    +0.055 C 
ATOM      9  C   UNL     1      23.743   2.806  23.502  0.00  0.00    +0.071 C 
ATOM     10  C   UNL     1      22.548   2.468  22.585  0.00  0.00    +0.024 C 
ATOM     11  C   UNL     1      24.293   1.986  20.886  0.00  0.00    +0.019 C 
ATOM     12  C   UNL     1      24.154   4.701  22.031  0.00  0.00    +0.094 C 
ATOM     13  C   UNL     1      25.377   2.653  21.752  0.00  0.00    +0.085 C 
ENDROOT
BRANCH   8  15
ATOM      3  N   UNL     1      22.119   6.493  20.579  0.00  0.00    -0.270 N 
ATOM      5  N   UNL     1      20.940   7.124  20.436  0.00  0.00    -0.171 NA
ATOM     15  C   UNL     1      22.006   5.141  20.716  0.00  0.00    +0.044 A 
ATOM     16  C   UNL     1      20.662   4.867  20.659  0.00  0.00    +0.053 A 
ATOM     17  C   UNL     1      20.054   6.125  20.485  0.00  0.00    +0.093 A 
ATOM     19  C   UNL     1      23.338   7.268  20.577  0.00  0.00    +0.172 C 
BRANCH  17  20
ATOM     20  C   UNL     1      18.645   6.391  20.368  0.00  0.00    +0.002 A 
ATOM     22  C   UNL     1      18.010   7.217  21.297  0.00  0.00    +0.012 A 
ATOM     23  C   UNL     1      17.912   5.824  19.325  0.00  0.00    +0.012 A 
ATOM     25  C   UNL     1      16.644   7.475  21.183  0.00  0.00    +0.024 A 
ATOM     26  C   UNL     1      16.547   6.083  19.211  0.00  0.00    +0.024 A 
ATOM     27  C   UNL     1      15.912   6.907  20.140  0.00  0.00    +0.029 A 
BRANCH  27   6
ATOM      6  N   UNL     1      14.532   7.169  20.025  0.00  0.00    -0.336 N 
ATOM     30  C   UNL     1      13.705   7.282  21.211  0.00  0.00    +0.129 C 
ATOM     31  C   UNL     1      13.918   7.322  18.721  0.00  0.00    +0.129 C 
ENDBRANCH  27   6
ENDBRANCH  17  20
ENDBRANCH   8  15
BRANCH   9  14
ATOM     14  C   UNL     1      23.297   3.527  24.776  0.00  0.00    +0.100 C 
BRANCH  14   4
ATOM      4  N   UNL     1      22.269   4.510  24.480  0.00  0.00    -0.308 NA
ATOM     32  H   UNL     1      21.366   4.152  24.791  0.00  0.00    +0.122 HD
BRANCH   4  18
ATOM     18  C   UNL     1      22.551   5.779  25.140  0.00  0.00    +0.155 C 
BRANCH  18  21
ATOM      1  O   UNL     1      22.548   7.974  24.089  0.00  0.00    -0.467 OA
ATOM     21  C   UNL     1      21.800   6.919  24.507  0.00  0.00    +0.119 A 
ATOM     24  C   UNL     1      20.467   7.139  24.246  0.00  0.00    +0.046 A 
ATOM     28  C   UNL     1      20.391   8.410  23.627  0.00  0.00    +0.041 A 
ATOM     29  C   UNL     1      21.683   8.876  23.555  0.00  0.00    +0.195 A 
ENDBRANCH  18  21
ENDBRANCH   4  18
ENDBRANCH  14   4
ENDBRANCH   9  14
TORSDOF 7
ENDMDL
MODEL 6
REMARK VINA RESULT:      -6.3     24.091     26.284
REMARK  Name = 44716323
REMARK  10 active torsions:
REMARK  status: ('A' for Active; 'I' for Inactive)
REMARK    1  A    between atoms: N_3  and  C_19
REMARK    2  A    between atoms: N_4  and  C_14
REMARK    3  A    between atoms: N_4  and  C_18
REMARK    4  A    between atoms: N_6  and  C_27
REMARK    5  A    between atoms: N_6  and  C_30
REMARK    6  A    between atoms: N_6  and  C_31
REMARK    7  A    between atoms: C_8  and  C_15
REMARK    8  A    between atoms: C_9  and  C_14
REMARK    9  A    between atoms: C_17  and  C_20
REMARK   10  A    between atoms: C_18  and  C_21
REMARK                            x       y       z     vdW  Elec       q    Type
REMARK                         _______ _______ _______ _____ _____    ______ ____
ROOT
ATOM      2  N   UNL     1      15.816  -7.274  -5.584  0.00  0.00    -0.298 NA
ATOM      7  C   UNL     1      14.867  -5.849  -3.622  0.00  0.00    +0.002 C 
ATOM      8  C   UNL     1      16.239  -5.288  -4.087  0.00  0.00    +0.055 C 
ATOM      9  C   UNL     1      15.400  -8.162  -4.466  0.00  0.00    +0.071 C 
ATOM     10  C   UNL     1      15.031  -7.330  -3.219  0.00  0.00    +0.024 C 
ATOM     11  C   UNL     1      13.932  -5.814  -4.849  0.00  0.00    +0.019 C 
ATOM     12  C   UNL     1      16.830  -6.300  -5.110  0.00  0.00    +0.094 C 
ATOM     13  C   UNL     1      14.622  -6.518  -6.032  0.00  0.00    +0.085 C 
ENDROOT
BRANCH   8  15
ATOM      3  N   UNL     1      17.399  -3.605  -2.584  0.00  0.00    -0.270 N 
ATOM      5  N   UNL     1      18.345  -3.459  -1.641  0.00  0.00    -0.171 NA
ATOM     15  C   UNL     1      17.250  -4.888  -3.021  0.00  0.00    +0.044 A 
ATOM     16  C   UNL     1      18.160  -5.634  -2.315  0.00  0.00    +0.053 A 
ATOM     17  C   UNL     1      18.806  -4.702  -1.480  0.00  0.00    +0.093 A 
ATOM     19  C   UNL     1      16.664  -2.443  -3.030  0.00  0.00    +0.172 C 
BRANCH  17  20
ATOM     20  C   UNL     1      19.856  -4.977  -0.534  0.00  0.00    +0.002 A 
ATOM     22  C   UNL     1      21.141  -5.278  -0.985  0.00  0.00    +0.012 A 
ATOM     23  C   UNL     1      19.589  -4.940   0.835  0.00  0.00    +0.012 A 
ATOM     25  C   UNL     1      22.159  -5.543  -0.069  0.00  0.00    +0.024 A 
ATOM     26  C   UNL     1      20.606  -5.205   1.751  0.00  0.00    +0.024 A 
ATOM     27  C   UNL     1      21.891  -5.508   1.300  0.00  0.00    +0.029 A 
BRANCH  27   6
ATOM      6  N   UNL     1      22.920  -5.776   2.225  0.00  0.00    -0.336 N 
ATOM     30  C   UNL     1      22.614  -6.374   3.510  0.00  0.00    +0.129 C 
ATOM     31  C   UNL     1      24.296  -5.450   1.909  0.00  0.00    +0.129 C 
ENDBRANCH  27   6
ENDBRANCH  17  20
ENDBRANCH   8  15
BRANCH   9  14
ATOM     14  C   UNL     1      16.450  -9.229  -4.148  0.00  0.00    +0.100 C 
BRANCH  14   4
ATOM      4  N   UNL     1      16.811  -9.195  -2.741  0.00  0.00    -0.308 NA
ATOM     32  H   UNL     1      16.019  -9.524  -2.187  0.00  0.00    +0.122 HD
BRANCH   4  18
ATOM     18  C   UNL     1      17.977 -10.028  -2.479  0.00  0.00    +0.155 C 
BRANCH  18  21
ATOM      1  O   UNL     1      18.348 -10.402  -0.102  0.00  0.00    -0.467 OA
ATOM     21  C   UNL     1      18.658  -9.650  -1.191  0.00  0.00    +0.119 A 
ATOM     24  C   UNL     1      19.564  -8.669  -0.858  0.00  0.00    +0.046 A 
ATOM     28  C   UNL     1      19.827  -8.829   0.524  0.00  0.00    +0.041 A 
ATOM     29  C   UNL     1      19.063  -9.896   0.937  0.00  0.00    +0.195 A 
ENDBRANCH  18  21
ENDBRANCH   4  18
ENDBRANCH  14   4
ENDBRANCH   9  14
TORSDOF 7
ENDMDL
MODEL 7
REMARK VINA RESULT:      -6.2      4.253      8.568
REMARK  Name = 44716323
REMARK  10 active torsions:
REMARK  status: ('A' for Active; 'I' for Inactive)
REMARK    1  A    between atoms: N_3  and  C_19
REMARK    2  A    between atoms: N_4  and  C_14
REMARK    3  A    between atoms: N_4  and  C_18
REMARK    4  A    between atoms: N_6  and  C_27
REMARK    5  A    between atoms: N_6  and  C_30
REMARK    6  A    between atoms: N_6  and  C_31
REMARK    7  A    between atoms: C_8  and  C_15
REMARK    8  A    between atoms: C_9  and  C_14
REMARK    9  A    between atoms: C_17  and  C_20
REMARK   10  A    between atoms: C_18  and  C_21
REMARK                            x       y       z     vdW  Elec       q    Type
REMARK                         _______ _______ _______ _____ _____    ______ ____
ROOT
ATOM      2  N   UNL     1      22.770   8.912  23.564  0.00  0.00    -0.298 NA
ATOM      7  C   UNL     1      21.400   6.817  24.283  0.00  0.00    +0.002 C 
ATOM      8  C   UNL     1      21.542   6.869  22.736  0.00  0.00    +0.055 C 
ATOM      9  C   UNL     1      21.690   9.309  24.505  0.00  0.00    +0.071 C 
ATOM     10  C   UNL     1      20.742   8.122  24.779  0.00  0.00    +0.024 C 
ATOM     11  C   UNL     1      22.830   6.782  24.861  0.00  0.00    +0.019 C 
ATOM     12  C   UNL     1      22.188   8.238  22.377  0.00  0.00    +0.094 C 
ATOM     13  C   UNL     1      23.647   7.942  24.263  0.00  0.00    +0.085 C 
ENDROOT
BRANCH   8  15
ATOM      3  N   UNL     1      20.315   5.673  20.865  0.00  0.00    -0.270 N 
ATOM      5  N   UNL     1      19.130   5.555  20.242  0.00  0.00    -0.171 NA
ATOM     15  C   UNL     1      20.311   6.571  21.891  0.00  0.00    +0.044 A 
ATOM     16  C   UNL     1      19.036   7.076  21.944  0.00  0.00    +0.053 A 
ATOM     17  C   UNL     1      18.352   6.415  20.906  0.00  0.00    +0.093 A 
ATOM     19  C   UNL     1      21.432   4.878  20.410  0.00  0.00    +0.172 C 
BRANCH  17  20
ATOM     20  C   UNL     1      16.972   6.589  20.536  0.00  0.00    +0.002 A 
ATOM     22  C   UNL     1      16.599   6.549  19.193  0.00  0.00    +0.012 A 
ATOM     23  C   UNL     1      16.007   6.799  21.522  0.00  0.00    +0.012 A 
ATOM     25  C   UNL     1      15.262   6.718  18.834  0.00  0.00    +0.024 A 
ATOM     26  C   UNL     1      14.670   6.967  21.163  0.00  0.00    +0.024 A 
ATOM     27  C   UNL     1      14.297   6.928  19.820  0.00  0.00    +0.029 A 
BRANCH  27   6
ATOM      6  N   UNL     1      12.945   7.098  19.457  0.00  0.00    -0.336 N 
ATOM     30  C   UNL     1      12.589   7.432  18.091  0.00  0.00    +0.129 C 
ATOM     31  C   UNL     1      11.895   6.949  20.443  0.00  0.00    +0.129 C 
ENDBRANCH  27   6
ENDBRANCH  17  20
ENDBRANCH   8  15
BRANCH   9  14
ATOM     14  C   UNL     1      20.927  10.548  24.027  0.00  0.00    +0.100 C 
BRANCH  14   4
ATOM      4  N   UNL     1      19.627  10.179  23.494  0.00  0.00    -0.308 NA
ATOM     32  H   UNL     1      18.905  10.440  24.167  0.00  0.00    +0.122 HD
BRANCH   4  18
ATOM     18  C   UNL     1      19.376  10.842  22.220  0.00  0.00    +0.155 C 
BRANCH  18  21
ATOM      1  O   UNL     1      17.022  11.241  22.692  0.00  0.00    -0.467 OA
ATOM     21  C   UNL     1      17.931  10.744  21.813  0.00  0.00    +0.119 A 
ATOM     24  C   UNL     1      17.299  10.241  20.698  0.00  0.00    +0.046 A 
ATOM     28  C   UNL     1      15.914  10.442  20.907  0.00  0.00    +0.041 A 
ATOM     29  C   UNL     1      15.797  11.054  22.134  0.00  0.00    +0.195 A 
ENDBRANCH  18  21
ENDBRANCH   4  18
ENDBRANCH  14   4
ENDBRANCH   9  14
TORSDOF 7
ENDMDL
MODEL 8
REMARK VINA RESULT:      -6.1     11.823     14.402
REMARK  Name = 44716323
REMARK  10 active torsions:
REMARK  status: ('A' for Active; 'I' for Inactive)
REMARK    1  A    between atoms: N_3  and  C_19
REMARK    2  A    between atoms: N_4  and  C_14
REMARK    3  A    between atoms: N_4  and  C_18
REMARK    4  A    between atoms: N_6  and  C_27
REMARK    5  A    between atoms: N_6  and  C_30
REMARK    6  A    between atoms: N_6  and  C_31
REMARK    7  A    between atoms: C_8  and  C_15
REMARK    8  A    between atoms: C_9  and  C_14
REMARK    9  A    between atoms: C_17  and  C_20
REMARK   10  A    between atoms: C_18  and  C_21
REMARK                            x       y       z     vdW  Elec       q    Type
REMARK                         _______ _______ _______ _____ _____    ______ ____
ROOT
ATOM      2  N   UNL     1       8.967   7.392   5.517  0.00  0.00    -0.298 NA
ATOM      7  C   UNL     1      10.627   6.953   7.476  0.00  0.00    +0.002 C 
ATOM      8  C   UNL     1      10.929   8.321   6.804  0.00  0.00    +0.055 C 
ATOM      9  C   UNL     1       9.561   6.035   5.386  0.00  0.00    +0.071 C 
ATOM     10  C   UNL     1      10.696   5.836   6.413  0.00  0.00    +0.024 C 
ATOM     11  C   UNL     1       9.168   7.014   7.975  0.00  0.00    +0.019 C 
ATOM     12  C   UNL     1      10.040   8.418   5.531  0.00  0.00    +0.094 C 
ATOM     13  C   UNL     1       8.254   7.452   6.816  0.00  0.00    +0.085 C 
ENDROOT
BRANCH   8  15
ATOM      3  N   UNL     1      12.978   9.802   7.010  0.00  0.00    -0.270 N 
ATOM      5  N   UNL     1      14.266   9.936   6.646  0.00  0.00    -0.171 NA
ATOM     15  C   UNL     1      12.382   8.678   6.522  0.00  0.00    +0.044 A 
ATOM     16  C   UNL     1      13.344   8.030   5.788  0.00  0.00    +0.053 A 
ATOM     17  C   UNL     1      14.483   8.850   5.900  0.00  0.00    +0.093 A 
ATOM     19  C   UNL     1      12.373  10.816   7.844  0.00  0.00    +0.172 C 
BRANCH  17  20
ATOM     20  C   UNL     1      15.774   8.617   5.306  0.00  0.00    +0.002 A 
ATOM     22  C   UNL     1      16.931   8.754   6.074  0.00  0.00    +0.012 A 
ATOM     23  C   UNL     1      15.868   8.252   3.963  0.00  0.00    +0.012 A 
ATOM     25  C   UNL     1      18.181   8.527   5.499  0.00  0.00    +0.024 A 
ATOM     26  C   UNL     1      17.118   8.026   3.388  0.00  0.00    +0.024 A 
ATOM     27  C   UNL     1      18.275   8.164   4.156  0.00  0.00    +0.029 A 
BRANCH  27   6
ATOM      6  N   UNL     1      19.539   7.935   3.575  0.00  0.00    -0.336 N 
ATOM     30  C   UNL     1      20.662   7.529   4.399  0.00  0.00    +0.129 C 
ATOM     31  C   UNL     1      19.736   8.109   2.150  0.00  0.00    +0.129 C 
ENDBRANCH  27   6
ENDBRANCH  17  20
ENDBRANCH   8  15
BRANCH   9  14
ATOM     14  C   UNL     1      10.027   5.739   3.958  0.00  0.00    +0.100 C 
BRANCH  14   4
ATOM      4  N   UNL     1      10.927   4.599   3.935  0.00  0.00    -0.308 NA
ATOM     32  H   UNL     1      10.529   3.849   4.501  0.00  0.00    +0.122 HD
BRANCH   4  18
ATOM     18  C   UNL     1      11.144   4.129   2.573  0.00  0.00    +0.155 C 
BRANCH  18  21
ATOM      1  O   UNL     1      13.268   3.139   1.915  0.00  0.00    -0.467 OA
ATOM     21  C   UNL     1      12.578   4.287   2.147  0.00  0.00    +0.119 A 
ATOM     24  C   UNL     1      13.381   5.384   1.931  0.00  0.00    +0.046 A 
ATOM     28  C   UNL     1      14.644   4.877   1.541  0.00  0.00    +0.041 A 
ATOM     29  C   UNL     1      14.523   3.507   1.547  0.00  0.00    +0.195 A 
ENDBRANCH  18  21
ENDBRANCH   4  18
ENDBRANCH  14   4
ENDBRANCH   9  14
TORSDOF 7
ENDMDL
MODEL 9
REMARK VINA RESULT:      -6.1     14.063     16.908
REMARK  Name = 44716323
REMARK  10 active torsions:
REMARK  status: ('A' for Active; 'I' for Inactive)
REMARK    1  A    between atoms: N_3  and  C_19
REMARK    2  A    between atoms: N_4  and  C_14
REMARK    3  A    between atoms: N_4  and  C_18
REMARK    4  A    between atoms: N_6  and  C_27
REMARK    5  A    between atoms: N_6  and  C_30
REMARK    6  A    between atoms: N_6  and  C_31
REMARK    7  A    between atoms: C_8  and  C_15
REMARK    8  A    between atoms: C_9  and  C_14
REMARK    9  A    between atoms: C_17  and  C_20
REMARK   10  A    between atoms: C_18  and  C_21
REMARK                            x       y       z     vdW  Elec       q    Type
REMARK                         _______ _______ _______ _____ _____    ______ ____
ROOT
ATOM      2  N   UNL     1      10.232   5.744   6.421  0.00  0.00    -0.298 NA
ATOM      7  C   UNL     1      11.041   8.127   5.750  0.00  0.00    +0.002 C 
ATOM      8  C   UNL     1       9.529   8.147   6.109  0.00  0.00    +0.055 C 
ATOM      9  C   UNL     1      10.977   5.685   5.135  0.00  0.00    +0.071 C 
ATOM     10  C   UNL     1      11.283   7.107   4.618  0.00  0.00    +0.024 C 
ATOM     11  C   UNL     1      11.788   7.607   6.997  0.00  0.00    +0.019 C 
ATOM     12  C   UNL     1       9.079   6.670   6.299  0.00  0.00    +0.094 C 
ATOM     13  C   UNL     1      11.150   6.282   7.453  0.00  0.00    +0.085 C 
ENDROOT
BRANCH   8  15
ATOM      3  N   UNL     1       8.367  10.266   5.336  0.00  0.00    -0.270 N 
ATOM      5  N   UNL     1       7.499  10.766   4.439  0.00  0.00    -0.171 NA
ATOM     15  C   UNL     1       8.586   8.926   5.203  0.00  0.00    +0.044 A 
ATOM     16  C   UNL     1       7.809   8.521   4.147  0.00  0.00    +0.053 A 
ATOM     17  C   UNL     1       7.162   9.695   3.715  0.00  0.00    +0.093 A 
ATOM     19  C   UNL     1       8.958  11.151   6.313  0.00  0.00    +0.172 C 
BRANCH  17  20
ATOM     20  C   UNL     1       6.227   9.813   2.627  0.00  0.00    +0.002 A 
ATOM     22  C   UNL     1       4.902  10.171   2.880  0.00  0.00    +0.012 A 
ATOM     23  C   UNL     1       6.645   9.570   1.319  0.00  0.00    +0.012 A 
ATOM     25  C   UNL     1       3.997  10.286   1.826  0.00  0.00    +0.024 A 
ATOM     26  C   UNL     1       5.740   9.685   0.264  0.00  0.00    +0.024 A 
ATOM     27  C   UNL     1       4.416  10.041   0.517  0.00  0.00    +0.029 A 
BRANCH  27   6
ATOM      6  N   UNL     1       3.499  10.158  -0.548  0.00  0.00    -0.336 N 
ATOM     30  C   UNL     1       3.923   9.904  -1.911  0.00  0.00    +0.129 C 
ATOM     31  C   UNL     1       2.125  10.541  -0.296  0.00  0.00    +0.129 C 
ENDBRANCH  27   6
ENDBRANCH  17  20
ENDBRANCH   8  15
BRANCH   9  14
ATOM     14  C   UNL     1      10.257   4.839   4.083  0.00  0.00    +0.100 C 
BRANCH  14   4
ATOM      4  N   UNL     1      10.352   5.456   2.771  0.00  0.00    -0.308 NA
ATOM     32  H   UNL     1      11.056   6.194   2.801  0.00  0.00    +0.122 HD
BRANCH   4  18
ATOM     18  C   UNL     1      10.708   4.474   1.754  0.00  0.00    +0.155 C 
BRANCH  18  21
ATOM      1  O   UNL     1      12.984   5.335   1.830  0.00  0.00    -0.467 OA
ATOM     21  C   UNL     1      12.193   4.237   1.700  0.00  0.00    +0.119 A 
ATOM     24  C   UNL     1      12.961   3.106   1.540  0.00  0.00    +0.046 A 
ATOM     28  C   UNL     1      14.309   3.537   1.576  0.00  0.00    +0.041 A 
ATOM     29  C   UNL     1      14.269   4.901   1.754  0.00  0.00    +0.195 A 
ENDBRANCH  18  21
ENDBRANCH   4  18
ENDBRANCH  14   4
ENDBRANCH   9  14
TORSDOF 7
ENDMDL
MODEL 10
REMARK VINA RESULT:      -6.1     14.321     17.258
REMARK  Name = 44716323
REMARK  10 active torsions:
REMARK  status: ('A' for Active; 'I' for Inactive)
REMARK    1  A    between atoms: N_3  and  C_19
REMARK    2  A    between atoms: N_4  and  C_14
REMARK    3  A    between atoms: N_4  and  C_18
REMARK    4  A    between atoms: N_6  and  C_27
REMARK    5  A    between atoms: N_6  and  C_30
REMARK    6  A    between atoms: N_6  and  C_31
REMARK    7  A    between atoms: C_8  and  C_15
REMARK    8  A    between atoms: C_9  and  C_14
REMARK    9  A    between atoms: C_17  and  C_20
REMARK   10  A    between atoms: C_18  and  C_21
REMARK                            x       y       z     vdW  Elec       q    Type
REMARK                         _______ _______ _______ _____ _____    ______ ____
ROOT
ATOM      2  N   UNL     1       9.570   7.906   7.268  0.00  0.00    -0.298 NA
ATOM      7  C   UNL     1       9.500   5.444   6.420  0.00  0.00    +0.002 C 
ATOM      8  C   UNL     1      10.837   6.123   6.011  0.00  0.00    +0.055 C 
ATOM      9  C   UNL     1       8.292   7.651   6.552  0.00  0.00    +0.071 C 
ATOM     10  C   UNL     1       8.319   6.268   5.865  0.00  0.00    +0.024 C 
ATOM     11  C   UNL     1       9.418   5.513   7.959  0.00  0.00    +0.019 C 
ATOM     12  C   UNL     1      10.719   7.631   6.371  0.00  0.00    +0.094 C 
ATOM     13  C   UNL     1       9.643   6.967   8.414  0.00  0.00    +0.085 C 
ENDROOT
BRANCH   8  15
ATOM      3  N   UNL     1      12.418   6.578   4.080  0.00  0.00    -0.270 N 
ATOM      5  N   UNL     1      12.711   6.244   2.811  0.00  0.00    -0.171 NA
ATOM     15  C   UNL     1      11.349   5.905   4.594  0.00  0.00    +0.044 A 
ATOM     16  C   UNL     1      10.913   5.072   3.594  0.00  0.00    +0.053 A 
ATOM     17  C   UNL     1      11.788   5.323   2.520  0.00  0.00    +0.093 A 
ATOM     19  C   UNL     1      13.222   7.575   4.749  0.00  0.00    +0.172 C 
BRANCH  17  20
ATOM     20  C   UNL     1      11.758   4.702   1.222  0.00  0.00    +0.002 A 
ATOM     22  C   UNL     1      10.688   4.941   0.358  0.00  0.00    +0.012 A 
ATOM     23  C   UNL     1      12.799   3.862   0.827  0.00  0.00    +0.012 A 
ATOM     25  C   UNL     1      10.660   4.339  -0.900  0.00  0.00    +0.024 A 
ATOM     26  C   UNL     1      12.770   3.261  -0.432  0.00  0.00    +0.024 A 
ATOM     27  C   UNL     1      11.701   3.498  -1.295  0.00  0.00    +0.029 A 
BRANCH  27   6
ATOM      6  N   UNL     1      11.671   2.891  -2.567  0.00  0.00    -0.336 N 
ATOM     30  C   UNL     1      12.764   3.087  -3.499  0.00  0.00    +0.129 C 
ATOM     31  C   UNL     1      10.545   2.070  -2.963  0.00  0.00    +0.129 C 
ENDBRANCH  27   6
ENDBRANCH  17  20
ENDBRANCH   8  15
BRANCH   9  14
ATOM     14  C   UNL     1       7.943   8.769   5.567  0.00  0.00    +0.100 C 
BRANCH  14   4
ATOM      4  N   UNL     1       7.543   8.220   4.283  0.00  0.00    -0.308 NA
ATOM     32  H   UNL     1       6.645   7.747   4.388  0.00  0.00    +0.122 HD
BRANCH   4  18
ATOM     18  C   UNL     1       7.435   9.268   3.276  0.00  0.00    +0.155 C 
BRANCH  18  21
ATOM      1  O   UNL     1       7.835   9.525   0.889  0.00  0.00    -0.467 OA
ATOM     21  C   UNL     1       8.248   8.952   2.050  0.00  0.00    +0.119 A 
ATOM     24  C   UNL     1       9.366   8.178   1.835  0.00  0.00    +0.046 A 
ATOM     28  C   UNL     1       9.658   8.284   0.454  0.00  0.00    +0.041 A 
ATOM     29  C   UNL     1       8.699   9.114  -0.077  0.00  0.00    +0.195 A 
ENDBRANCH  18  21
ENDBRANCH   4  18
ENDBRANCH  14   4
ENDBRANCH   9  14
TORSDOF 7
ENDMDL
