REMARK  Name = 26743054
REMARK  9 active torsions:
REMARK  status: ('A' for Active; 'I' for Inactive)
REMARK    1  A    between atoms: O_4  and  C_20
REMARK    2  A    between atoms: O_4  and  C_25
REMARK    3  A    between atoms: N_6  and  C_19
REMARK    4  A    between atoms: C_8  and  C_14
REMARK    5  A    between atoms: C_9  and  C_13
REMARK    6  A    between atoms: C_13  and  C_15
REMARK    7  A    between atoms: C_14  and  C_16
REMARK    8  A    between atoms: C_18  and  C_20
REMARK    9  A    between atoms: C_19  and  C_21
REMARK                            x       y       z     vdW  Elec       q    Type
REMARK                         _______ _______ _______ _____ _____    ______ ____
ROOT
ATOM      5  N   UNL     1      -0.448   2.378  -0.243  0.00  0.00    -0.316 NA
ATOM      8  C   UNL     1       0.365  -0.406  -0.786  0.00  0.00    +0.004 C 
ATOM      9  C   UNL     1      -1.087  -0.015  -0.422  0.00  0.00    +0.012 C 
ATOM     10  C   UNL     1       1.075   0.813  -1.398  0.00  0.00    +0.019 C 
ATOM     11  C   UNL     1      -1.135   1.270   0.422  0.00  0.00    +0.085 C 
ATOM     12  C   UNL     1       0.950   2.060  -0.524  0.00  0.00    +0.081 C 
ATOM     26  H   UNL     1      -0.494   3.207   0.348  0.00  0.00    +0.122 HD
ENDROOT
BRANCH   9  13
ATOM     13  C   UNL     1      -1.855  -1.142   0.270  0.00  0.00    +0.064 C 
BRANCH  13  15
ATOM      3  O   UNL     1      -5.312  -1.140  -0.734  0.00  0.00    -0.357 OA
ATOM      7  N   UNL     1      -3.980  -1.491  -0.913  0.00  0.00    -0.083 NA
ATOM     15  C   UNL     1      -3.339  -0.958   0.131  0.00  0.00    +0.084 A 
ATOM     17  C   UNL     1      -4.206  -0.265   0.993  0.00  0.00    +0.073 A 
ATOM     18  C   UNL     1      -5.435  -0.410   0.404  0.00  0.00    +0.163 A 
BRANCH  18  20
ATOM     20  C   UNL     1      -6.787   0.047   0.747  0.00  0.00    +0.236 C 
BRANCH  20   4
ATOM      4  O   UNL     1      -7.171   1.137  -0.096  0.00  0.00    -0.375 OA
ATOM     25  C   UNL     1      -8.475   1.594   0.220  0.00  0.00    +0.194 C 
ENDBRANCH  20   4
ENDBRANCH  18  20
ENDBRANCH  13  15
ENDBRANCH   9  13
BRANCH   8  14
ATOM     14  C   UNL     1       1.171  -0.974   0.389  0.00  0.00    +0.099 C 
BRANCH  14  16
ATOM      2  O   UNL     1       2.874  -1.762  -1.138  0.00  0.00    -0.276 OA
ATOM      6  N   UNL     1       3.463  -1.207   1.040  0.00  0.00    -0.311 N 
ATOM     16  C   UNL     1       2.577  -1.362  -0.015  0.00  0.00    +0.214 C 
ATOM     27  H   UNL     1       3.123  -0.862   1.934  0.00  0.00    +0.149 HD
BRANCH   6  19
ATOM     19  C   UNL     1       4.873  -1.506   0.938  0.00  0.00    +0.146 C 
BRANCH  19  21
ATOM      1  S   UNL     1       6.605  -0.340  -0.894  0.00  0.00    -0.100 S 
ATOM     21  C   UNL     1       5.676  -0.300   0.543  0.00  0.00    +0.007 A 
ATOM     22  C   UNL     1       5.789   0.907   1.199  0.00  0.00    +0.013 A 
ATOM     23  C   UNL     1       6.649   1.811   0.511  0.00  0.00    +0.008 A 
ATOM     24  C   UNL     1       7.162   1.260  -0.644  0.00  0.00    +0.045 A 
ENDBRANCH  19  21
ENDBRANCH   6  19
ENDBRANCH  14  16
ENDBRANCH   8  14
TORSDOF 8
