REMARK  Name = 26742396
REMARK  6 active torsions:
REMARK  status: ('A' for Active; 'I' for Inactive)
REMARK    1  A    between atoms: N_4  and  C_14
REMARK    2  A    between atoms: C_8  and  C_14
REMARK    3  A    between atoms: C_9  and  C_15
REMARK    4  A    between atoms: C_16  and  C_19
REMARK    5  A    between atoms: C_22  and  C_24
REMARK    6  A    between atoms: C_23  and  C_25
REMARK                            x       y       z     vdW  Elec       q    Type
REMARK                         _______ _______ _______ _____ _____    ______ ____
ROOT
ATOM      3  N   UNL     1      -1.195  -2.509   0.637  0.00  0.00    -0.297 NA
ATOM      7  C   UNL     1      -0.556  -1.622  -1.727  0.00  0.00    +0.002 C 
ATOM      8  C   UNL     1      -2.095  -1.389   0.254  0.00  0.00    +0.074 C 
ATOM      9  C   UNL     1       0.704  -1.718  -0.823  0.00  0.00    +0.055 C 
ATOM     10  C   UNL     1      -1.604  -0.717  -1.047  0.00  0.00    +0.024 C 
ATOM     11  C   UNL     1      -1.161  -3.041  -1.799  0.00  0.00    +0.019 C 
ATOM     12  C   UNL     1       0.218  -2.056   0.616  0.00  0.00    +0.094 C 
ATOM     13  C   UNL     1      -1.352  -3.584  -0.372  0.00  0.00    +0.085 C 
ENDROOT
BRANCH   9  15
ATOM      5  N   UNL     1       1.388   0.483  -1.642  0.00  0.00    -0.237 NA
ATOM      6  N   UNL     1       3.425   1.547  -0.916  0.00  0.00    -0.232 NA
ATOM     15  C   UNL     1       1.691  -0.560  -0.841  0.00  0.00    +0.050 A 
ATOM     21  C   UNL     1       2.827  -0.622  -0.060  0.00  0.00    +0.052 A 
ATOM     22  C   UNL     1       3.666   0.471  -0.138  0.00  0.00    +0.081 A 
ATOM     23  C   UNL     1       2.285   1.487  -1.631  0.00  0.00    +0.127 A 
ATOM     25  C   UNL     1       1.984   2.659  -2.502  0.00  0.00    +0.088 C 
BRANCH  22  24
ATOM      1  S   UNL     1       6.210   1.419  -0.011  0.00  0.00    -0.095 S 
ATOM     24  C   UNL     1       4.885   0.537   0.623  0.00  0.00    +0.038 A 
ATOM     26  C   UNL     1       5.177  -0.025   1.846  0.00  0.00    +0.017 A 
ATOM     27  C   UNL     1       6.504   0.273   2.269  0.00  0.00    +0.008 A 
ATOM     28  C   UNL     1       7.177   1.050   1.353  0.00  0.00    +0.046 A 
ENDBRANCH  22  24
ENDBRANCH   9  15
BRANCH   8  14
ATOM     14  C   UNL     1      -2.279  -0.376   1.385  0.00  0.00    +0.123 C 
BRANCH  14   4
ATOM      2  O   UNL     1      -5.113  -0.468   1.838  0.00  0.00    -0.276 OA
ATOM      4  N   UNL     1      -3.238   0.623   1.026  0.00  0.00    -0.314 N 
ATOM     19  C   UNL     1      -4.605   0.510   1.278  0.00  0.00    +0.216 C 
ATOM     29  H   UNL     1      -2.900   1.458   0.556  0.00  0.00    +0.149 HD
BRANCH  19  16
ATOM     16  C   UNL     1      -5.431   1.714   0.786  0.00  0.00    +0.075 C 
ATOM     17  C   UNL     1      -5.556   1.912  -0.739  0.00  0.00    +0.013 C 
ATOM     18  C   UNL     1      -6.968   1.582   0.817  0.00  0.00    +0.013 C 
ATOM     20  C   UNL     1      -6.990   2.419  -0.479  0.00  0.00    +0.001 C 
ENDBRANCH  19  16
ENDBRANCH  14   4
ENDBRANCH   8  14
TORSDOF 5
