MODEL 1
REMARK VINA RESULT:      -6.2      0.000      0.000
REMARK  Name = 11912463
REMARK  12 active torsions:
REMARK  status: ('A' for Active; 'I' for Inactive)
REMARK    1  A    between atoms: S_1  and  N_7
REMARK    2  A    between atoms: S_1  and  C_18
REMARK    3  A    between atoms: S_2  and  C_25
REMARK    4  A    between atoms: S_2  and  C_27
REMARK    5  A    between atoms: O_6  and  C_24
REMARK    6  A    between atoms: O_6  and  C_26
REMARK    7  A    between atoms: N_8  and  C_21
REMARK    8  A    between atoms: C_9  and  C_14
REMARK    9  A    between atoms: C_10  and  C_15
REMARK   10  A    between atoms: C_14  and  C_16
REMARK   11  A    between atoms: C_15  and  C_17
REMARK   12  A    between atoms: C_21  and  C_25
REMARK                            x       y       z     vdW  Elec       q    Type
REMARK                         _______ _______ _______ _____ _____    ______ ____
ROOT
ATOM      7  N   UNL     1      13.814   7.734  20.664  0.00  0.00    -0.176 NA
ATOM      9  C   UNL     1      15.939   8.346  21.798  0.00  0.00    +0.008 C 
ATOM     10  C   UNL     1      16.681   7.308  20.922  0.00  0.00    +0.003 C 
ATOM     11  C   UNL     1      15.935   7.051  19.604  0.00  0.00    +0.021 C 
ATOM     12  C   UNL     1      14.476   7.918  21.990  0.00  0.00    +0.113 C 
ATOM     13  C   UNL     1      14.478   6.674  19.851  0.00  0.00    +0.110 C 
ENDROOT
BRANCH   7   1
ATOM      1  S   UNL     1      12.103   7.663  20.702  0.00  0.00    +0.061 S 
ATOM      3  O   UNL     1      11.695   6.638  21.637  0.00  0.00    -0.153 OA
ATOM      4  O   UNL     1      11.603   7.679  19.345  0.00  0.00    -0.153 OA
BRANCH   1  18
ATOM     18  C   UNL     1      11.747   9.231  21.431  0.00  0.00    +0.106 A 
ATOM     19  C   UNL     1      11.117   9.295  22.675  0.00  0.00    +0.032 A 
ATOM     20  C   UNL     1      12.097  10.406  20.765  0.00  0.00    +0.032 A 
ATOM     22  C   UNL     1      10.838  10.533  23.252  0.00  0.00    +0.047 A 
ATOM     23  C   UNL     1      11.816  11.645  21.342  0.00  0.00    +0.047 A 
ATOM     24  C   UNL     1      11.187  11.708  22.586  0.00  0.00    +0.120 A 
BRANCH  24   6
ATOM      6  O   UNL     1      10.912  12.918  23.147  0.00  0.00    -0.495 OA
ATOM     26  C   UNL     1      10.613  12.931  24.543  0.00  0.00    +0.277 C 
ENDBRANCH  24   6
ENDBRANCH   1  18
ENDBRANCH   7   1
BRANCH   9  14
ATOM     14  C   UNL     1      16.015   9.783  21.266  0.00  0.00    +0.002 C 
ATOM     16  C   UNL     1      15.761  10.788  22.369  0.00  0.00    +0.004 C 
ENDBRANCH   9  14
BRANCH  10  15
ATOM     15  C   UNL     1      18.139   7.680  20.653  0.00  0.00    +0.099 C 
BRANCH  15  17
ATOM      5  O   UNL     1      19.369   6.546  22.400  0.00  0.00    -0.276 OA
ATOM      8  N   UNL     1      19.635   5.868  20.193  0.00  0.00    -0.315 N 
ATOM     17  C   UNL     1      19.103   6.653  21.206  0.00  0.00    +0.213 C 
ATOM     28  H   UNL     1      19.343   6.031  19.233  0.00  0.00    +0.149 HD
BRANCH   8  21
ATOM     21  C   UNL     1      20.587   4.808  20.432  0.00  0.00    +0.115 C 
BRANCH  21  25
ATOM     25  C   UNL     1      22.032   5.290  20.407  0.00  0.00    +0.087 C 
BRANCH  25   2
ATOM      2  S   UNL     1      22.823   5.174  22.040  0.00  0.00    -0.163 S 
ATOM     27  C   UNL     1      22.196   3.549  22.519  0.00  0.00    +0.084 C 
ENDBRANCH  25   2
ENDBRANCH  21  25
ENDBRANCH   8  21
ENDBRANCH  15  17
ENDBRANCH  10  15
TORSDOF 9
ENDMDL
MODEL 2
REMARK VINA RESULT:      -5.9      3.221      8.825
REMARK  Name = 11912463
REMARK  12 active torsions:
REMARK  status: ('A' for Active; 'I' for Inactive)
REMARK    1  A    between atoms: S_1  and  N_7
REMARK    2  A    between atoms: S_1  and  C_18
REMARK    3  A    between atoms: S_2  and  C_25
REMARK    4  A    between atoms: S_2  and  C_27
REMARK    5  A    between atoms: O_6  and  C_24
REMARK    6  A    between atoms: O_6  and  C_26
REMARK    7  A    between atoms: N_8  and  C_21
REMARK    8  A    between atoms: C_9  and  C_14
REMARK    9  A    between atoms: C_10  and  C_15
REMARK   10  A    between atoms: C_14  and  C_16
REMARK   11  A    between atoms: C_15  and  C_17
REMARK   12  A    between atoms: C_21  and  C_25
REMARK                            x       y       z     vdW  Elec       q    Type
REMARK                         _______ _______ _______ _____ _____    ______ ____
ROOT
ATOM      7  N   UNL     1      12.967   8.982  19.990  0.00  0.00    -0.176 NA
ATOM      9  C   UNL     1      12.062   8.453  22.243  0.00  0.00    +0.008 C 
ATOM     10  C   UNL     1      11.852   9.966  22.490  0.00  0.00    +0.003 C 
ATOM     11  C   UNL     1      11.691  10.734  21.170  0.00  0.00    +0.021 C 
ATOM     12  C   UNL     1      13.223   8.240  21.261  0.00  0.00    +0.113 C 
ATOM     13  C   UNL     1      12.847  10.451  20.216  0.00  0.00    +0.110 C 
ENDROOT
BRANCH   7   1
ATOM      1  S   UNL     1      13.947   8.522  18.662  0.00  0.00    +0.061 S 
ATOM      3  O   UNL     1      14.272   9.699  17.887  0.00  0.00    -0.153 OA
ATOM      4  O   UNL     1      13.370   7.352  18.037  0.00  0.00    -0.153 OA
BRANCH   1  18
ATOM     18  C   UNL     1      15.406   8.019  19.518  0.00  0.00    +0.106 A 
ATOM     19  C   UNL     1      16.108   8.938  20.300  0.00  0.00    +0.032 A 
ATOM     20  C   UNL     1      15.858   6.704  19.413  0.00  0.00    +0.032 A 
ATOM     22  C   UNL     1      17.261   8.540  20.977  0.00  0.00    +0.047 A 
ATOM     23  C   UNL     1      17.012   6.306  20.090  0.00  0.00    +0.047 A 
ATOM     24  C   UNL     1      17.713   7.225  20.872  0.00  0.00    +0.120 A 
BRANCH  24   6
ATOM      6  O   UNL     1      18.839   6.836  21.531  0.00  0.00    -0.495 OA
ATOM     26  C   UNL     1      19.552   7.845  22.246  0.00  0.00    +0.277 C 
ENDBRANCH  24   6
ENDBRANCH   1  18
ENDBRANCH   7   1
BRANCH   9  14
ATOM     14  C   UNL     1      10.805   7.718  21.760  0.00  0.00    +0.002 C 
ATOM     16  C   UNL     1      11.092   6.252  21.509  0.00  0.00    +0.004 C 
ENDBRANCH   9  14
BRANCH  10  15
ATOM     15  C   UNL     1      10.687  10.266  23.434  0.00  0.00    +0.099 C 
BRANCH  15  17
ATOM      5  O   UNL     1      11.884  11.336  25.243  0.00  0.00    -0.276 OA
ATOM      8  N   UNL     1      10.164  12.481  24.177  0.00  0.00    -0.315 N 
ATOM     17  C   UNL     1      11.001  11.394  24.391  0.00  0.00    +0.213 C 
ATOM     28  H   UNL     1       9.468  12.433  23.439  0.00  0.00    +0.149 HD
BRANCH   8  21
ATOM     21  C   UNL     1      10.238  13.699  24.951  0.00  0.00    +0.115 C 
BRANCH  21  25
ATOM     25  C   UNL     1       9.872  14.938  24.145  0.00  0.00    +0.087 C 
BRANCH  25   2
ATOM      2  S   UNL     1      10.547  14.885  22.458  0.00  0.00    -0.163 S 
ATOM     27  C   UNL     1       8.984  14.888  21.552  0.00  0.00    +0.084 C 
ENDBRANCH  25   2
ENDBRANCH  21  25
ENDBRANCH   8  21
ENDBRANCH  15  17
ENDBRANCH  10  15
TORSDOF 9
ENDMDL
MODEL 3
REMARK VINA RESULT:      -5.7      3.162      7.681
REMARK  Name = 11912463
REMARK  12 active torsions:
REMARK  status: ('A' for Active; 'I' for Inactive)
REMARK    1  A    between atoms: S_1  and  N_7
REMARK    2  A    between atoms: S_1  and  C_18
REMARK    3  A    between atoms: S_2  and  C_25
REMARK    4  A    between atoms: S_2  and  C_27
REMARK    5  A    between atoms: O_6  and  C_24
REMARK    6  A    between atoms: O_6  and  C_26
REMARK    7  A    between atoms: N_8  and  C_21
REMARK    8  A    between atoms: C_9  and  C_14
REMARK    9  A    between atoms: C_10  and  C_15
REMARK   10  A    between atoms: C_14  and  C_16
REMARK   11  A    between atoms: C_15  and  C_17
REMARK   12  A    between atoms: C_21  and  C_25
REMARK                            x       y       z     vdW  Elec       q    Type
REMARK                         _______ _______ _______ _____ _____    ______ ____
ROOT
ATOM      7  N   UNL     1      13.208   9.100  19.891  0.00  0.00    -0.176 NA
ATOM      9  C   UNL     1      12.158   8.549  22.075  0.00  0.00    +0.008 C 
ATOM     10  C   UNL     1      12.007  10.063  22.359  0.00  0.00    +0.003 C 
ATOM     11  C   UNL     1      11.955  10.877  21.057  0.00  0.00    +0.021 C 
ATOM     12  C   UNL     1      13.360   8.309  21.148  0.00  0.00    +0.113 C 
ATOM     13  C   UNL     1      13.146  10.566  20.157  0.00  0.00    +0.110 C 
ENDROOT
BRANCH   7   1
ATOM      1  S   UNL     1      14.236   8.633  18.602  0.00  0.00    +0.061 S 
ATOM      3  O   UNL     1      14.607   9.808  17.846  0.00  0.00    -0.153 OA
ATOM      4  O   UNL     1      13.672   7.472  17.950  0.00  0.00    -0.153 OA
BRANCH   1  18
ATOM     18  C   UNL     1      15.653   8.109  19.515  0.00  0.00    +0.106 A 
ATOM     19  C   UNL     1      16.090   6.786  19.427  0.00  0.00    +0.032 A 
ATOM     20  C   UNL     1      16.338   9.017  20.323  0.00  0.00    +0.032 A 
ATOM     22  C   UNL     1      17.210   6.372  20.147  0.00  0.00    +0.047 A 
ATOM     23  C   UNL     1      17.459   8.602  21.044  0.00  0.00    +0.047 A 
ATOM     24  C   UNL     1      17.895   7.280  20.955  0.00  0.00    +0.120 A 
BRANCH  24   6
ATOM      6  O   UNL     1      18.987   6.876  21.659  0.00  0.00    -0.495 OA
ATOM     26  C   UNL     1      19.548   7.812  22.579  0.00  0.00    +0.277 C 
ENDBRANCH  24   6
ENDBRANCH   1  18
ENDBRANCH   7   1
BRANCH   9  14
ATOM     14  C   UNL     1      10.896   7.891  21.502  0.00  0.00    +0.002 C 
ATOM     16  C   UNL     1      10.972   6.382  21.605  0.00  0.00    +0.004 C 
ENDBRANCH   9  14
BRANCH  10  15
ATOM     15  C   UNL     1      10.807  10.391  23.248  0.00  0.00    +0.099 C 
BRANCH  15  17
ATOM      5  O   UNL     1      10.305  12.152  24.829  0.00  0.00    -0.276 OA
ATOM      8  N   UNL     1      12.500  11.429  24.585  0.00  0.00    -0.315 N 
ATOM     17  C   UNL     1      11.142  11.423  24.304  0.00  0.00    +0.213 C 
ATOM     28  H   UNL     1      13.111  10.777  24.101  0.00  0.00    +0.149 HD
BRANCH   8  21
ATOM     21  C   UNL     1      13.102  12.317  25.553  0.00  0.00    +0.115 C 
BRANCH  21  25
ATOM     25  C   UNL     1      14.416  12.919  25.072  0.00  0.00    +0.087 C 
BRANCH  25   2
ATOM      2  S   UNL     1      14.528  12.961  23.258  0.00  0.00    -0.163 S 
ATOM     27  C   UNL     1      15.742  11.640  23.041  0.00  0.00    +0.084 C 
ENDBRANCH  25   2
ENDBRANCH  21  25
ENDBRANCH   8  21
ENDBRANCH  15  17
ENDBRANCH  10  15
TORSDOF 9
ENDMDL
MODEL 4
REMARK VINA RESULT:      -5.5      3.341      4.356
REMARK  Name = 11912463
REMARK  12 active torsions:
REMARK  status: ('A' for Active; 'I' for Inactive)
REMARK    1  A    between atoms: S_1  and  N_7
REMARK    2  A    between atoms: S_1  and  C_18
REMARK    3  A    between atoms: S_2  and  C_25
REMARK    4  A    between atoms: S_2  and  C_27
REMARK    5  A    between atoms: O_6  and  C_24
REMARK    6  A    between atoms: O_6  and  C_26
REMARK    7  A    between atoms: N_8  and  C_21
REMARK    8  A    between atoms: C_9  and  C_14
REMARK    9  A    between atoms: C_10  and  C_15
REMARK   10  A    between atoms: C_14  and  C_16
REMARK   11  A    between atoms: C_15  and  C_17
REMARK   12  A    between atoms: C_21  and  C_25
REMARK                            x       y       z     vdW  Elec       q    Type
REMARK                         _______ _______ _______ _____ _____    ______ ____
ROOT
ATOM      7  N   UNL     1      15.796   7.575  20.149  0.00  0.00    -0.176 NA
ATOM      9  C   UNL     1      17.879   7.797  21.486  0.00  0.00    +0.008 C 
ATOM     10  C   UNL     1      18.450   6.553  20.763  0.00  0.00    +0.003 C 
ATOM     11  C   UNL     1      17.803   6.359  19.384  0.00  0.00    +0.021 C 
ATOM     12  C   UNL     1      16.345   7.718  21.530  0.00  0.00    +0.113 C 
ATOM     13  C   UNL     1      16.281   6.333  19.481  0.00  0.00    +0.110 C 
ENDROOT
BRANCH   7   1
ATOM      1  S   UNL     1      14.119   7.885  19.991  0.00  0.00    +0.061 S 
ATOM      3  O   UNL     1      13.717   8.830  21.009  0.00  0.00    -0.153 OA
ATOM      4  O   UNL     1      13.424   6.627  19.823  0.00  0.00    -0.153 OA
BRANCH   1  18
ATOM     18  C   UNL     1      14.106   8.725  18.439  0.00  0.00    +0.106 A 
ATOM     19  C   UNL     1      13.551   8.109  17.317  0.00  0.00    +0.032 A 
ATOM     20  C   UNL     1      14.650  10.006  18.335  0.00  0.00    +0.032 A 
ATOM     22  C   UNL     1      13.540   8.774  16.091  0.00  0.00    +0.047 A 
ATOM     23  C   UNL     1      14.638  10.670  17.108  0.00  0.00    +0.047 A 
ATOM     24  C   UNL     1      14.083  10.054  15.986  0.00  0.00    +0.120 A 
BRANCH  24   6
ATOM      6  O   UNL     1      14.074  10.703  14.789  0.00  0.00    -0.495 OA
ATOM     26  C   UNL     1      14.982  11.793  14.636  0.00  0.00    +0.277 C 
ENDBRANCH  24   6
ENDBRANCH   1  18
ENDBRANCH   7   1
BRANCH   9  14
ATOM     14  C   UNL     1      18.333   9.134  20.885  0.00  0.00    +0.002 C 
ATOM     16  C   UNL     1      18.229  10.252  21.900  0.00  0.00    +0.004 C 
ENDBRANCH   9  14
BRANCH  10  15
ATOM     15  C   UNL     1      19.974   6.573  20.645  0.00  0.00    +0.099 C 
BRANCH  15  17
ATOM      5  O   UNL     1      20.758   5.555  22.695  0.00  0.00    -0.276 OA
ATOM      8  N   UNL     1      21.050   4.435  20.680  0.00  0.00    -0.315 N 
ATOM     17  C   UNL     1      20.627   5.489  21.476  0.00  0.00    +0.213 C 
ATOM     28  H   UNL     1      20.886   4.472  19.677  0.00  0.00    +0.149 HD
BRANCH   8  21
ATOM     21  C   UNL     1      21.710   3.262  21.207  0.00  0.00    +0.115 C 
BRANCH  21  25
ATOM     25  C   UNL     1      23.229   3.365  21.161  0.00  0.00    +0.087 C 
BRANCH  25   2
ATOM      2  S   UNL     1      24.024   2.386  22.470  0.00  0.00    -0.163 S 
ATOM     27  C   UNL     1      24.478   0.944  21.479  0.00  0.00    +0.084 C 
ENDBRANCH  25   2
ENDBRANCH  21  25
ENDBRANCH   8  21
ENDBRANCH  15  17
ENDBRANCH  10  15
TORSDOF 9
ENDMDL
MODEL 5
REMARK VINA RESULT:      -5.4     27.231     29.423
REMARK  Name = 11912463
REMARK  12 active torsions:
REMARK  status: ('A' for Active; 'I' for Inactive)
REMARK    1  A    between atoms: S_1  and  N_7
REMARK    2  A    between atoms: S_1  and  C_18
REMARK    3  A    between atoms: S_2  and  C_25
REMARK    4  A    between atoms: S_2  and  C_27
REMARK    5  A    between atoms: O_6  and  C_24
REMARK    6  A    between atoms: O_6  and  C_26
REMARK    7  A    between atoms: N_8  and  C_21
REMARK    8  A    between atoms: C_9  and  C_14
REMARK    9  A    between atoms: C_10  and  C_15
REMARK   10  A    between atoms: C_14  and  C_16
REMARK   11  A    between atoms: C_15  and  C_17
REMARK   12  A    between atoms: C_21  and  C_25
REMARK                            x       y       z     vdW  Elec       q    Type
REMARK                         _______ _______ _______ _____ _____    ______ ____
ROOT
ATOM      7  N   UNL     1      -7.316 -11.251  16.626  0.00  0.00    -0.176 NA
ATOM      9  C   UNL     1      -5.129 -11.812  17.666  0.00  0.00    +0.008 C 
ATOM     10  C   UNL     1      -4.418 -11.322  16.381  0.00  0.00    +0.003 C 
ATOM     11  C   UNL     1      -5.274 -10.298  15.621  0.00  0.00    +0.021 C 
ATOM     12  C   UNL     1      -6.538 -12.320  17.321  0.00  0.00    +0.113 C 
ATOM     13  C   UNL     1      -6.675 -10.837  15.346  0.00  0.00    +0.110 C 
ENDROOT
BRANCH   7   1
ATOM      1  S   UNL     1      -9.008 -11.510  16.548  0.00  0.00    +0.061 S 
ATOM      3  O   UNL     1      -9.475 -11.965  17.839  0.00  0.00    -0.153 OA
ATOM      4  O   UNL     1      -9.314 -12.247  15.341  0.00  0.00    -0.153 OA
BRANCH   1  18
ATOM     18  C   UNL     1      -9.563  -9.850  16.328  0.00  0.00    +0.106 A 
ATOM     19  C   UNL     1     -10.050  -9.435  15.087  0.00  0.00    +0.032 A 
ATOM     20  C   UNL     1      -9.516  -8.951  17.394  0.00  0.00    +0.032 A 
ATOM     22  C   UNL     1     -10.490  -8.123  14.913  0.00  0.00    +0.047 A 
ATOM     23  C   UNL     1      -9.956  -7.638  17.219  0.00  0.00    +0.047 A 
ATOM     24  C   UNL     1     -10.443  -7.225  15.979  0.00  0.00    +0.120 A 
BRANCH  24   6
ATOM      6  O   UNL     1     -10.870  -5.944  15.809  0.00  0.00    -0.495 OA
ATOM     26  C   UNL     1     -11.973  -5.740  14.927  0.00  0.00    +0.277 C 
ENDBRANCH  24   6
ENDBRANCH   1  18
ENDBRANCH   7   1
BRANCH   9  14
ATOM     14  C   UNL     1      -5.193 -10.765  18.785  0.00  0.00    +0.002 C 
ATOM     16  C   UNL     1      -5.999 -11.271  19.962  0.00  0.00    +0.004 C 
ENDBRANCH   9  14
BRANCH  10  15
ATOM     15  C   UNL     1      -3.019 -10.765  16.644  0.00  0.00    +0.099 C 
BRANCH  15  17
ATOM      5  O   UNL     1      -1.296 -10.140  15.064  0.00  0.00    -0.276 OA
ATOM      8  N   UNL     1      -2.244 -12.259  14.941  0.00  0.00    -0.315 N 
ATOM     17  C   UNL     1      -2.085 -10.988  15.474  0.00  0.00    +0.213 C 
ATOM     28  H   UNL     1      -2.920 -12.892  15.359  0.00  0.00    +0.149 HD
BRANCH   8  21
ATOM     21  C   UNL     1      -1.483 -12.743  13.812  0.00  0.00    +0.115 C 
BRANCH  21  25
ATOM     25  C   UNL     1      -2.355 -13.109  12.619  0.00  0.00    +0.087 C 
BRANCH  25   2
ATOM      2  S   UNL     1      -2.874 -11.645  11.673  0.00  0.00    -0.163 S 
ATOM     27  C   UNL     1      -4.602 -11.593  12.200  0.00  0.00    +0.084 C 
ENDBRANCH  25   2
ENDBRANCH  21  25
ENDBRANCH   8  21
ENDBRANCH  15  17
ENDBRANCH  10  15
TORSDOF 9
ENDMDL
MODEL 6
REMARK VINA RESULT:      -5.4     27.423     30.194
REMARK  Name = 11912463
REMARK  12 active torsions:
REMARK  status: ('A' for Active; 'I' for Inactive)
REMARK    1  A    between atoms: S_1  and  N_7
REMARK    2  A    between atoms: S_1  and  C_18
REMARK    3  A    between atoms: S_2  and  C_25
REMARK    4  A    between atoms: S_2  and  C_27
REMARK    5  A    between atoms: O_6  and  C_24
REMARK    6  A    between atoms: O_6  and  C_26
REMARK    7  A    between atoms: N_8  and  C_21
REMARK    8  A    between atoms: C_9  and  C_14
REMARK    9  A    between atoms: C_10  and  C_15
REMARK   10  A    between atoms: C_14  and  C_16
REMARK   11  A    between atoms: C_15  and  C_17
REMARK   12  A    between atoms: C_21  and  C_25
REMARK                            x       y       z     vdW  Elec       q    Type
REMARK                         _______ _______ _______ _____ _____    ______ ____
ROOT
ATOM      7  N   UNL     1      -3.759 -11.565  15.455  0.00  0.00    -0.176 NA
ATOM      9  C   UNL     1      -5.966 -12.179  16.420  0.00  0.00    +0.008 C 
ATOM     10  C   UNL     1      -5.691 -11.218  17.603  0.00  0.00    +0.003 C 
ATOM     11  C   UNL     1      -4.707 -10.108  17.207  0.00  0.00    +0.021 C 
ATOM     12  C   UNL     1      -4.637 -12.705  15.855  0.00  0.00    +0.113 C 
ATOM     13  C   UNL     1      -3.426 -10.684  16.611  0.00  0.00    +0.110 C 
ENDROOT
BRANCH   7   1
ATOM      1  S   UNL     1      -2.439 -11.976  14.444  0.00  0.00    +0.061 S 
ATOM      3  O   UNL     1      -2.530 -13.377  14.097  0.00  0.00    -0.153 OA
ATOM      4  O   UNL     1      -1.227 -11.422  15.007  0.00  0.00    -0.153 OA
BRANCH   1  18
ATOM     18  C   UNL     1      -2.850 -11.037  13.007  0.00  0.00    +0.106 A 
ATOM     19  C   UNL     1      -4.186 -10.764  12.710  0.00  0.00    +0.032 A 
ATOM     20  C   UNL     1      -1.839 -10.567  12.168  0.00  0.00    +0.032 A 
ATOM     22  C   UNL     1      -4.510 -10.021  11.575  0.00  0.00    +0.047 A 
ATOM     23  C   UNL     1      -2.164  -9.824  11.032  0.00  0.00    +0.047 A 
ATOM     24  C   UNL     1      -3.500  -9.551  10.736  0.00  0.00    +0.120 A 
BRANCH  24   6
ATOM      6  O   UNL     1      -3.816  -8.828   9.627  0.00  0.00    -0.495 OA
ATOM     26  C   UNL     1      -4.694  -9.439   8.683  0.00  0.00    +0.277 C 
ENDBRANCH  24   6
ENDBRANCH   1  18
ENDBRANCH   7   1
BRANCH   9  14
ATOM     14  C   UNL     1      -6.822 -11.568  15.304  0.00  0.00    +0.002 C 
ATOM     16  C   UNL     1      -7.174 -12.604  14.257  0.00  0.00    +0.004 C 
ENDBRANCH   9  14
BRANCH  10  15
ATOM     15  C   UNL     1      -6.966 -10.622  18.200  0.00  0.00    +0.099 C 
BRANCH  15  17
ATOM      5  O   UNL     1      -6.950 -11.839  20.291  0.00  0.00    -0.276 OA
ATOM      8  N   UNL     1      -8.861 -11.867  18.968  0.00  0.00    -0.315 N 
ATOM     17  C   UNL     1      -7.559 -11.502  19.279  0.00  0.00    +0.213 C 
ATOM     28  H   UNL     1      -9.280 -11.526  18.107  0.00  0.00    +0.149 HD
BRANCH   8  21
ATOM     21  C   UNL     1      -9.670 -12.709  19.819  0.00  0.00    +0.115 C 
BRANCH  21  25
ATOM     25  C   UNL     1     -10.901 -11.996  20.364  0.00  0.00    +0.087 C 
BRANCH  25   2
ATOM      2  S   UNL     1     -11.119 -10.346  19.632  0.00  0.00    -0.163 S 
ATOM     27  C   UNL     1     -12.592  -9.845  20.552  0.00  0.00    +0.084 C 
ENDBRANCH  25   2
ENDBRANCH  21  25
ENDBRANCH   8  21
ENDBRANCH  15  17
ENDBRANCH  10  15
TORSDOF 9
ENDMDL
MODEL 7
REMARK VINA RESULT:      -5.3      1.701      2.094
REMARK  Name = 11912463
REMARK  12 active torsions:
REMARK  status: ('A' for Active; 'I' for Inactive)
REMARK    1  A    between atoms: S_1  and  N_7
REMARK    2  A    between atoms: S_1  and  C_18
REMARK    3  A    between atoms: S_2  and  C_25
REMARK    4  A    between atoms: S_2  and  C_27
REMARK    5  A    between atoms: O_6  and  C_24
REMARK    6  A    between atoms: O_6  and  C_26
REMARK    7  A    between atoms: N_8  and  C_21
REMARK    8  A    between atoms: C_9  and  C_14
REMARK    9  A    between atoms: C_10  and  C_15
REMARK   10  A    between atoms: C_14  and  C_16
REMARK   11  A    between atoms: C_15  and  C_17
REMARK   12  A    between atoms: C_21  and  C_25
REMARK                            x       y       z     vdW  Elec       q    Type
REMARK                         _______ _______ _______ _____ _____    ______ ____
ROOT
ATOM      7  N   UNL     1      15.143   7.513  20.077  0.00  0.00    -0.176 NA
ATOM      9  C   UNL     1      16.986   8.221  21.586  0.00  0.00    +0.008 C 
ATOM     10  C   UNL     1      17.822   7.015  21.095  0.00  0.00    +0.003 C 
ATOM     11  C   UNL     1      17.388   6.565  19.692  0.00  0.00    +0.021 C 
ATOM     12  C   UNL     1      15.488   7.897  21.478  0.00  0.00    +0.113 C 
ATOM     13  C   UNL     1      15.887   6.301  19.631  0.00  0.00    +0.110 C 
ENDROOT
BRANCH   7   1
ATOM      1  S   UNL     1      13.471   7.525  19.704  0.00  0.00    +0.061 S 
ATOM      3  O   UNL     1      12.762   6.749  20.697  0.00  0.00    -0.153 OA
ATOM      4  O   UNL     1      13.304   7.262  18.291  0.00  0.00    -0.153 OA
BRANCH   1  18
ATOM     18  C   UNL     1      13.105   9.228  19.988  0.00  0.00    +0.106 A 
ATOM     19  C   UNL     1      12.188   9.589  20.976  0.00  0.00    +0.032 A 
ATOM     20  C   UNL     1      13.732  10.213  19.225  0.00  0.00    +0.032 A 
ATOM     22  C   UNL     1      11.900  10.935  21.202  0.00  0.00    +0.047 A 
ATOM     23  C   UNL     1      13.443  11.560  19.451  0.00  0.00    +0.047 A 
ATOM     24  C   UNL     1      12.528  11.920  20.439  0.00  0.00    +0.120 A 
BRANCH  24   6
ATOM      6  O   UNL     1      12.245  13.234  20.658  0.00  0.00    -0.495 OA
ATOM     26  C   UNL     1      12.459  14.132  19.570  0.00  0.00    +0.277 C 
ENDBRANCH  24   6
ENDBRANCH   1  18
ENDBRANCH   7   1
BRANCH   9  14
ATOM     14  C   UNL     1      17.306   9.538  20.868  0.00  0.00    +0.002 C 
ATOM     16  C   UNL     1      16.752  10.724  21.628  0.00  0.00    +0.004 C 
ENDBRANCH   9  14
BRANCH  10  15
ATOM     15  C   UNL     1      19.329   7.270  21.138  0.00  0.00    +0.099 C 
BRANCH  15  17
ATOM      5  O   UNL     1      19.897   6.301  23.280  0.00  0.00    -0.276 OA
ATOM      8  N   UNL     1      20.883   5.462  21.350  0.00  0.00    -0.315 N 
ATOM     17  C   UNL     1      20.047   6.310  22.061  0.00  0.00    +0.213 C 
ATOM     28  H   UNL     1      20.930   5.544  20.338  0.00  0.00    +0.149 HD
BRANCH   8  21
ATOM     21  C   UNL     1      21.695   4.444  21.978  0.00  0.00    +0.115 C 
BRANCH  21  25
ATOM     25  C   UNL     1      23.154   4.855  22.126  0.00  0.00    +0.087 C 
BRANCH  25   2
ATOM      2  S   UNL     1      24.267   3.420  22.210  0.00  0.00    -0.163 S 
ATOM     27  C   UNL     1      23.454   2.386  20.971  0.00  0.00    +0.084 C 
ENDBRANCH  25   2
ENDBRANCH  21  25
ENDBRANCH   8  21
ENDBRANCH  15  17
ENDBRANCH  10  15
TORSDOF 9
ENDMDL
MODEL 8
REMARK VINA RESULT:      -5.2      2.457      9.533
REMARK  Name = 11912463
REMARK  12 active torsions:
REMARK  status: ('A' for Active; 'I' for Inactive)
REMARK    1  A    between atoms: S_1  and  N_7
REMARK    2  A    between atoms: S_1  and  C_18
REMARK    3  A    between atoms: S_2  and  C_25
REMARK    4  A    between atoms: S_2  and  C_27
REMARK    5  A    between atoms: O_6  and  C_24
REMARK    6  A    between atoms: O_6  and  C_26
REMARK    7  A    between atoms: N_8  and  C_21
REMARK    8  A    between atoms: C_9  and  C_14
REMARK    9  A    between atoms: C_10  and  C_15
REMARK   10  A    between atoms: C_14  and  C_16
REMARK   11  A    between atoms: C_15  and  C_17
REMARK   12  A    between atoms: C_21  and  C_25
REMARK                            x       y       z     vdW  Elec       q    Type
REMARK                         _______ _______ _______ _____ _____    ______ ____
ROOT
ATOM      7  N   UNL     1      18.964   8.102  21.633  0.00  0.00    -0.176 NA
ATOM      9  C   UNL     1      17.201   6.555  20.810  0.00  0.00    +0.008 C 
ATOM     10  C   UNL     1      16.232   7.757  20.696  0.00  0.00    +0.003 C 
ATOM     11  C   UNL     1      16.993   9.078  20.515  0.00  0.00    +0.021 C 
ATOM     12  C   UNL     1      18.240   6.825  21.909  0.00  0.00    +0.113 C 
ATOM     13  C   UNL     1      18.041   9.272  21.606  0.00  0.00    +0.110 C 
ENDROOT
BRANCH   7   1
ATOM      1  S   UNL     1      20.411   8.330  22.521  0.00  0.00    +0.061 S 
ATOM      3  O   UNL     1      20.132   8.159  23.930  0.00  0.00    -0.153 OA
ATOM      4  O   UNL     1      21.079   9.517  22.031  0.00  0.00    -0.153 OA
BRANCH   1  18
ATOM     18  C   UNL     1      21.330   6.925  21.978  0.00  0.00    +0.106 A 
ATOM     19  C   UNL     1      21.500   5.831  22.829  0.00  0.00    +0.032 A 
ATOM     20  C   UNL     1      21.886   6.906  20.699  0.00  0.00    +0.032 A 
ATOM     22  C   UNL     1      22.224   4.720  22.399  0.00  0.00    +0.047 A 
ATOM     23  C   UNL     1      22.612   5.794  20.270  0.00  0.00    +0.047 A 
ATOM     24  C   UNL     1      22.780   4.701  21.120  0.00  0.00    +0.120 A 
BRANCH  24   6
ATOM      6  O   UNL     1      23.489   3.617  20.701  0.00  0.00    -0.495 OA
ATOM     26  C   UNL     1      24.604   3.863  19.845  0.00  0.00    +0.277 C 
ENDBRANCH  24   6
ENDBRANCH   1  18
ENDBRANCH   7   1
BRANCH   9  14
ATOM     14  C   UNL     1      17.894   6.184  19.492  0.00  0.00    +0.002 C 
ATOM     16  C   UNL     1      18.903   5.075  19.700  0.00  0.00    +0.004 C 
ENDBRANCH   9  14
BRANCH  10  15
ATOM     15  C   UNL     1      15.184   7.582  19.596  0.00  0.00    +0.099 C 
BRANCH  15  17
ATOM      5  O   UNL     1      13.296   6.677  20.806  0.00  0.00    -0.276 OA
ATOM      8  N   UNL     1      13.108   8.759  19.790  0.00  0.00    -0.315 N 
ATOM     17  C   UNL     1      13.773   7.593  20.142  0.00  0.00    +0.213 C 
ATOM     28  H   UNL     1      13.596   9.463  19.243  0.00  0.00    +0.149 HD
BRANCH   8  21
ATOM     21  C   UNL     1      11.743   9.036  20.174  0.00  0.00    +0.115 C 
BRANCH  21  25
ATOM     25  C   UNL     1      11.622  10.218  21.128  0.00  0.00    +0.087 C 
BRANCH  25   2
ATOM      2  S   UNL     1      10.978   9.725  22.754  0.00  0.00    -0.163 S 
ATOM     27  C   UNL     1      10.558   8.012  22.360  0.00  0.00    +0.084 C 
ENDBRANCH  25   2
ENDBRANCH  21  25
ENDBRANCH   8  21
ENDBRANCH  15  17
ENDBRANCH  10  15
TORSDOF 9
ENDMDL
MODEL 9
REMARK VINA RESULT:      -5.2     27.418     30.200
REMARK  Name = 11912463
REMARK  12 active torsions:
REMARK  status: ('A' for Active; 'I' for Inactive)
REMARK    1  A    between atoms: S_1  and  N_7
REMARK    2  A    between atoms: S_1  and  C_18
REMARK    3  A    between atoms: S_2  and  C_25
REMARK    4  A    between atoms: S_2  and  C_27
REMARK    5  A    between atoms: O_6  and  C_24
REMARK    6  A    between atoms: O_6  and  C_26
REMARK    7  A    between atoms: N_8  and  C_21
REMARK    8  A    between atoms: C_9  and  C_14
REMARK    9  A    between atoms: C_10  and  C_15
REMARK   10  A    between atoms: C_14  and  C_16
REMARK   11  A    between atoms: C_15  and  C_17
REMARK   12  A    between atoms: C_21  and  C_25
REMARK                            x       y       z     vdW  Elec       q    Type
REMARK                         _______ _______ _______ _____ _____    ______ ____
ROOT
ATOM      7  N   UNL     1      -3.931 -11.477  15.469  0.00  0.00    -0.176 NA
ATOM      9  C   UNL     1      -6.174 -12.051  16.373  0.00  0.00    +0.008 C 
ATOM     10  C   UNL     1      -5.961 -11.011  17.501  0.00  0.00    +0.003 C 
ATOM     11  C   UNL     1      -4.968  -9.918  17.077  0.00  0.00    +0.021 C 
ATOM     12  C   UNL     1      -4.817 -12.598  15.904  0.00  0.00    +0.113 C 
ATOM     13  C   UNL     1      -3.658 -10.519  16.578  0.00  0.00    +0.110 C 
ENDROOT
BRANCH   7   1
ATOM      1  S   UNL     1      -2.564 -11.939  14.546  0.00  0.00    +0.061 S 
ATOM      3  O   UNL     1      -2.658 -13.349  14.238  0.00  0.00    -0.153 OA
ATOM      4  O   UNL     1      -1.376 -11.387  15.160  0.00  0.00    -0.153 OA
BRANCH   1  18
ATOM     18  C   UNL     1      -2.877 -11.039  13.061  0.00  0.00    +0.106 A 
ATOM     19  C   UNL     1      -4.191 -10.796  12.656  0.00  0.00    +0.032 A 
ATOM     20  C   UNL     1      -1.812 -10.570  12.291  0.00  0.00    +0.032 A 
ATOM     22  C   UNL     1      -4.439 -10.083  11.484  0.00  0.00    +0.047 A 
ATOM     23  C   UNL     1      -2.061  -9.858  11.117  0.00  0.00    +0.047 A 
ATOM     24  C   UNL     1      -3.374  -9.615  10.714  0.00  0.00    +0.120 A 
BRANCH  24   6
ATOM      6  O   UNL     1      -3.615  -8.921   9.568  0.00  0.00    -0.495 OA
ATOM     26  C   UNL     1      -4.647  -9.416   8.716  0.00  0.00    +0.277 C 
ENDBRANCH  24   6
ENDBRANCH   1  18
ENDBRANCH   7   1
BRANCH   9  14
ATOM     14  C   UNL     1      -6.984 -11.524  15.182  0.00  0.00    +0.002 C 
ATOM     16  C   UNL     1      -7.192 -12.606  14.143  0.00  0.00    +0.004 C 
ENDBRANCH   9  14
BRANCH  10  15
ATOM     15  C   UNL     1      -7.265 -10.391  18.000  0.00  0.00    +0.099 C 
BRANCH  15  17
ATOM      5  O   UNL     1      -7.124 -11.551  20.119  0.00  0.00    -0.276 OA
ATOM      8  N   UNL     1      -9.203 -11.229  19.130  0.00  0.00    -0.315 N 
ATOM     17  C   UNL     1      -7.822 -11.119  19.205  0.00  0.00    +0.213 C 
ATOM     28  H   UNL     1      -9.690 -10.828  18.334  0.00  0.00    +0.149 HD
BRANCH   8  21
ATOM     21  C   UNL     1      -9.999 -11.881  20.144  0.00  0.00    +0.115 C 
BRANCH  21  25
ATOM     25  C   UNL     1     -10.093 -13.388  19.948  0.00  0.00    +0.087 C 
BRANCH  25   2
ATOM      2  S   UNL     1     -10.314 -13.841  18.201  0.00  0.00    -0.163 S 
ATOM     27  C   UNL     1      -8.690 -14.582  17.916  0.00  0.00    +0.084 C 
ENDBRANCH  25   2
ENDBRANCH  21  25
ENDBRANCH   8  21
ENDBRANCH  15  17
ENDBRANCH  10  15
TORSDOF 9
ENDMDL
MODEL 10
REMARK VINA RESULT:      -5.2     27.442     29.882
REMARK  Name = 11912463
REMARK  12 active torsions:
REMARK  status: ('A' for Active; 'I' for Inactive)
REMARK    1  A    between atoms: S_1  and  N_7
REMARK    2  A    between atoms: S_1  and  C_18
REMARK    3  A    between atoms: S_2  and  C_25
REMARK    4  A    between atoms: S_2  and  C_27
REMARK    5  A    between atoms: O_6  and  C_24
REMARK    6  A    between atoms: O_6  and  C_26
REMARK    7  A    between atoms: N_8  and  C_21
REMARK    8  A    between atoms: C_9  and  C_14
REMARK    9  A    between atoms: C_10  and  C_15
REMARK   10  A    between atoms: C_14  and  C_16
REMARK   11  A    between atoms: C_15  and  C_17
REMARK   12  A    between atoms: C_21  and  C_25
REMARK                            x       y       z     vdW  Elec       q    Type
REMARK                         _______ _______ _______ _____ _____    ______ ____
ROOT
ATOM      7  N   UNL     1      -3.014 -11.231  12.610  0.00  0.00    -0.176 NA
ATOM      9  C   UNL     1      -3.575 -10.240  10.401  0.00  0.00    +0.008 C 
ATOM     10  C   UNL     1      -3.792 -11.666   9.841  0.00  0.00    +0.003 C 
ATOM     11  C   UNL     1      -4.161 -12.657  10.956  0.00  0.00    +0.021 C 
ATOM     12  C   UNL     1      -2.558 -10.280  11.553  0.00  0.00    +0.113 C 
ATOM     13  C   UNL     1      -3.143 -12.622  12.092  0.00  0.00    +0.110 C 
ENDROOT
BRANCH   7   1
ATOM      1  S   UNL     1      -2.218 -11.083  14.120  0.00  0.00    +0.061 S 
ATOM      3  O   UNL     1      -1.387  -9.900  14.102  0.00  0.00    -0.153 OA
ATOM      4  O   UNL     1      -1.674 -12.372  14.491  0.00  0.00    -0.153 OA
BRANCH   1  18
ATOM     18  C   UNL     1      -3.602 -10.755  15.166  0.00  0.00    +0.106 A 
ATOM     19  C   UNL     1      -3.463 -10.836  16.552  0.00  0.00    +0.032 A 
ATOM     20  C   UNL     1      -4.833 -10.414  14.607  0.00  0.00    +0.032 A 
ATOM     22  C   UNL     1      -4.556 -10.575  17.378  0.00  0.00    +0.047 A 
ATOM     23  C   UNL     1      -5.927 -10.154  15.434  0.00  0.00    +0.047 A 
ATOM     24  C   UNL     1      -5.788 -10.234  16.819  0.00  0.00    +0.120 A 
BRANCH  24   6
ATOM      6  O   UNL     1      -6.855  -9.982  17.625  0.00  0.00    -0.495 OA
ATOM     26  C   UNL     1      -6.780 -10.457  18.969  0.00  0.00    +0.277 C 
ENDBRANCH  24   6
ENDBRANCH   1  18
ENDBRANCH   7   1
BRANCH   9  14
ATOM     14  C   UNL     1      -4.865  -9.538  10.846  0.00  0.00    +0.002 C 
ATOM     16  C   UNL     1      -5.060  -8.233  10.103  0.00  0.00    +0.004 C 
ENDBRANCH   9  14
BRANCH  10  15
ATOM     15  C   UNL     1      -4.821 -11.718   8.711  0.00  0.00    +0.099 C 
BRANCH  15  17
ATOM      5  O   UNL     1      -5.807 -13.812   8.009  0.00  0.00    -0.276 OA
ATOM      8  N   UNL     1      -3.622 -13.316   7.391  0.00  0.00    -0.315 N 
ATOM     17  C   UNL     1      -4.836 -13.060   8.012  0.00  0.00    +0.213 C 
ATOM     28  H   UNL     1      -2.881 -12.622   7.445  0.00  0.00    +0.149 HD
BRANCH   8  21
ATOM     21  C   UNL     1      -3.354 -14.527   6.650  0.00  0.00    +0.115 C 
BRANCH  21  25
ATOM     25  C   UNL     1      -3.539 -14.359   5.148  0.00  0.00    +0.087 C 
BRANCH  25   2
ATOM      2  S   UNL     1      -3.157 -12.670   4.593  0.00  0.00    -0.163 S 
ATOM     27  C   UNL     1      -4.511 -12.471   3.413  0.00  0.00    +0.084 C 
ENDBRANCH  25   2
ENDBRANCH  21  25
ENDBRANCH   8  21
ENDBRANCH  15  17
ENDBRANCH  10  15
TORSDOF 9
ENDMDL
