REMARK  Name = 28961558
REMARK  7 active torsions:
REMARK  status: ('A' for Active; 'I' for Inactive)
REMARK    1  A    between atoms: O_4  and  C_12
REMARK    2  A    between atoms: O_5  and  C_19
REMARK    3  A    between atoms: N_7  and  C_10
REMARK    4  A    between atoms: N_8  and  C_18
REMARK    5  A    between atoms: N_9  and  C_21
REMARK    6  A    between atoms: C_11  and  C_18
REMARK    7  A    between atoms: C_13  and  C_19
REMARK                            x       y       z     vdW  Elec       q    Type
REMARK                         _______ _______ _______ _____ _____    ______ ____
ROOT
ATOM      3  O   UNL     1      -1.956   1.743   0.609  0.00  0.00    -0.365 OA
ATOM     10  C   UNL     1      -3.376  -0.167   0.609  0.00  0.00    +0.118 C 
ATOM     11  C   UNL     1      -1.924   0.305   0.466  0.00  0.00    +0.155 C 
ATOM     12  C   UNL     1      -4.177   1.050   0.174  0.00  0.00    +0.165 C 
ATOM     13  C   UNL     1      -3.324   2.171   0.756  0.00  0.00    +0.174 C 
ENDROOT
BRANCH  10   7
ATOM      7  N   UNL     1      -3.718  -1.409  -0.069  0.00  0.00    -0.295 NA
ATOM     14  C   UNL     1      -5.119  -1.783   0.124  0.00  0.00    +0.085 C 
ATOM     15  C   UNL     1      -2.949  -2.548   0.432  0.00  0.00    +0.085 C 
ATOM     16  C   UNL     1      -5.145  -3.240  -0.313  0.00  0.00    +0.017 C 
ATOM     17  C   UNL     1      -3.720  -3.744  -0.107  0.00  0.00    +0.017 C 
ENDBRANCH  10   7
BRANCH  12   4
ATOM      4  O   UNL     1      -4.236   1.157  -1.242  0.00  0.00    -0.388 OA
ATOM     27  H   UNL     1      -4.845   1.884  -1.457  0.00  0.00    +0.210 HD
ENDBRANCH  12   4
BRANCH  11  18
ATOM     18  C   UNL     1      -1.232  -0.002  -0.858  0.00  0.00    +0.139 C 
BRANCH  18   8
ATOM      6  O   UNL     1       1.116  -1.409  -0.014  0.00  0.00    -0.253 OA
ATOM      8  N   UNL     1       0.112   0.494  -0.864  0.00  0.00    -0.297 N 
ATOM      9  N   UNL     1       2.397   0.483  -0.553  0.00  0.00    -0.267 N 
ATOM     20  C   UNL     1       1.218  -0.258  -0.433  0.00  0.00    +0.304 C 
ATOM     28  H   UNL     1       0.271   1.444  -1.185  0.00  0.00    +0.150 HD
ATOM     30  H   UNL     1       2.309   1.427  -0.920  0.00  0.00    +0.156 HD
BRANCH   9  21
ATOM      1  F   UNL     1       4.573   2.189  -0.902  0.00  0.00    -0.203 F 
ATOM      2  F   UNL     1       7.550  -1.105   0.734  0.00  0.00    -0.205 F 
ATOM     21  C   UNL     1       3.713   0.080  -0.226  0.00  0.00    +0.070 A 
ATOM     22  C   UNL     1       4.781   0.958  -0.412  0.00  0.00    +0.147 A 
ATOM     23  C   UNL     1       3.941  -1.198   0.284  0.00  0.00    +0.029 A 
ATOM     24  C   UNL     1       6.077   0.558  -0.088  0.00  0.00    +0.078 A 
ATOM     25  C   UNL     1       5.237  -1.598   0.608  0.00  0.00    +0.040 A 
ATOM     26  C   UNL     1       6.306  -0.720   0.422  0.00  0.00    +0.126 A 
ENDBRANCH   9  21
ENDBRANCH  18   8
ENDBRANCH  11  18
BRANCH  13  19
ATOM     19  C   UNL     1      -3.496   3.530   0.104  0.00  0.00    +0.190 C 
BRANCH  19   5
ATOM      5  O   UNL     1      -2.651   4.463   0.757  0.00  0.00    -0.392 OA
ATOM     29  H   UNL     1      -2.784   5.323   0.323  0.00  0.00    +0.210 HD
ENDBRANCH  19   5
ENDBRANCH  13  19
TORSDOF 7
