REMARK  Name = 51138127
REMARK  11 active torsions:
REMARK  status: ('A' for Active; 'I' for Inactive)
REMARK    1  A    between atoms: O_2  and  C_31
REMARK    2  A    between atoms: O_2  and  C_32
REMARK    3  A    between atoms: N_4  and  C_22
REMARK    4  A    between atoms: N_5  and  C_24
REMARK    5  A    between atoms: C_6  and  C_10
REMARK    6  A    between atoms: C_8  and  C_17
REMARK    7  A    between atoms: C_10  and  C_14
REMARK    8  A    between atoms: C_14  and  C_20
REMARK    9  A    between atoms: C_14  and  C_21
REMARK   10  A    between atoms: C_22  and  C_23
REMARK   11  A    between atoms: C_24  and  C_25
REMARK                            x       y       z     vdW  Elec       q    Type
REMARK                         _______ _______ _______ _____ _____    ______ ____
ROOT
ATOM      3  N   UNL     1       0.073  -0.162  -0.177  0.00  0.00    -0.299 NA
ATOM      4  N   UNL     1       4.971   1.063  -0.071  0.00  0.00    -0.343 N 
ATOM      6  C   UNL     1       0.747  -1.276   0.504  0.00  0.00    +0.085 C 
ATOM      7  C   UNL     1       2.278  -1.232   0.503  0.00  0.00    -0.021 A 
ATOM      8  C   UNL     1       0.292   1.143   0.429  0.00  0.00    +0.145 C 
ATOM      9  C   UNL     1       3.066  -0.080   0.214  0.00  0.00    +0.008 A 
ATOM     11  C   UNL     1       1.411   1.908  -0.274  0.00  0.00    +0.065 C 
ATOM     12  C   UNL     1       2.758   1.283  -0.123  0.00  0.00    -0.020 A 
ATOM     13  C   UNL     1       4.462  -0.171   0.261  0.00  0.00    +0.050 A 
ATOM     15  C   UNL     1       3.957   1.945  -0.298  0.00  0.00    +0.090 A 
ATOM     16  C   UNL     1       2.990  -2.396   0.891  0.00  0.00    +0.006 A 
ATOM     18  C   UNL     1       5.146  -1.339   0.600  0.00  0.00    +0.026 A 
ATOM     19  C   UNL     1       4.382  -2.452   0.929  0.00  0.00    +0.002 A 
ATOM     33  H   UNL     1       0.302  -0.150  -1.170  0.00  0.00    +0.123 HD
ENDROOT
BRANCH   8  17
ATOM      1  O   UNL     1      -1.210   2.580  -0.743  0.00  0.00    -0.274 OA
ATOM      5  N   UNL     1      -1.865   1.697   1.309  0.00  0.00    -0.310 N 
ATOM     17  C   UNL     1      -0.998   1.883   0.246  0.00  0.00    +0.231 C 
ATOM     34  H   UNL     1      -1.598   1.076   2.067  0.00  0.00    +0.149 HD
BRANCH   5  24
ATOM     24  C   UNL     1      -3.167   2.320   1.386  0.00  0.00    +0.139 C 
BRANCH  24  25
ATOM     25  C   UNL     1      -4.235   1.467   0.765  0.00  0.00    -0.030 A 
ATOM     27  C   UNL     1      -4.338   1.378  -0.623  0.00  0.00    +0.009 A 
ATOM     28  C   UNL     1      -5.125   0.764   1.577  0.00  0.00    +0.009 A 
ATOM     29  C   UNL     1      -5.331   0.585  -1.199  0.00  0.00    +0.046 A 
ATOM     30  C   UNL     1      -6.118  -0.029   1.001  0.00  0.00    +0.046 A 
ATOM     31  C   UNL     1      -6.221  -0.118  -0.387  0.00  0.00    +0.120 A 
BRANCH  31   2
ATOM      2  O   UNL     1      -7.189  -0.892  -0.950  0.00  0.00    -0.495 OA
ATOM     32  C   UNL     1      -7.236  -0.938  -2.375  0.00  0.00    +0.277 C 
ENDBRANCH  31   2
ENDBRANCH  24  25
ENDBRANCH   5  24
ENDBRANCH   8  17
BRANCH   6  10
ATOM     10  C   UNL     1       0.192  -2.540  -0.176  0.00  0.00    +0.026 C 
BRANCH  10  14
ATOM     14  C   UNL     1      -1.224  -2.896   0.286  0.00  0.00    -0.015 C 
ATOM     20  C   UNL     1      -1.668  -4.191  -0.397  0.00  0.00    +0.007 C 
ATOM     21  C   UNL     1      -2.235  -1.785  -0.005  0.00  0.00    +0.007 C 
ENDBRANCH  10  14
ENDBRANCH   6  10
BRANCH   4  22
ATOM     22  C   UNL     1       6.376   1.400  -0.152  0.00  0.00    +0.148 C 
BRANCH  22  23
ATOM     23  C   UNL     1       7.001   0.948  -1.439  0.00  0.00    -0.013 C 
ATOM     26  C   UNL     1       8.058   0.132  -1.509  0.00  0.00    +0.005 C 
ENDBRANCH  22  23
ENDBRANCH   4  22
TORSDOF 8
