MODEL 1
REMARK VINA RESULT:      -7.3      0.000      0.000
REMARK  Name = 11882600
REMARK  11 active torsions:
REMARK  status: ('A' for Active; 'I' for Inactive)
REMARK    1  A    between atoms: S_1  and  N_8
REMARK    2  A    between atoms: S_1  and  C_28
REMARK    3  A    between atoms: O_7  and  C_35
REMARK    4  A    between atoms: O_7  and  C_40
REMARK    5  A    between atoms: N_9  and  C_25
REMARK    6  A    between atoms: N_10  and  C_19
REMARK    7  A    between atoms: C_13  and  C_17
REMARK    8  A    between atoms: C_14  and  C_26
REMARK    9  A    between atoms: C_17  and  C_25
REMARK   10  A    between atoms: C_25  and  C_27
REMARK   11  A    between atoms: C_29  and  C_32
REMARK                            x       y       z     vdW  Elec       q    Type
REMARK                         _______ _______ _______ _____ _____    ______ ____
ROOT
ATOM      8  N   UNL     1      -5.062 -10.497  10.438  0.00  0.00    -0.165 NA
ATOM     14  C   UNL     1      -5.044  -9.440   9.390  0.00  0.00    +0.167 C 
ATOM     18  C   UNL     1      -4.543  -9.977   8.052  0.00  0.00    +0.052 C 
ATOM     19  C   UNL     1      -5.226 -11.284   7.627  0.00  0.00    +0.076 C 
ATOM     22  C   UNL     1      -5.184 -12.315   8.755  0.00  0.00    +0.039 C 
ATOM     23  C   UNL     1      -5.775 -11.745  10.037  0.00  0.00    +0.112 C 
ENDROOT
BRANCH  14  26
ATOM      2  O   UNL     1      -7.164  -8.826  10.288  0.00  0.00    -0.274 OA
ATOM      9  N   UNL     1      -6.731  -8.422   8.037  0.00  0.00    -0.303 N 
ATOM     26  C   UNL     1      -6.421  -8.864   9.311  0.00  0.00    +0.233 C 
ATOM     41  H   UNL     1      -6.058  -8.569   7.291  0.00  0.00    +0.149 HD
BRANCH   9  25
ATOM     25  C   UNL     1      -8.009  -7.842   7.691  0.00  0.00    +0.159 C 
BRANCH  25  27
ATOM      5  O   UNL     1      -9.379  -8.558   5.814  0.00  0.00    -0.274 OA
ATOM     11  N   UNL     1      -7.210  -7.918   5.408  0.00  0.00    -0.328 N 
ATOM     27  C   UNL     1      -8.299  -8.138   6.225  0.00  0.00    +0.231 C 
ATOM     43  H   UNL     1      -7.268  -8.085   4.408  0.00  0.00    +0.145 HD
ATOM     44  H   UNL     1      -6.318  -7.591   5.763  0.00  0.00    +0.145 HD
ENDBRANCH  25  27
BRANCH  25  17
ATOM     17  C   UNL     1      -8.074  -6.347   8.017  0.00  0.00    +0.035 C 
BRANCH  17  13
ATOM     13  C   UNL     1      -9.490  -5.812   8.227  0.00  0.00    -0.009 C 
ATOM     15  C   UNL     1     -10.291  -6.746   9.144  0.00  0.00    +0.003 C 
ATOM     16  C   UNL     1      -9.454  -4.388   8.795  0.00  0.00    +0.003 C 
ATOM     20  C   UNL     1     -11.694  -6.206   9.411  0.00  0.00    +0.000 C 
ATOM     21  C   UNL     1     -10.858  -3.852   9.063  0.00  0.00    +0.000 C 
ATOM     24  C   UNL     1     -11.654  -4.787   9.968  0.00  0.00    +0.000 C 
ENDBRANCH  17  13
ENDBRANCH  25  17
ENDBRANCH   9  25
ENDBRANCH  14  26
BRANCH  19  10
ATOM      6  O   UNL     1      -6.098 -10.860   4.925  0.00  0.00    -0.270 OA
ATOM     10  N   UNL     1      -4.615 -11.814   6.432  0.00  0.00    -0.308 N 
ATOM     29  C   UNL     1      -5.112 -11.552   5.164  0.00  0.00    +0.244 C 
ATOM     42  H   UNL     1      -3.864 -12.485   6.557  0.00  0.00    +0.149 HD
BRANCH  29  32
ATOM     12  N   UNL     1      -3.021 -13.404   1.919  0.00  0.00    -0.263 NA
ATOM     32  C   UNL     1      -4.386 -12.195   4.038  0.00  0.00    +0.040 A 
ATOM     36  C   UNL     1      -5.074 -12.577   2.891  0.00  0.00    +0.033 A 
ATOM     37  C   UNL     1      -3.016 -12.416   4.125  0.00  0.00    +0.033 A 
ATOM     38  C   UNL     1      -4.352 -13.172   1.869  0.00  0.00    +0.111 A 
ATOM     39  C   UNL     1      -2.386 -13.019   3.048  0.00  0.00    +0.111 A 
ENDBRANCH  29  32
ENDBRANCH  19  10
BRANCH   8   1
ATOM      1  S   UNL     1      -3.616 -10.706  11.332  0.00  0.00    +0.062 S 
ATOM      3  O   UNL     1      -2.743  -9.588  11.061  0.00  0.00    -0.153 OA
ATOM      4  O   UNL     1      -3.171 -12.068  11.171  0.00  0.00    -0.153 OA
BRANCH   1  28
ATOM     28  C   UNL     1      -4.249 -10.522  12.967  0.00  0.00    +0.106 A 
ATOM     30  C   UNL     1      -3.443 -10.822  14.066  0.00  0.00    +0.032 A 
ATOM     31  C   UNL     1      -5.555 -10.075  13.163  0.00  0.00    +0.032 A 
ATOM     33  C   UNL     1      -3.944 -10.675  15.359  0.00  0.00    +0.047 A 
ATOM     34  C   UNL     1      -6.056  -9.927  14.457  0.00  0.00    +0.047 A 
ATOM     35  C   UNL     1      -5.250 -10.228  15.555  0.00  0.00    +0.120 A 
BRANCH  35   7
ATOM      7  O   UNL     1      -5.739 -10.085  16.817  0.00  0.00    -0.495 OA
ATOM     40  C   UNL     1      -7.061  -9.565  16.946  0.00  0.00    +0.277 C 
ENDBRANCH  35   7
ENDBRANCH   1  28
ENDBRANCH   8   1
TORSDOF 10
ENDMDL
MODEL 2
REMARK VINA RESULT:      -7.1     23.339     25.845
REMARK  Name = 11882600
REMARK  11 active torsions:
REMARK  status: ('A' for Active; 'I' for Inactive)
REMARK    1  A    between atoms: S_1  and  N_8
REMARK    2  A    between atoms: S_1  and  C_28
REMARK    3  A    between atoms: O_7  and  C_35
REMARK    4  A    between atoms: O_7  and  C_40
REMARK    5  A    between atoms: N_9  and  C_25
REMARK    6  A    between atoms: N_10  and  C_19
REMARK    7  A    between atoms: C_13  and  C_17
REMARK    8  A    between atoms: C_14  and  C_26
REMARK    9  A    between atoms: C_17  and  C_25
REMARK   10  A    between atoms: C_25  and  C_27
REMARK   11  A    between atoms: C_29  and  C_32
REMARK                            x       y       z     vdW  Elec       q    Type
REMARK                         _______ _______ _______ _____ _____    ______ ____
ROOT
ATOM      8  N   UNL     1      13.038   4.968   0.963  0.00  0.00    -0.165 NA
ATOM     14  C   UNL     1      12.086   3.843   1.169  0.00  0.00    +0.167 C 
ATOM     18  C   UNL     1      11.604   3.764   2.616  0.00  0.00    +0.052 C 
ATOM     19  C   UNL     1      11.128   5.112   3.172  0.00  0.00    +0.076 C 
ATOM     22  C   UNL     1      12.171   6.203   2.932  0.00  0.00    +0.039 C 
ATOM     23  C   UNL     1      12.545   6.287   1.458  0.00  0.00    +0.112 C 
ENDROOT
BRANCH  14  26
ATOM      2  O   UNL     1       9.810   4.188   0.553  0.00  0.00    -0.274 OA
ATOM      9  N   UNL     1      11.407   3.932  -1.121  0.00  0.00    -0.303 N 
ATOM     26  C   UNL     1      10.970   4.015   0.190  0.00  0.00    +0.233 C 
ATOM     41  H   UNL     1      12.384   3.716  -1.298  0.00  0.00    +0.149 HD
BRANCH   9  25
ATOM     25  C   UNL     1      10.521   4.044  -2.258  0.00  0.00    +0.159 C 
BRANCH  25  27
ATOM      5  O   UNL     1       9.917   1.765  -2.852  0.00  0.00    -0.274 OA
ATOM     11  N   UNL     1      11.564   2.813  -4.062  0.00  0.00    -0.328 N 
ATOM     27  C   UNL     1      10.607   2.759  -3.071  0.00  0.00    +0.231 C 
ATOM     43  H   UNL     1      11.728   2.018  -4.671  0.00  0.00    +0.145 HD
ATOM     44  H   UNL     1      12.141   3.633  -4.220  0.00  0.00    +0.145 HD
ENDBRANCH  25  27
BRANCH  25  17
ATOM     17  C   UNL     1      10.808   5.295  -3.094  0.00  0.00    +0.035 C 
BRANCH  17  13
ATOM     13  C   UNL     1       9.556   6.035  -3.563  0.00  0.00    -0.009 C 
ATOM     15  C   UNL     1       9.064   5.472  -4.903  0.00  0.00    +0.003 C 
ATOM     16  C   UNL     1       8.452   5.961  -2.500  0.00  0.00    +0.003 C 
ATOM     20  C   UNL     1       7.783   6.160  -5.367  0.00  0.00    +0.000 C 
ATOM     21  C   UNL     1       7.172   6.648  -2.969  0.00  0.00    +0.000 C 
ATOM     24  C   UNL     1       6.690   6.091  -4.305  0.00  0.00    +0.000 C 
ENDBRANCH  17  13
ENDBRANCH  25  17
ENDBRANCH   9  25
ENDBRANCH  14  26
BRANCH  19  10
ATOM      6  O   UNL     1       9.026   6.476   4.574  0.00  0.00    -0.270 OA
ATOM     10  N   UNL     1      10.820   5.005   4.578  0.00  0.00    -0.308 N 
ATOM     29  C   UNL     1       9.779   5.707   5.167  0.00  0.00    +0.244 C 
ATOM     42  H   UNL     1      11.467   4.475   5.152  0.00  0.00    +0.149 HD
BRANCH  29  32
ATOM     12  N   UNL     1       9.288   5.136   9.381  0.00  0.00    -0.263 NA
ATOM     32  C   UNL     1       9.609   5.509   6.630  0.00  0.00    +0.040 A 
ATOM     36  C   UNL     1       9.870   4.268   7.201  0.00  0.00    +0.033 A 
ATOM     37  C   UNL     1       9.187   6.563   7.432  0.00  0.00    +0.033 A 
ATOM     38  C   UNL     1       9.696   4.136   8.570  0.00  0.00    +0.111 A 
ATOM     39  C   UNL     1       9.044   6.328   8.790  0.00  0.00    +0.111 A 
ENDBRANCH  29  32
ENDBRANCH  19  10
BRANCH   8   1
ATOM      1  S   UNL     1      14.693   4.625   1.247  0.00  0.00    +0.062 S 
ATOM      3  O   UNL     1      14.812   3.247   1.661  0.00  0.00    -0.153 OA
ATOM      4  O   UNL     1      15.256   5.700   2.026  0.00  0.00    -0.153 OA
BRANCH   1  28
ATOM     28  C   UNL     1      15.308   4.756  -0.400  0.00  0.00    +0.106 A 
ATOM     30  C   UNL     1      16.616   4.365  -0.690  0.00  0.00    +0.032 A 
ATOM     31  C   UNL     1      14.488   5.249  -1.414  0.00  0.00    +0.032 A 
ATOM     33  C   UNL     1      17.102   4.468  -1.993  0.00  0.00    +0.047 A 
ATOM     34  C   UNL     1      14.974   5.350  -2.718  0.00  0.00    +0.047 A 
ATOM     35  C   UNL     1      16.282   4.960  -3.007  0.00  0.00    +0.120 A 
BRANCH  35   7
ATOM      7  O   UNL     1      16.756   5.061  -4.278  0.00  0.00    -0.495 OA
ATOM     40  C   UNL     1      15.800   4.995  -5.335  0.00  0.00    +0.277 C 
ENDBRANCH  35   7
ENDBRANCH   1  28
ENDBRANCH   8   1
TORSDOF 10
ENDMDL
MODEL 3
REMARK VINA RESULT:      -7.0     23.858     26.415
REMARK  Name = 11882600
REMARK  11 active torsions:
REMARK  status: ('A' for Active; 'I' for Inactive)
REMARK    1  A    between atoms: S_1  and  N_8
REMARK    2  A    between atoms: S_1  and  C_28
REMARK    3  A    between atoms: O_7  and  C_35
REMARK    4  A    between atoms: O_7  and  C_40
REMARK    5  A    between atoms: N_9  and  C_25
REMARK    6  A    between atoms: N_10  and  C_19
REMARK    7  A    between atoms: C_13  and  C_17
REMARK    8  A    between atoms: C_14  and  C_26
REMARK    9  A    between atoms: C_17  and  C_25
REMARK   10  A    between atoms: C_25  and  C_27
REMARK   11  A    between atoms: C_29  and  C_32
REMARK                            x       y       z     vdW  Elec       q    Type
REMARK                         _______ _______ _______ _____ _____    ______ ____
ROOT
ATOM      8  N   UNL     1      12.867   5.012   1.123  0.00  0.00    -0.165 NA
ATOM     14  C   UNL     1      11.859   3.933   1.310  0.00  0.00    +0.167 C 
ATOM     18  C   UNL     1      11.399   3.833   2.762  0.00  0.00    +0.052 C 
ATOM     19  C   UNL     1      11.004   5.185   3.370  0.00  0.00    +0.076 C 
ATOM     22  C   UNL     1      12.100   6.227   3.145  0.00  0.00    +0.039 C 
ATOM     23  C   UNL     1      12.453   6.338   1.669  0.00  0.00    +0.112 C 
ENDROOT
BRANCH  14  26
ATOM      2  O   UNL     1       9.598   4.430   0.748  0.00  0.00    -0.274 OA
ATOM      9  N   UNL     1      11.145   4.119  -0.963  0.00  0.00    -0.303 N 
ATOM     26  C   UNL     1      10.738   4.196   0.358  0.00  0.00    +0.233 C 
ATOM     41  H   UNL     1      12.103   3.849  -1.165  0.00  0.00    +0.149 HD
BRANCH   9  25
ATOM     25  C   UNL     1      10.246   4.312  -2.079  0.00  0.00    +0.159 C 
BRANCH  25  27
ATOM      5  O   UNL     1      11.640   2.878  -3.461  0.00  0.00    -0.274 OA
ATOM     11  N   UNL     1       9.358   2.695  -3.646  0.00  0.00    -0.328 N 
ATOM     27  C   UNL     1      10.513   3.226  -3.114  0.00  0.00    +0.231 C 
ATOM     43  H   UNL     1       9.396   1.968  -4.352  0.00  0.00    +0.145 HD
ATOM     44  H   UNL     1       8.434   3.007  -3.364  0.00  0.00    +0.145 HD
ENDBRANCH  25  27
BRANCH  25  17
ATOM     17  C   UNL     1      10.345   5.725  -2.664  0.00  0.00    +0.035 C 
BRANCH  17  13
ATOM     13  C   UNL     1      11.776   6.225  -2.855  0.00  0.00    -0.009 C 
ATOM     15  C   UNL     1      11.991   6.711  -4.294  0.00  0.00    +0.003 C 
ATOM     16  C   UNL     1      12.101   7.336  -1.848  0.00  0.00    +0.003 C 
ATOM     20  C   UNL     1      13.399   7.265  -4.497  0.00  0.00    +0.000 C 
ATOM     21  C   UNL     1      13.509   7.889  -2.055  0.00  0.00    +0.000 C 
ATOM     24  C   UNL     1      13.723   8.363  -3.489  0.00  0.00    +0.000 C 
ENDBRANCH  17  13
ENDBRANCH  25  17
ENDBRANCH   9  25
ENDBRANCH  14  26
BRANCH  19  10
ATOM      6  O   UNL     1       8.892   6.483   4.819  0.00  0.00    -0.270 OA
ATOM     10  N   UNL     1      10.714   5.048   4.777  0.00  0.00    -0.308 N 
ATOM     29  C   UNL     1       9.667   5.719   5.389  0.00  0.00    +0.244 C 
ATOM     42  H   UNL     1      11.378   4.521   5.335  0.00  0.00    +0.149 HD
BRANCH  29  32
ATOM     12  N   UNL     1       9.235   5.068   9.598  0.00  0.00    -0.263 NA
ATOM     32  C   UNL     1       9.518   5.493   6.851  0.00  0.00    +0.040 A 
ATOM     36  C   UNL     1       9.738   4.229   7.387  0.00  0.00    +0.033 A 
ATOM     37  C   UNL     1       9.157   6.544   7.686  0.00  0.00    +0.033 A 
ATOM     38  C   UNL     1       9.585   4.071   8.756  0.00  0.00    +0.111 A 
ATOM     39  C   UNL     1       9.030   6.282   9.041  0.00  0.00    +0.111 A 
ENDBRANCH  29  32
ENDBRANCH  19  10
BRANCH   8   1
ATOM      1  S   UNL     1      14.505   4.573   1.364  0.00  0.00    +0.062 S 
ATOM      3  O   UNL     1      14.565   3.158   1.643  0.00  0.00    -0.153 OA
ATOM      4  O   UNL     1      15.114   5.542   2.242  0.00  0.00    -0.153 OA
BRANCH   1  28
ATOM     28  C   UNL     1      15.125   4.837  -0.265  0.00  0.00    +0.106 A 
ATOM     30  C   UNL     1      14.460   4.290  -1.362  0.00  0.00    +0.032 A 
ATOM     31  C   UNL     1      16.281   5.593  -0.457  0.00  0.00    +0.032 A 
ATOM     33  C   UNL     1      14.950   4.500  -2.651  0.00  0.00    +0.047 A 
ATOM     34  C   UNL     1      16.771   5.804  -1.746  0.00  0.00    +0.047 A 
ATOM     35  C   UNL     1      16.105   5.257  -2.844  0.00  0.00    +0.120 A 
BRANCH  35   7
ATOM      7  O   UNL     1      16.584   5.461  -4.101  0.00  0.00    -0.495 OA
ATOM     40  C   UNL     1      17.110   6.755  -4.392  0.00  0.00    +0.277 C 
ENDBRANCH  35   7
ENDBRANCH   1  28
ENDBRANCH   8   1
TORSDOF 10
ENDMDL
MODEL 4
REMARK VINA RESULT:      -6.7      1.907      2.544
REMARK  Name = 11882600
REMARK  11 active torsions:
REMARK  status: ('A' for Active; 'I' for Inactive)
REMARK    1  A    between atoms: S_1  and  N_8
REMARK    2  A    between atoms: S_1  and  C_28
REMARK    3  A    between atoms: O_7  and  C_35
REMARK    4  A    between atoms: O_7  and  C_40
REMARK    5  A    between atoms: N_9  and  C_25
REMARK    6  A    between atoms: N_10  and  C_19
REMARK    7  A    between atoms: C_13  and  C_17
REMARK    8  A    between atoms: C_14  and  C_26
REMARK    9  A    between atoms: C_17  and  C_25
REMARK   10  A    between atoms: C_25  and  C_27
REMARK   11  A    between atoms: C_29  and  C_32
REMARK                            x       y       z     vdW  Elec       q    Type
REMARK                         _______ _______ _______ _____ _____    ______ ____
ROOT
ATOM      8  N   UNL     1      -4.525 -10.697  11.445  0.00  0.00    -0.165 NA
ATOM     14  C   UNL     1      -4.624  -9.529  10.527  0.00  0.00    +0.167 C 
ATOM     18  C   UNL     1      -4.257  -9.902   9.093  0.00  0.00    +0.052 C 
ATOM     19  C   UNL     1      -4.967 -11.167   8.593  0.00  0.00    +0.076 C 
ATOM     22  C   UNL     1      -4.801 -12.317   9.587  0.00  0.00    +0.039 C 
ATOM     23  C   UNL     1      -5.264 -11.907  10.978  0.00  0.00    +0.112 C 
ENDROOT
BRANCH  14  26
ATOM      2  O   UNL     1      -6.535  -8.797  11.747  0.00  0.00    -0.274 OA
ATOM      9  N   UNL     1      -6.585  -8.728   9.420  0.00  0.00    -0.303 N 
ATOM     26  C   UNL     1      -6.006  -8.976  10.653  0.00  0.00    +0.233 C 
ATOM     41  H   UNL     1      -6.074  -8.981   8.580  0.00  0.00    +0.149 HD
BRANCH   9  25
ATOM     25  C   UNL     1      -7.926  -8.210   9.267  0.00  0.00    +0.159 C 
BRANCH  25  27
ATOM      5  O   UNL     1     -10.050  -9.374   9.483  0.00  0.00    -0.274 OA
ATOM     11  N   UNL     1      -8.298 -10.469   8.480  0.00  0.00    -0.328 N 
ATOM     27  C   UNL     1      -8.884  -9.382   9.093  0.00  0.00    +0.231 C 
ATOM     43  H   UNL     1      -8.826 -11.319   8.312  0.00  0.00    +0.145 HD
ATOM     44  H   UNL     1      -7.328 -10.470   8.181  0.00  0.00    +0.145 HD
ENDBRANCH  25  27
BRANCH  25  17
ATOM     17  C   UNL     1      -8.026  -7.190   8.129  0.00  0.00    +0.035 C 
BRANCH  17  13
ATOM     13  C   UNL     1      -8.680  -7.731   6.858  0.00  0.00    -0.009 C 
ATOM     15  C   UNL     1      -9.768  -6.771   6.358  0.00  0.00    +0.003 C 
ATOM     16  C   UNL     1      -7.627  -7.979   5.770  0.00  0.00    +0.003 C 
ATOM     20  C   UNL     1     -10.401  -7.264   5.060  0.00  0.00    +0.000 C 
ATOM     21  C   UNL     1      -8.264  -8.469   4.472  0.00  0.00    +0.000 C 
ATOM     24  C   UNL     1      -9.350  -7.517   3.982  0.00  0.00    +0.000 C 
ENDBRANCH  17  13
ENDBRANCH  25  17
ENDBRANCH   9  25
ENDBRANCH  14  26
BRANCH  19  10
ATOM      6  O   UNL     1      -6.505 -11.374   6.178  0.00  0.00    -0.270 OA
ATOM     10  N   UNL     1      -4.478 -11.547   7.290  0.00  0.00    -0.308 N 
ATOM     29  C   UNL     1      -5.302 -11.619   6.178  0.00  0.00    +0.244 C 
ATOM     42  H   UNL     1      -3.517 -11.871   7.235  0.00  0.00    +0.149 HD
BRANCH  29  32
ATOM     12  N   UNL     1      -3.425 -12.869   2.538  0.00  0.00    -0.263 NA
ATOM     32  C   UNL     1      -4.650 -12.053   4.914  0.00  0.00    +0.040 A 
ATOM     36  C   UNL     1      -5.413 -12.259   3.771  0.00  0.00    +0.033 A 
ATOM     37  C   UNL     1      -3.275 -12.253   4.871  0.00  0.00    +0.033 A 
ATOM     38  C   UNL     1      -4.758 -12.663   2.618  0.00  0.00    +0.111 A 
ATOM     39  C   UNL     1      -2.715 -12.657   3.670  0.00  0.00    +0.111 A 
ENDBRANCH  29  32
ENDBRANCH  19  10
BRANCH   8   1
ATOM      1  S   UNL     1      -2.993 -10.975  12.159  0.00  0.00    +0.062 S 
ATOM      3  O   UNL     1      -2.118  -9.880  11.811  0.00  0.00    -0.153 OA
ATOM      4  O   UNL     1      -2.618 -12.347  11.920  0.00  0.00    -0.153 OA
BRANCH   1  28
ATOM     28  C   UNL     1      -3.425 -10.810  13.860  0.00  0.00    +0.106 A 
ATOM     30  C   UNL     1      -2.442 -10.915  14.844  0.00  0.00    +0.032 A 
ATOM     31  C   UNL     1      -4.751 -10.573  14.223  0.00  0.00    +0.032 A 
ATOM     33  C   UNL     1      -2.784 -10.783  16.190  0.00  0.00    +0.047 A 
ATOM     34  C   UNL     1      -5.093 -10.441  15.569  0.00  0.00    +0.047 A 
ATOM     35  C   UNL     1      -4.110 -10.546  16.553  0.00  0.00    +0.120 A 
BRANCH  35   7
ATOM      7  O   UNL     1      -4.444 -10.418  17.865  0.00  0.00    -0.495 OA
ATOM     40  C   UNL     1      -4.382 -11.596  18.668  0.00  0.00    +0.277 C 
ENDBRANCH  35   7
ENDBRANCH   1  28
ENDBRANCH   8   1
TORSDOF 10
ENDMDL
MODEL 5
REMARK VINA RESULT:      -6.6     23.744     25.287
REMARK  Name = 11882600
REMARK  11 active torsions:
REMARK  status: ('A' for Active; 'I' for Inactive)
REMARK    1  A    between atoms: S_1  and  N_8
REMARK    2  A    between atoms: S_1  and  C_28
REMARK    3  A    between atoms: O_7  and  C_35
REMARK    4  A    between atoms: O_7  and  C_40
REMARK    5  A    between atoms: N_9  and  C_25
REMARK    6  A    between atoms: N_10  and  C_19
REMARK    7  A    between atoms: C_13  and  C_17
REMARK    8  A    between atoms: C_14  and  C_26
REMARK    9  A    between atoms: C_17  and  C_25
REMARK   10  A    between atoms: C_25  and  C_27
REMARK   11  A    between atoms: C_29  and  C_32
REMARK                            x       y       z     vdW  Elec       q    Type
REMARK                         _______ _______ _______ _____ _____    ______ ____
ROOT
ATOM      8  N   UNL     1      10.581   7.754   3.639  0.00  0.00    -0.165 NA
ATOM     14  C   UNL     1       9.826   6.472   3.613  0.00  0.00    +0.167 C 
ATOM     18  C   UNL     1       9.831   5.838   2.224  0.00  0.00    +0.052 C 
ATOM     19  C   UNL     1      11.227   5.767   1.593  0.00  0.00    +0.076 C 
ATOM     22  C   UNL     1      11.922   7.128   1.648  0.00  0.00    +0.039 C 
ATOM     23  C   UNL     1      11.959   7.665   3.072  0.00  0.00    +0.112 C 
ENDROOT
BRANCH  14  26
ATOM      2  O   UNL     1      10.547   4.376   4.489  0.00  0.00    -0.274 OA
ATOM      9  N   UNL     1      10.745   6.282   5.811  0.00  0.00    -0.303 N 
ATOM     26  C   UNL     1      10.413   5.585   4.663  0.00  0.00    +0.233 C 
ATOM     41  H   UNL     1      10.523   7.272   5.864  0.00  0.00    +0.149 HD
BRANCH   9  25
ATOM     25  C   UNL     1      11.310   5.651   6.983  0.00  0.00    +0.159 C 
BRANCH  25  27
ATOM      5  O   UNL     1       9.377   6.159   8.367  0.00  0.00    -0.274 OA
ATOM     11  N   UNL     1      10.176   4.005   8.348  0.00  0.00    -0.328 N 
ATOM     27  C   UNL     1      10.182   5.326   7.954  0.00  0.00    +0.231 C 
ATOM     43  H   UNL     1       9.480   3.660   9.000  0.00  0.00    +0.145 HD
ATOM     44  H   UNL     1      10.859   3.333   8.015  0.00  0.00    +0.145 HD
ENDBRANCH  25  27
BRANCH  25  17
ATOM     17  C   UNL     1      12.415   6.499   7.621  0.00  0.00    +0.035 C 
BRANCH  17  13
ATOM     13  C   UNL     1      13.076   7.489   6.663  0.00  0.00    -0.009 C 
ATOM     15  C   UNL     1      12.812   8.933   7.109  0.00  0.00    +0.003 C 
ATOM     16  C   UNL     1      14.582   7.217   6.555  0.00  0.00    +0.003 C 
ATOM     20  C   UNL     1      13.507   9.941   6.197  0.00  0.00    +0.000 C 
ATOM     21  C   UNL     1      15.274   8.228   5.644  0.00  0.00    +0.000 C 
ATOM     24  C   UNL     1      15.002   9.662   6.086  0.00  0.00    +0.000 C 
ENDBRANCH  17  13
ENDBRANCH  25  17
ENDBRANCH   9  25
ENDBRANCH  14  26
BRANCH  19  10
ATOM      6  O   UNL     1      12.553   3.466   0.504  0.00  0.00    -0.270 OA
ATOM     10  N   UNL     1      11.150   5.292   0.232  0.00  0.00    -0.308 N 
ATOM     29  C   UNL     1      11.830   4.165  -0.201  0.00  0.00    +0.244 C 
ATOM     42  H   UNL     1      10.660   5.880  -0.434  0.00  0.00    +0.149 HD
BRANCH  29  32
ATOM     12  N   UNL     1      11.365   3.176  -4.340  0.00  0.00    -0.263 NA
ATOM     32  C   UNL     1      11.669   3.822  -1.638  0.00  0.00    +0.040 A 
ATOM     36  C   UNL     1      10.563   4.282  -2.346  0.00  0.00    +0.033 A 
ATOM     37  C   UNL     1      12.622   3.040  -2.280  0.00  0.00    +0.033 A 
ATOM     38  C   UNL     1      10.459   3.934  -3.683  0.00  0.00    +0.111 A 
ATOM     39  C   UNL     1      12.426   2.748  -3.621  0.00  0.00    +0.111 A 
ENDBRANCH  29  32
ENDBRANCH  19  10
BRANCH   8   1
ATOM      1  S   UNL     1       9.693   9.167   3.250  0.00  0.00    +0.062 S 
ATOM      3  O   UNL     1       8.325   8.791   2.983  0.00  0.00    -0.153 OA
ATOM      4  O   UNL     1      10.461   9.945   2.309  0.00  0.00    -0.153 OA
BRANCH   1  28
ATOM     28  C   UNL     1       9.741   9.985   4.811  0.00  0.00    +0.106 A 
ATOM     30  C   UNL     1       9.276   9.334   5.955  0.00  0.00    +0.032 A 
ATOM     31  C   UNL     1      10.245  11.282   4.904  0.00  0.00    +0.032 A 
ATOM     33  C   UNL     1       9.315   9.981   7.190  0.00  0.00    +0.047 A 
ATOM     34  C   UNL     1      10.285  11.929   6.139  0.00  0.00    +0.047 A 
ATOM     35  C   UNL     1       9.820  11.278   7.283  0.00  0.00    +0.120 A 
BRANCH  35   7
ATOM      7  O   UNL     1       9.857  11.909   8.487  0.00  0.00    -0.495 OA
ATOM     40  C   UNL     1      10.721  11.360   9.481  0.00  0.00    +0.277 C 
ENDBRANCH  35   7
ENDBRANCH   1  28
ENDBRANCH   8   1
TORSDOF 10
ENDMDL
MODEL 6
REMARK VINA RESULT:      -6.4     27.025     30.469
REMARK  Name = 11882600
REMARK  11 active torsions:
REMARK  status: ('A' for Active; 'I' for Inactive)
REMARK    1  A    between atoms: S_1  and  N_8
REMARK    2  A    between atoms: S_1  and  C_28
REMARK    3  A    between atoms: O_7  and  C_35
REMARK    4  A    between atoms: O_7  and  C_40
REMARK    5  A    between atoms: N_9  and  C_25
REMARK    6  A    between atoms: N_10  and  C_19
REMARK    7  A    between atoms: C_13  and  C_17
REMARK    8  A    between atoms: C_14  and  C_26
REMARK    9  A    between atoms: C_17  and  C_25
REMARK   10  A    between atoms: C_25  and  C_27
REMARK   11  A    between atoms: C_29  and  C_32
REMARK                            x       y       z     vdW  Elec       q    Type
REMARK                         _______ _______ _______ _____ _____    ______ ____
ROOT
ATOM      8  N   UNL     1      -9.134 -11.559  36.999  0.00  0.00    -0.165 NA
ATOM     14  C   UNL     1      -9.179 -10.981  38.370  0.00  0.00    +0.167 C 
ATOM     18  C   UNL     1      -7.939 -11.347  39.181  0.00  0.00    +0.052 C 
ATOM     19  C   UNL     1      -6.625 -11.099  38.429  0.00  0.00    +0.076 C 
ATOM     22  C   UNL     1      -6.660 -11.739  37.041  0.00  0.00    +0.039 C 
ATOM     23  C   UNL     1      -7.874 -11.268  36.253  0.00  0.00    +0.112 C 
ENDROOT
BRANCH  14  26
ATOM      2  O   UNL     1     -10.096  -9.028  37.359  0.00  0.00    -0.274 OA
ATOM      9  N   UNL     1      -8.634  -8.791  39.156  0.00  0.00    -0.303 N 
ATOM     26  C   UNL     1      -9.371  -9.506  38.228  0.00  0.00    +0.233 C 
ATOM     41  H   UNL     1      -8.015  -9.295  39.783  0.00  0.00    +0.149 HD
BRANCH   9  25
ATOM     25  C   UNL     1      -8.629  -7.346  39.216  0.00  0.00    +0.159 C 
BRANCH  25  27
ATOM      5  O   UNL     1      -6.813  -5.857  39.844  0.00  0.00    -0.274 OA
ATOM     11  N   UNL     1      -6.338  -7.660  38.502  0.00  0.00    -0.328 N 
ATOM     27  C   UNL     1      -7.184  -6.865  39.245  0.00  0.00    +0.231 C 
ATOM     43  H   UNL     1      -5.348  -7.444  38.432  0.00  0.00    +0.145 HD
ATOM     44  H   UNL     1      -6.661  -8.478  37.996  0.00  0.00    +0.145 HD
ENDBRANCH  25  27
BRANCH  25  17
ATOM     17  C   UNL     1      -9.455  -6.813  40.391  0.00  0.00    +0.035 C 
BRANCH  17  13
ATOM     13  C   UNL     1     -10.468  -5.736  40.006  0.00  0.00    -0.009 C 
ATOM     15  C   UNL     1     -11.720  -5.829  40.888  0.00  0.00    +0.003 C 
ATOM     16  C   UNL     1      -9.837  -4.340  40.098  0.00  0.00    +0.003 C 
ATOM     20  C   UNL     1     -12.726  -4.730  40.558  0.00  0.00    +0.000 C 
ATOM     21  C   UNL     1     -10.846  -3.243  39.770  0.00  0.00    +0.000 C 
ATOM     24  C   UNL     1     -12.093  -3.344  40.643  0.00  0.00    +0.000 C 
ENDBRANCH  17  13
ENDBRANCH  25  17
ENDBRANCH   9  25
ENDBRANCH  14  26
BRANCH  19  10
ATOM      6  O   UNL     1      -5.032  -9.611  40.297  0.00  0.00    -0.270 OA
ATOM     10  N   UNL     1      -5.501 -11.593  39.187  0.00  0.00    -0.308 N 
ATOM     29  C   UNL     1      -4.790 -10.794  40.070  0.00  0.00    +0.244 C 
ATOM     42  H   UNL     1      -5.174 -12.529  38.970  0.00  0.00    +0.149 HD
BRANCH  29  32
ATOM     12  N   UNL     1      -1.483 -12.666  42.040  0.00  0.00    -0.263 NA
ATOM     32  C   UNL     1      -3.642 -11.444  40.754  0.00  0.00    +0.040 A 
ATOM     36  C   UNL     1      -3.068 -10.849  41.872  0.00  0.00    +0.033 A 
ATOM     37  C   UNL     1      -3.138 -12.649  40.278  0.00  0.00    +0.033 A 
ATOM     38  C   UNL     1      -2.000 -11.495  42.473  0.00  0.00    +0.111 A 
ATOM     39  C   UNL     1      -2.067 -13.215  40.951  0.00  0.00    +0.111 A 
ENDBRANCH  29  32
ENDBRANCH  19  10
BRANCH   8   1
ATOM      1  S   UNL     1      -9.772 -13.139  36.819  0.00  0.00    +0.062 S 
ATOM      3  O   UNL     1     -10.229 -13.600  38.108  0.00  0.00    -0.153 OA
ATOM      4  O   UNL     1      -8.854 -13.914  36.020  0.00  0.00    -0.153 OA
BRANCH   1  28
ATOM     28  C   UNL     1     -11.188 -12.775  35.834  0.00  0.00    +0.106 A 
ATOM     30  C   UNL     1     -11.550 -13.627  34.790  0.00  0.00    +0.032 A 
ATOM     31  C   UNL     1     -11.948 -11.636  36.098  0.00  0.00    +0.032 A 
ATOM     33  C   UNL     1     -12.671 -13.340  34.012  0.00  0.00    +0.047 A 
ATOM     34  C   UNL     1     -13.070 -11.349  35.321  0.00  0.00    +0.047 A 
ATOM     35  C   UNL     1     -13.432 -12.201  34.277  0.00  0.00    +0.120 A 
BRANCH  35   7
ATOM      7  O   UNL     1     -14.525 -11.920  33.517  0.00  0.00    -0.495 OA
ATOM     40  C   UNL     1     -15.656 -12.777  33.667  0.00  0.00    +0.277 C 
ENDBRANCH  35   7
ENDBRANCH   1  28
ENDBRANCH   8   1
TORSDOF 10
ENDMDL
MODEL 7
REMARK VINA RESULT:      -6.4     23.605     26.500
REMARK  Name = 11882600
REMARK  11 active torsions:
REMARK  status: ('A' for Active; 'I' for Inactive)
REMARK    1  A    between atoms: S_1  and  N_8
REMARK    2  A    between atoms: S_1  and  C_28
REMARK    3  A    between atoms: O_7  and  C_35
REMARK    4  A    between atoms: O_7  and  C_40
REMARK    5  A    between atoms: N_9  and  C_25
REMARK    6  A    between atoms: N_10  and  C_19
REMARK    7  A    between atoms: C_13  and  C_17
REMARK    8  A    between atoms: C_14  and  C_26
REMARK    9  A    between atoms: C_17  and  C_25
REMARK   10  A    between atoms: C_25  and  C_27
REMARK   11  A    between atoms: C_29  and  C_32
REMARK                            x       y       z     vdW  Elec       q    Type
REMARK                         _______ _______ _______ _____ _____    ______ ____
ROOT
ATOM      8  N   UNL     1      13.117   5.175   0.808  0.00  0.00    -0.165 NA
ATOM     14  C   UNL     1      12.284   3.965   1.048  0.00  0.00    +0.167 C 
ATOM     18  C   UNL     1      11.789   3.894   2.490  0.00  0.00    +0.052 C 
ATOM     19  C   UNL     1      11.164   5.205   2.983  0.00  0.00    +0.076 C 
ATOM     22  C   UNL     1      12.091   6.390   2.711  0.00  0.00    +0.039 C 
ATOM     23  C   UNL     1      12.479   6.453   1.241  0.00  0.00    +0.112 C 
ENDROOT
BRANCH  14  26
ATOM      2  O   UNL     1      10.000   4.111   0.385  0.00  0.00    -0.274 OA
ATOM      9  N   UNL     1      11.634   3.807  -1.246  0.00  0.00    -0.303 N 
ATOM     26  C   UNL     1      11.174   3.979   0.048  0.00  0.00    +0.233 C 
ATOM     41  H   UNL     1      12.624   3.638  -1.396  0.00  0.00    +0.149 HD
BRANCH   9  25
ATOM     25  C   UNL     1      10.758   3.762  -2.396  0.00  0.00    +0.159 C 
BRANCH  25  27
ATOM      5  O   UNL     1       9.441   1.904  -3.246  0.00  0.00    -0.274 OA
ATOM     11  N   UNL     1      11.541   1.472  -2.422  0.00  0.00    -0.328 N 
ATOM     27  C   UNL     1      10.492   2.304  -2.749  0.00  0.00    +0.231 C 
ATOM     43  H   UNL     1      11.488   0.474  -2.599  0.00  0.00    +0.145 HD
ATOM     44  H   UNL     1      12.396   1.813  -1.994  0.00  0.00    +0.145 HD
ENDBRANCH  25  27
BRANCH  25  17
ATOM     17  C   UNL     1      11.311   4.566  -3.577  0.00  0.00    +0.035 C 
BRANCH  17  13
ATOM     13  C   UNL     1      11.574   3.735  -4.832  0.00  0.00    -0.009 C 
ATOM     15  C   UNL     1      10.871   4.353  -6.048  0.00  0.00    +0.003 C 
ATOM     16  C   UNL     1      13.080   3.594  -5.084  0.00  0.00    +0.003 C 
ATOM     20  C   UNL     1      11.161   3.570  -7.325  0.00  0.00    +0.000 C 
ATOM     21  C   UNL     1      13.367   2.812  -6.364  0.00  0.00    +0.000 C 
ATOM     24  C   UNL     1      12.660   3.425  -7.569  0.00  0.00    +0.000 C 
ENDBRANCH  17  13
ENDBRANCH  25  17
ENDBRANCH   9  25
ENDBRANCH  14  26
BRANCH  19  10
ATOM      6  O   UNL     1       9.055   6.599   4.345  0.00  0.00    -0.270 OA
ATOM     10  N   UNL     1      10.844   5.123   4.388  0.00  0.00    -0.308 N 
ATOM     29  C   UNL     1       9.801   5.838   4.957  0.00  0.00    +0.244 C 
ATOM     42  H   UNL     1      11.485   4.601   4.977  0.00  0.00    +0.149 HD
BRANCH  29  32
ATOM     12  N   UNL     1       9.274   5.340   9.176  0.00  0.00    -0.263 NA
ATOM     32  C   UNL     1       9.618   5.665   6.421  0.00  0.00    +0.040 A 
ATOM     36  C   UNL     1       9.921   4.449   7.024  0.00  0.00    +0.033 A 
ATOM     37  C   UNL     1       9.144   6.719   7.195  0.00  0.00    +0.033 A 
ATOM     38  C   UNL     1       9.733   4.339   8.393  0.00  0.00    +0.111 A 
ATOM     39  C   UNL     1       8.991   6.508   8.556  0.00  0.00    +0.111 A 
ENDBRANCH  29  32
ENDBRANCH  19  10
BRANCH   8   1
ATOM      1  S   UNL     1      14.793   5.020   1.127  0.00  0.00    +0.062 S 
ATOM      3  O   UNL     1      15.034   3.713   1.690  0.00  0.00    -0.153 OA
ATOM      4  O   UNL     1      15.247   6.222   1.783  0.00  0.00    -0.153 OA
BRANCH   1  28
ATOM     28  C   UNL     1      15.410   5.026  -0.525  0.00  0.00    +0.106 A 
ATOM     30  C   UNL     1      16.646   4.445  -0.810  0.00  0.00    +0.032 A 
ATOM     31  C   UNL     1      14.663   5.611  -1.547  0.00  0.00    +0.032 A 
ATOM     33  C   UNL     1      17.134   4.449  -2.117  0.00  0.00    +0.047 A 
ATOM     34  C   UNL     1      15.150   5.614  -2.854  0.00  0.00    +0.047 A 
ATOM     35  C   UNL     1      16.386   5.033  -3.139  0.00  0.00    +0.120 A 
BRANCH  35   7
ATOM      7  O   UNL     1      16.862   5.038  -4.414  0.00  0.00    -0.495 OA
ATOM     40  C   UNL     1      18.129   4.420  -4.636  0.00  0.00    +0.277 C 
ENDBRANCH  35   7
ENDBRANCH   1  28
ENDBRANCH   8   1
TORSDOF 10
ENDMDL
MODEL 8
REMARK VINA RESULT:      -6.4      7.129     11.615
REMARK  Name = 11882600
REMARK  11 active torsions:
REMARK  status: ('A' for Active; 'I' for Inactive)
REMARK    1  A    between atoms: S_1  and  N_8
REMARK    2  A    between atoms: S_1  and  C_28
REMARK    3  A    between atoms: O_7  and  C_35
REMARK    4  A    between atoms: O_7  and  C_40
REMARK    5  A    between atoms: N_9  and  C_25
REMARK    6  A    between atoms: N_10  and  C_19
REMARK    7  A    between atoms: C_13  and  C_17
REMARK    8  A    between atoms: C_14  and  C_26
REMARK    9  A    between atoms: C_17  and  C_25
REMARK   10  A    between atoms: C_25  and  C_27
REMARK   11  A    between atoms: C_29  and  C_32
REMARK                            x       y       z     vdW  Elec       q    Type
REMARK                         _______ _______ _______ _____ _____    ______ ____
ROOT
ATOM      8  N   UNL     1      -6.143 -10.975  17.196  0.00  0.00    -0.165 NA
ATOM     14  C   UNL     1      -7.297 -11.480  16.403  0.00  0.00    +0.167 C 
ATOM     18  C   UNL     1      -8.282 -12.261  17.269  0.00  0.00    +0.052 C 
ATOM     19  C   UNL     1      -8.668 -11.529  18.561  0.00  0.00    +0.076 C 
ATOM     22  C   UNL     1      -7.425 -11.061  19.317  0.00  0.00    +0.039 C 
ATOM     23  C   UNL     1      -6.527 -10.217  18.423  0.00  0.00    +0.112 C 
ENDROOT
BRANCH  14  26
ATOM      2  O   UNL     1      -7.283  -9.588  14.954  0.00  0.00    -0.274 OA
ATOM      9  N   UNL     1      -9.246 -10.135  16.079  0.00  0.00    -0.303 N 
ATOM     26  C   UNL     1      -7.920 -10.305  15.721  0.00  0.00    +0.233 C 
ATOM     41  H   UNL     1      -9.647 -10.753  16.779  0.00  0.00    +0.149 HD
BRANCH   9  25
ATOM     25  C   UNL     1     -10.069  -9.059  15.575  0.00  0.00    +0.159 C 
BRANCH  25  27
ATOM      5  O   UNL     1      -9.618  -7.861  17.642  0.00  0.00    -0.274 OA
ATOM     11  N   UNL     1      -9.915  -6.647  15.714  0.00  0.00    -0.328 N 
ATOM     27  C   UNL     1      -9.832  -7.822  16.432  0.00  0.00    +0.231 C 
ATOM     43  H   UNL     1      -9.784  -5.749  16.169  0.00  0.00    +0.145 HD
ATOM     44  H   UNL     1     -10.112  -6.628  14.719  0.00  0.00    +0.145 HD
ENDBRANCH  25  27
BRANCH  25  17
ATOM     17  C   UNL     1     -11.548  -9.450  15.495  0.00  0.00    +0.035 C 
BRANCH  17  13
ATOM     13  C   UNL     1     -12.089 -10.117  16.759  0.00  0.00    -0.009 C 
ATOM     15  C   UNL     1     -13.194  -9.262  17.392  0.00  0.00    +0.003 C 
ATOM     16  C   UNL     1     -12.600 -11.530  16.450  0.00  0.00    +0.003 C 
ATOM     20  C   UNL     1     -13.787  -9.933  18.629  0.00  0.00    +0.000 C 
ATOM     21  C   UNL     1     -13.195 -12.197  17.688  0.00  0.00    +0.000 C 
ATOM     24  C   UNL     1     -14.287 -11.341  18.320  0.00  0.00    +0.000 C 
ENDBRANCH  17  13
ENDBRANCH  25  17
ENDBRANCH   9  25
ENDBRANCH  14  26
BRANCH  19  10
ATOM      6  O   UNL     1     -10.876 -10.693  20.195  0.00  0.00    -0.270 OA
ATOM     10  N   UNL     1      -9.486 -12.371  19.400  0.00  0.00    -0.308 N 
ATOM     29  C   UNL     1     -10.536 -11.873  20.156  0.00  0.00    +0.244 C 
ATOM     42  H   UNL     1      -9.196 -13.338  19.506  0.00  0.00    +0.149 HD
BRANCH  29  32
ATOM     12  N   UNL     1     -12.633 -14.730  22.557  0.00  0.00    -0.263 NA
ATOM     32  C   UNL     1     -11.264 -12.865  20.989  0.00  0.00    +0.040 A 
ATOM     36  C   UNL     1     -12.580 -12.625  21.370  0.00  0.00    +0.033 A 
ATOM     37  C   UNL     1     -10.632 -14.036  21.391  0.00  0.00    +0.033 A 
ATOM     38  C   UNL     1     -13.214 -13.581  22.147  0.00  0.00    +0.111 A 
ATOM     39  C   UNL     1     -11.354 -14.929  22.167  0.00  0.00    +0.111 A 
ENDBRANCH  29  32
ENDBRANCH  19  10
BRANCH   8   1
ATOM      1  S   UNL     1      -4.804 -12.033  17.349  0.00  0.00    +0.062 S 
ATOM      3  O   UNL     1      -5.231 -13.367  16.997  0.00  0.00    -0.153 OA
ATOM      4  O   UNL     1      -4.142 -11.756  18.600  0.00  0.00    -0.153 OA
BRANCH   1  28
ATOM     28  C   UNL     1      -3.792 -11.421  16.042  0.00  0.00    +0.106 A 
ATOM     30  C   UNL     1      -2.540 -10.874  16.326  0.00  0.00    +0.032 A 
ATOM     31  C   UNL     1      -4.242 -11.483  14.723  0.00  0.00    +0.032 A 
ATOM     33  C   UNL     1      -1.739 -10.391  15.292  0.00  0.00    +0.047 A 
ATOM     34  C   UNL     1      -3.440 -11.000  13.689  0.00  0.00    +0.047 A 
ATOM     35  C   UNL     1      -2.188 -10.454  13.973  0.00  0.00    +0.120 A 
BRANCH  35   7
ATOM      7  O   UNL     1      -1.407  -9.981  12.964  0.00  0.00    -0.495 OA
ATOM     40  C   UNL     1      -1.909 -10.119  11.636  0.00  0.00    +0.277 C 
ENDBRANCH  35   7
ENDBRANCH   1  28
ENDBRANCH   8   1
TORSDOF 10
ENDMDL
MODEL 9
REMARK VINA RESULT:      -6.4      6.417     11.834
REMARK  Name = 11882600
REMARK  11 active torsions:
REMARK  status: ('A' for Active; 'I' for Inactive)
REMARK    1  A    between atoms: S_1  and  N_8
REMARK    2  A    between atoms: S_1  and  C_28
REMARK    3  A    between atoms: O_7  and  C_35
REMARK    4  A    between atoms: O_7  and  C_40
REMARK    5  A    between atoms: N_9  and  C_25
REMARK    6  A    between atoms: N_10  and  C_19
REMARK    7  A    between atoms: C_13  and  C_17
REMARK    8  A    between atoms: C_14  and  C_26
REMARK    9  A    between atoms: C_17  and  C_25
REMARK   10  A    between atoms: C_25  and  C_27
REMARK   11  A    between atoms: C_29  and  C_32
REMARK                            x       y       z     vdW  Elec       q    Type
REMARK                         _______ _______ _______ _____ _____    ______ ____
ROOT
ATOM      8  N   UNL     1      -6.174 -11.038  17.692  0.00  0.00    -0.165 NA
ATOM     14  C   UNL     1      -7.536 -11.495  17.304  0.00  0.00    +0.167 C 
ATOM     18  C   UNL     1      -8.018 -12.651  18.176  0.00  0.00    +0.052 C 
ATOM     19  C   UNL     1      -7.835 -12.397  19.678  0.00  0.00    +0.076 C 
ATOM     22  C   UNL     1      -6.407 -11.949  19.988  0.00  0.00    +0.039 C 
ATOM     23  C   UNL     1      -6.019 -10.741  19.147  0.00  0.00    +0.112 C 
ENDROOT
BRANCH  14  26
ATOM      2  O   UNL     1      -8.088  -9.205  16.940  0.00  0.00    -0.274 OA
ATOM      9  N   UNL     1      -9.660 -10.601  17.940  0.00  0.00    -0.303 N 
ATOM     26  C   UNL     1      -8.440 -10.305  17.358  0.00  0.00    +0.233 C 
ATOM     41  H   UNL     1      -9.811 -11.534  18.313  0.00  0.00    +0.149 HD
BRANCH   9  25
ATOM     25  C   UNL     1     -10.703  -9.619  18.131  0.00  0.00    +0.159 C 
BRANCH  25  27
ATOM      5  O   UNL     1     -12.569  -9.797  19.679  0.00  0.00    -0.274 OA
ATOM     11  N   UNL     1     -10.443 -10.120  20.485  0.00  0.00    -0.328 N 
ATOM     27  C   UNL     1     -11.357  -9.859  19.486  0.00  0.00    +0.231 C 
ATOM     43  H   UNL     1     -10.748 -10.290  21.438  0.00  0.00    +0.145 HD
ATOM     44  H   UNL     1      -9.443 -10.148  20.316  0.00  0.00    +0.145 HD
ENDBRANCH  25  27
BRANCH  25  17
ATOM     17  C   UNL     1     -11.713  -9.615  16.979  0.00  0.00    +0.035 C 
BRANCH  17  13
ATOM     13  C   UNL     1     -12.106  -8.220  16.496  0.00  0.00    -0.009 C 
ATOM     15  C   UNL     1     -10.942  -7.236  16.676  0.00  0.00    +0.003 C 
ATOM     16  C   UNL     1     -12.564  -8.262  15.032  0.00  0.00    +0.003 C 
ATOM     20  C   UNL     1     -11.292  -5.846  16.152  0.00  0.00    +0.000 C 
ATOM     21  C   UNL     1     -12.912  -6.870  14.510  0.00  0.00    +0.000 C 
ATOM     24  C   UNL     1     -11.755  -5.893  14.699  0.00  0.00    +0.000 C 
ENDBRANCH  17  13
ENDBRANCH  25  17
ENDBRANCH   9  25
ENDBRANCH  14  26
BRANCH  19  10
ATOM      6  O   UNL     1     -10.447 -13.143  20.607  0.00  0.00    -0.270 OA
ATOM     10  N   UNL     1      -8.175 -13.574  20.441  0.00  0.00    -0.308 N 
ATOM     29  C   UNL     1      -9.471 -13.850  20.846  0.00  0.00    +0.244 C 
ATOM     42  H   UNL     1      -7.405 -14.148  20.770  0.00  0.00    +0.149 HD
BRANCH  29  32
ATOM     12  N   UNL     1      -9.991 -17.416  23.156  0.00  0.00    -0.263 NA
ATOM     32  C   UNL     1      -9.652 -15.088  21.648  0.00  0.00    +0.040 A 
ATOM     36  C   UNL     1      -8.605 -15.577  22.422  0.00  0.00    +0.033 A 
ATOM     37  C   UNL     1     -10.867 -15.762  21.627  0.00  0.00    +0.033 A 
ATOM     38  C   UNL     1      -8.824 -16.735  23.151  0.00  0.00    +0.111 A 
ATOM     39  C   UNL     1     -10.986 -16.911  22.392  0.00  0.00    +0.111 A 
ENDBRANCH  29  32
ENDBRANCH  19  10
BRANCH   8   1
ATOM      1  S   UNL     1      -4.860 -11.841  16.940  0.00  0.00    +0.062 S 
ATOM      3  O   UNL     1      -5.002 -13.261  17.161  0.00  0.00    -0.153 OA
ATOM      4  O   UNL     1      -3.644 -11.142  17.276  0.00  0.00    -0.153 OA
BRANCH   1  28
ATOM     28  C   UNL     1      -5.239 -11.509  15.251  0.00  0.00    +0.106 A 
ATOM     30  C   UNL     1      -5.368 -10.192  14.810  0.00  0.00    +0.032 A 
ATOM     31  C   UNL     1      -5.408 -12.563  14.354  0.00  0.00    +0.032 A 
ATOM     33  C   UNL     1      -5.666  -9.929  13.473  0.00  0.00    +0.047 A 
ATOM     34  C   UNL     1      -5.706 -12.301  13.016  0.00  0.00    +0.047 A 
ATOM     35  C   UNL     1      -5.835 -10.983  12.576  0.00  0.00    +0.120 A 
BRANCH  35   7
ATOM      7  O   UNL     1      -6.126 -10.727  11.272  0.00  0.00    -0.495 OA
ATOM     40  C   UNL     1      -7.506 -10.710  10.906  0.00  0.00    +0.277 C 
ENDBRANCH  35   7
ENDBRANCH   1  28
ENDBRANCH   8   1
TORSDOF 10
ENDMDL
MODEL 10
REMARK VINA RESULT:      -6.3     24.468     26.357
REMARK  Name = 11882600
REMARK  11 active torsions:
REMARK  status: ('A' for Active; 'I' for Inactive)
REMARK    1  A    between atoms: S_1  and  N_8
REMARK    2  A    between atoms: S_1  and  C_28
REMARK    3  A    between atoms: O_7  and  C_35
REMARK    4  A    between atoms: O_7  and  C_40
REMARK    5  A    between atoms: N_9  and  C_25
REMARK    6  A    between atoms: N_10  and  C_19
REMARK    7  A    between atoms: C_13  and  C_17
REMARK    8  A    between atoms: C_14  and  C_26
REMARK    9  A    between atoms: C_17  and  C_25
REMARK   10  A    between atoms: C_25  and  C_27
REMARK   11  A    between atoms: C_29  and  C_32
REMARK                            x       y       z     vdW  Elec       q    Type
REMARK                         _______ _______ _______ _____ _____    ______ ____
ROOT
ATOM      8  N   UNL     1      10.373   6.801   6.306  0.00  0.00    -0.165 NA
ATOM     14  C   UNL     1      10.868   6.869   4.904  0.00  0.00    +0.167 C 
ATOM     18  C   UNL     1      12.234   7.544   4.817  0.00  0.00    +0.052 C 
ATOM     19  C   UNL     1      13.251   6.994   5.825  0.00  0.00    +0.076 C 
ATOM     22  C   UNL     1      12.665   6.975   7.237  0.00  0.00    +0.039 C 
ATOM     23  C   UNL     1      11.347   6.214   7.272  0.00  0.00    +0.112 C 
ENDROOT
BRANCH  14  26
ATOM      2  O   UNL     1      10.288   4.558   4.934  0.00  0.00    -0.274 OA
ATOM      9  N   UNL     1      11.599   5.371   3.190  0.00  0.00    -0.303 N 
ATOM     26  C   UNL     1      10.868   5.477   4.361  0.00  0.00    +0.233 C 
ATOM     41  H   UNL     1      12.094   6.189   2.847  0.00  0.00    +0.149 HD
BRANCH   9  25
ATOM     25  C   UNL     1      11.772   4.126   2.477  0.00  0.00    +0.159 C 
BRANCH  25  27
ATOM      5  O   UNL     1      13.720   3.021   1.531  0.00  0.00    -0.274 OA
ATOM     11  N   UNL     1      13.889   5.239   2.105  0.00  0.00    -0.328 N 
ATOM     27  C   UNL     1      13.209   4.047   1.976  0.00  0.00    +0.231 C 
ATOM     43  H   UNL     1      14.859   5.318   1.816  0.00  0.00    +0.145 HD
ATOM     44  H   UNL     1      13.461   6.073   2.493  0.00  0.00    +0.145 HD
ENDBRANCH  25  27
BRANCH  25  17
ATOM     17  C   UNL     1      10.744   3.954   1.354  0.00  0.00    +0.035 C 
BRANCH  17  13
ATOM     13  C   UNL     1      11.024   4.801   0.114  0.00  0.00    -0.009 C 
ATOM     15  C   UNL     1      11.159   3.912  -1.130  0.00  0.00    +0.003 C 
ATOM     16  C   UNL     1       9.925   5.854  -0.083  0.00  0.00    +0.003 C 
ATOM     20  C   UNL     1      11.387   4.740  -2.392  0.00  0.00    +0.000 C 
ATOM     21  C   UNL     1      10.155   6.678  -1.348  0.00  0.00    +0.000 C 
ATOM     24  C   UNL     1      10.297   5.791  -2.580  0.00  0.00    +0.000 C 
ENDBRANCH  17  13
ENDBRANCH  25  17
ENDBRANCH   9  25
ENDBRANCH  14  26
BRANCH  19  10
ATOM      6  O   UNL     1      15.444   6.648   4.005  0.00  0.00    -0.270 OA
ATOM     10  N   UNL     1      14.472   7.762   5.792  0.00  0.00    -0.308 N 
ATOM     29  C   UNL     1      15.479   7.519   4.870  0.00  0.00    +0.244 C 
ATOM     42  H   UNL     1      14.620   8.425   6.546  0.00  0.00    +0.149 HD
BRANCH  29  32
ATOM     12  N   UNL     1      18.954   9.997   5.201  0.00  0.00    -0.263 NA
ATOM     32  C   UNL     1      16.685   8.379   4.985  0.00  0.00    +0.040 A 
ATOM     36  C   UNL     1      17.775   8.169   4.147  0.00  0.00    +0.033 A 
ATOM     37  C   UNL     1      16.728   9.398   5.930  0.00  0.00    +0.033 A 
ATOM     38  C   UNL     1      18.875   8.998   4.294  0.00  0.00    +0.111 A 
ATOM     39  C   UNL     1      17.875  10.172   5.997  0.00  0.00    +0.111 A 
ENDBRANCH  29  32
ENDBRANCH  19  10
BRANCH   8   1
ATOM      1  S   UNL     1       9.477   8.152   6.861  0.00  0.00    +0.062 S 
ATOM      3  O   UNL     1      10.390   9.088   7.473  0.00  0.00    -0.153 OA
ATOM      4  O   UNL     1       8.309   7.671   7.557  0.00  0.00    -0.153 OA
BRANCH   1  28
ATOM     28  C   UNL     1       8.962   8.822   5.314  0.00  0.00    +0.106 A 
ATOM     30  C   UNL     1       8.031   8.138   4.533  0.00  0.00    +0.032 A 
ATOM     31  C   UNL     1       9.484  10.037   4.872  0.00  0.00    +0.032 A 
ATOM     33  C   UNL     1       7.622   8.669   3.309  0.00  0.00    +0.047 A 
ATOM     34  C   UNL     1       9.075  10.569   3.648  0.00  0.00    +0.047 A 
ATOM     35  C   UNL     1       8.144   9.884   2.867  0.00  0.00    +0.120 A 
BRANCH  35   7
ATOM      7  O   UNL     1       7.746  10.402   1.673  0.00  0.00    -0.495 OA
ATOM     40  C   UNL     1       8.763  10.661   0.707  0.00  0.00    +0.277 C 
ENDBRANCH  35   7
ENDBRANCH   1  28
ENDBRANCH   8   1
TORSDOF 10
ENDMDL
