REMARK  Name = 51137797
REMARK  7 active torsions:
REMARK  status: ('A' for Active; 'I' for Inactive)
REMARK    1  A    between atoms: S_1  and  N_6
REMARK    2  A    between atoms: S_1  and  C_14
REMARK    3  A    between atoms: O_5  and  C_27
REMARK    4  A    between atoms: O_5  and  C_28
REMARK    5  A    between atoms: C_9  and  C_13
REMARK    6  A    between atoms: C_17  and  C_21
REMARK    7  A    between atoms: C_20  and  C_22
REMARK                            x       y       z     vdW  Elec       q    Type
REMARK                         _______ _______ _______ _____ _____    ______ ____
ROOT
ATOM      6  N   UNL     1      -3.609  -1.323  -0.555  0.00  0.00    -0.176 NA
ATOM      9  C   UNL     1      -1.729  -2.572   0.314  0.00  0.00    +0.094 C 
ATOM     10  C   UNL     1      -2.900  -2.606   1.298  0.00  0.00    +0.031 C 
ATOM     11  C   UNL     1      -2.383  -2.060  -0.981  0.00  0.00    +0.122 C 
ATOM     12  C   UNL     1      -3.726  -1.385   0.921  0.00  0.00    +0.110 C 
ENDROOT
BRANCH   9  13
ATOM      2  O   UNL     1       0.554  -1.700   0.077  0.00  0.00    -0.420 OA
ATOM      7  N   UNL     1      -0.451  -1.113   1.988  0.00  0.00    -0.112 NA
ATOM      8  N   UNL     1       0.817  -0.561   1.984  0.00  0.00    -0.107 NA
ATOM     13  C   UNL     1      -0.560  -1.769   0.857  0.00  0.00    +0.222 A 
ATOM     17  C   UNL     1       1.366  -0.929   0.851  0.00  0.00    +0.248 A 
BRANCH  17  21
ATOM     21  C   UNL     1       2.665  -0.650   0.312  0.00  0.00    +0.039 A 
ATOM     23  C   UNL     1       3.567   0.132   1.034  0.00  0.00    +0.017 A 
ATOM     24  C   UNL     1       3.028  -1.162  -0.934  0.00  0.00    +0.017 A 
ATOM     25  C   UNL     1       4.830   0.404   0.510  0.00  0.00    +0.046 A 
ATOM     26  C   UNL     1       4.292  -0.891  -1.458  0.00  0.00    +0.046 A 
ATOM     27  C   UNL     1       5.193  -0.108  -0.737  0.00  0.00    +0.120 A 
BRANCH  27   5
ATOM      5  O   UNL     1       6.427   0.154  -1.247  0.00  0.00    -0.495 OA
ATOM     28  C   UNL     1       7.300   0.958  -0.454  0.00  0.00    +0.277 C 
ENDBRANCH  27   5
ENDBRANCH  17  21
ENDBRANCH   9  13
BRANCH   6   1
ATOM      1  S   UNL     1      -4.010   0.124  -1.340  0.00  0.00    +0.061 S 
ATOM      3  O   UNL     1      -5.339   0.545  -0.935  0.00  0.00    -0.153 OA
ATOM      4  O   UNL     1      -3.670   0.022  -2.748  0.00  0.00    -0.153 OA
BRANCH   1  14
ATOM     14  C   UNL     1      -2.852   1.229  -0.590  0.00  0.00    +0.105 A 
ATOM     15  C   UNL     1      -1.594   1.415  -1.164  0.00  0.00    +0.029 A 
ATOM     16  C   UNL     1      -3.194   1.913   0.576  0.00  0.00    +0.029 A 
ATOM     18  C   UNL     1      -0.679   2.285  -0.572  0.00  0.00    +0.005 A 
ATOM     19  C   UNL     1      -2.279   2.782   1.169  0.00  0.00    +0.005 A 
ATOM     20  C   UNL     1      -1.022   2.969   0.595  0.00  0.00    -0.050 A 
ATOM     22  C   UNL     1      -0.043   3.899   1.229  0.00  0.00    +0.044 C 
ENDBRANCH   1  14
ENDBRANCH   6   1
TORSDOF 5
