MODEL 1
REMARK VINA RESULT:      -6.3      0.000      0.000
REMARK  Name = 75536858
REMARK  7 active torsions:
REMARK  status: ('A' for Active; 'I' for Inactive)
REMARK    1  A    between atoms: S_1  and  N_10
REMARK    2  A    between atoms: S_1  and  C_18
REMARK    3  A    between atoms: O_6  and  C_14
REMARK    4  A    between atoms: O_6  and  C_21
REMARK    5  A    between atoms: C_19  and  C_22
REMARK    6  A    between atoms: C_20  and  C_23
REMARK    7  A    between atoms: C_26  and  C_28
REMARK                            x       y       z     vdW  Elec       q    Type
REMARK                         _______ _______ _______ _____ _____    ______ ____
ROOT
ATOM      5  O   UNL     1      15.083  11.650  16.181  0.00  0.00    -0.375 OA
ATOM     10  N   UNL     1      13.749   9.246  17.535  0.00  0.00    -0.171 NA
ATOM     13  C   UNL     1      14.703   9.925  18.462  0.00  0.00    +0.156 C 
ATOM     14  C   UNL     1      14.350  11.407  18.561  0.00  0.00    +0.216 C 
ATOM     15  C   UNL     1      14.027   9.489  16.088  0.00  0.00    +0.137 C 
ATOM     16  C   UNL     1      14.975  12.265  17.457  0.00  0.00    +0.205 C 
ATOM     17  C   UNL     1      13.914  10.967  15.741  0.00  0.00    +0.177 C 
ENDROOT
BRANCH  10   1
ATOM      1  S   UNL     1      13.375   7.617  17.933  0.00  0.00    +0.066 S 
ATOM      7  O   UNL     1      14.499   6.780  17.581  0.00  0.00    -0.153 OA
ATOM      8  O   UNL     1      12.041   7.318  17.463  0.00  0.00    -0.153 OA
BRANCH   1  18
ATOM      9  O   UNL     1      12.643   8.133  21.780  0.00  0.00    -0.358 OA
ATOM     11  N   UNL     1      13.929   7.619  21.883  0.00  0.00    -0.081 NA
ATOM     18  C   UNL     1      13.319   7.740  19.692  0.00  0.00    +0.170 A 
ATOM     19  C   UNL     1      12.291   8.200  20.471  0.00  0.00    +0.161 A 
ATOM     20  C   UNL     1      14.313   7.391  20.624  0.00  0.00    +0.107 A 
ATOM     22  C   UNL     1      10.950   8.727  20.184  0.00  0.00    +0.091 C 
ATOM     23  C   UNL     1      15.651   6.835  20.361  0.00  0.00    +0.071 C 
ENDBRANCH   1  18
ENDBRANCH  10   1
BRANCH  14   6
ATOM      6  O   UNL     1      14.788  11.902  19.826  0.00  0.00    -0.469 OA
BRANCH   6  21
ATOM     12  N   UNL     1      14.427  11.253  22.023  0.00  0.00    -0.221 NA
ATOM     21  C   UNL     1      13.920  11.754  20.873  0.00  0.00    +0.215 A 
ATOM     24  C   UNL     1      12.594  12.120  20.705  0.00  0.00    +0.068 A 
ATOM     25  C   UNL     1      11.733  11.960  21.785  0.00  0.00    +0.019 A 
ATOM     26  C   UNL     1      12.216  11.447  22.983  0.00  0.00    +0.073 A 
ATOM     27  C   UNL     1      13.559  11.112  23.050  0.00  0.00    +0.127 A 
BRANCH  26  28
ATOM      2  F   UNL     1      10.916   9.970  24.318  0.00  0.00    -0.166 F 
ATOM      3  F   UNL     1      11.893  11.617  25.347  0.00  0.00    -0.166 F 
ATOM      4  F   UNL     1      10.168  11.999  24.089  0.00  0.00    -0.166 F 
ATOM     28  C   UNL     1      11.320  11.265  24.156  0.00  0.00    +0.419 C 
ENDBRANCH  26  28
ENDBRANCH   6  21
ENDBRANCH  14   6
TORSDOF 5
ENDMDL
MODEL 2
REMARK VINA RESULT:      -6.2      2.740      4.210
REMARK  Name = 75536858
REMARK  7 active torsions:
REMARK  status: ('A' for Active; 'I' for Inactive)
REMARK    1  A    between atoms: S_1  and  N_10
REMARK    2  A    between atoms: S_1  and  C_18
REMARK    3  A    between atoms: O_6  and  C_14
REMARK    4  A    between atoms: O_6  and  C_21
REMARK    5  A    between atoms: C_19  and  C_22
REMARK    6  A    between atoms: C_20  and  C_23
REMARK    7  A    between atoms: C_26  and  C_28
REMARK                            x       y       z     vdW  Elec       q    Type
REMARK                         _______ _______ _______ _____ _____    ______ ____
ROOT
ATOM      5  O   UNL     1      10.623   7.153  21.159  0.00  0.00    -0.375 OA
ATOM     10  N   UNL     1      13.300   8.142  20.043  0.00  0.00    -0.171 NA
ATOM     13  C   UNL     1      12.281   9.233  20.043  0.00  0.00    +0.156 C 
ATOM     14  C   UNL     1      11.702   9.391  21.447  0.00  0.00    +0.216 C 
ATOM     15  C   UNL     1      12.721   6.765  20.044  0.00  0.00    +0.137 C 
ATOM     16  C   UNL     1      10.537   8.445  21.744  0.00  0.00    +0.205 C 
ATOM     17  C   UNL     1      11.887   6.514  21.294  0.00  0.00    +0.177 C 
ENDROOT
BRANCH  10   1
ATOM      1  S   UNL     1      14.616   8.368  18.962  0.00  0.00    +0.066 S 
ATOM      7  O   UNL     1      14.705   9.770  18.622  0.00  0.00    -0.153 OA
ATOM      8  O   UNL     1      14.558   7.350  17.938  0.00  0.00    -0.153 OA
BRANCH   1  18
ATOM      9  O   UNL     1      17.427   8.034  21.718  0.00  0.00    -0.358 OA
ATOM     11  N   UNL     1      17.779   6.944  20.932  0.00  0.00    -0.081 NA
ATOM     18  C   UNL     1      15.961   7.984  20.039  0.00  0.00    +0.170 A 
ATOM     19  C   UNL     1      16.343   8.645  21.176  0.00  0.00    +0.161 A 
ATOM     20  C   UNL     1      16.890   6.934  19.935  0.00  0.00    +0.107 A 
ATOM     22  C   UNL     1      15.837   9.826  21.889  0.00  0.00    +0.091 C 
ATOM     23  C   UNL     1      16.971   5.891  18.900  0.00  0.00    +0.071 C 
ENDBRANCH   1  18
ENDBRANCH  10   1
BRANCH  14   6
ATOM      6  O   UNL     1      11.252  10.735  21.611  0.00  0.00    -0.469 OA
BRANCH   6  21
ATOM     12  N   UNL     1      10.993  11.392  23.820  0.00  0.00    -0.221 NA
ATOM     21  C   UNL     1      11.740  11.416  22.693  0.00  0.00    +0.215 A 
ATOM     24  C   UNL     1      12.951  12.079  22.579  0.00  0.00    +0.068 A 
ATOM     25  C   UNL     1      13.426  12.763  23.693  0.00  0.00    +0.019 A 
ATOM     26  C   UNL     1      12.685  12.763  24.870  0.00  0.00    +0.073 A 
ATOM     27  C   UNL     1      11.487  12.069  24.881  0.00  0.00    +0.127 A 
BRANCH  26  28
ATOM      2  F   UNL     1      14.050  14.484  25.781  0.00  0.00    -0.166 F 
ATOM      3  F   UNL     1      12.168  14.086  26.795  0.00  0.00    -0.166 F 
ATOM      4  F   UNL     1      13.814  12.684  26.978  0.00  0.00    -0.166 F 
ATOM     28  C   UNL     1      13.166  13.484  26.078  0.00  0.00    +0.419 C 
ENDBRANCH  26  28
ENDBRANCH   6  21
ENDBRANCH  14   6
TORSDOF 5
ENDMDL
MODEL 3
REMARK VINA RESULT:      -6.0     13.792     16.503
REMARK  Name = 75536858
REMARK  7 active torsions:
REMARK  status: ('A' for Active; 'I' for Inactive)
REMARK    1  A    between atoms: S_1  and  N_10
REMARK    2  A    between atoms: S_1  and  C_18
REMARK    3  A    between atoms: O_6  and  C_14
REMARK    4  A    between atoms: O_6  and  C_21
REMARK    5  A    between atoms: C_19  and  C_22
REMARK    6  A    between atoms: C_20  and  C_23
REMARK    7  A    between atoms: C_26  and  C_28
REMARK                            x       y       z     vdW  Elec       q    Type
REMARK                         _______ _______ _______ _____ _____    ______ ____
ROOT
ATOM      5  O   UNL     1       9.245   9.454   2.297  0.00  0.00    -0.375 OA
ATOM     10  N   UNL     1      11.650   7.564   2.481  0.00  0.00    -0.171 NA
ATOM     13  C   UNL     1      11.633   8.526   3.624  0.00  0.00    +0.156 C 
ATOM     14  C   UNL     1      10.286   8.447   4.337  0.00  0.00    +0.216 C 
ATOM     15  C   UNL     1      10.897   8.031   1.279  0.00  0.00    +0.137 C 
ATOM     16  C   UNL     1       9.203   9.331   3.712  0.00  0.00    +0.205 C 
ATOM     17  C   UNL     1       9.420   8.232   1.592  0.00  0.00    +0.177 C 
ENDROOT
BRANCH  10   1
ATOM      1  S   UNL     1      13.177   6.855   2.143  0.00  0.00    +0.066 S 
ATOM      7  O   UNL     1      14.036   7.026   3.293  0.00  0.00    -0.153 OA
ATOM      8  O   UNL     1      13.600   7.264   0.823  0.00  0.00    -0.153 OA
BRANCH   1  18
ATOM      9  O   UNL     1      11.649   3.220   2.383  0.00  0.00    -0.358 OA
ATOM     11  N   UNL     1      12.691   2.947   1.504  0.00  0.00    -0.081 NA
ATOM     18  C   UNL     1      12.710   5.155   2.064  0.00  0.00    +0.170 A 
ATOM     19  C   UNL     1      11.671   4.537   2.708  0.00  0.00    +0.161 A 
ATOM     20  C   UNL     1      13.310   4.118   1.328  0.00  0.00    +0.107 A 
ATOM     22  C   UNL     1      10.628   4.995   3.636  0.00  0.00    +0.091 C 
ATOM     23  C   UNL     1      14.482   4.193   0.439  0.00  0.00    +0.071 C 
ENDBRANCH   1  18
ENDBRANCH  10   1
BRANCH  14   6
ATOM      6  O   UNL     1      10.462   8.835   5.699  0.00  0.00    -0.469 OA
BRANCH   6  21
ATOM     12  N   UNL     1      11.140   6.968   6.896  0.00  0.00    -0.221 NA
ATOM     21  C   UNL     1      10.181   7.889   6.646  0.00  0.00    +0.215 A 
ATOM     24  C   UNL     1       8.954   7.924   7.287  0.00  0.00    +0.068 A 
ATOM     25  C   UNL     1       8.692   6.951   8.247  0.00  0.00    +0.019 A 
ATOM     26  C   UNL     1       9.653   5.987   8.530  0.00  0.00    +0.073 A 
ATOM     27  C   UNL     1      10.849   6.039   7.834  0.00  0.00    +0.127 A 
BRANCH  26  28
ATOM      2  F   UNL     1       8.225   5.113  10.219  0.00  0.00    -0.166 F 
ATOM      3  F   UNL     1       9.337   3.670   9.033  0.00  0.00    -0.166 F 
ATOM      4  F   UNL     1      10.364   4.868  10.521  0.00  0.00    -0.166 F 
ATOM     28  C   UNL     1       9.403   4.935   9.550  0.00  0.00    +0.419 C 
ENDBRANCH  26  28
ENDBRANCH   6  21
ENDBRANCH  14   6
TORSDOF 5
ENDMDL
MODEL 4
REMARK VINA RESULT:      -6.0      1.186      2.051
REMARK  Name = 75536858
REMARK  7 active torsions:
REMARK  status: ('A' for Active; 'I' for Inactive)
REMARK    1  A    between atoms: S_1  and  N_10
REMARK    2  A    between atoms: S_1  and  C_18
REMARK    3  A    between atoms: O_6  and  C_14
REMARK    4  A    between atoms: O_6  and  C_21
REMARK    5  A    between atoms: C_19  and  C_22
REMARK    6  A    between atoms: C_20  and  C_23
REMARK    7  A    between atoms: C_26  and  C_28
REMARK                            x       y       z     vdW  Elec       q    Type
REMARK                         _______ _______ _______ _____ _____    ______ ____
ROOT
ATOM      5  O   UNL     1      14.898  11.165  16.377  0.00  0.00    -0.375 OA
ATOM     10  N   UNL     1      12.956   9.484  18.049  0.00  0.00    -0.171 NA
ATOM     13  C   UNL     1      13.973  10.152  18.915  0.00  0.00    +0.156 C 
ATOM     14  C   UNL     1      13.966  11.654  18.646  0.00  0.00    +0.216 C 
ATOM     15  C   UNL     1      13.382   9.312  16.628  0.00  0.00    +0.137 C 
ATOM     16  C   UNL     1      14.846  12.075  17.467  0.00  0.00    +0.205 C 
ATOM     17  C   UNL     1      13.637  10.656  15.958  0.00  0.00    +0.177 C 
ENDROOT
BRANCH  10   1
ATOM      1  S   UNL     1      12.190   8.112  18.742  0.00  0.00    +0.066 S 
ATOM      7  O   UNL     1      12.250   7.018  17.799  0.00  0.00    -0.153 OA
ATOM      8  O   UNL     1      10.937   8.526  19.332  0.00  0.00    -0.153 OA
BRANCH   1  18
ATOM      9  O   UNL     1      15.130   7.133  21.192  0.00  0.00    -0.358 OA
ATOM     11  N   UNL     1      14.210   7.568  22.138  0.00  0.00    -0.081 NA
ATOM     18  C   UNL     1      13.321   7.763  20.051  0.00  0.00    +0.170 A 
ATOM     19  C   UNL     1      14.589   7.254  19.953  0.00  0.00    +0.161 A 
ATOM     20  C   UNL     1      13.138   7.940  21.434  0.00  0.00    +0.107 A 
ATOM     22  C   UNL     1      15.436   6.833  18.829  0.00  0.00    +0.091 C 
ATOM     23  C   UNL     1      11.953   8.462  22.135  0.00  0.00    +0.071 C 
ENDBRANCH   1  18
ENDBRANCH  10   1
BRANCH  14   6
ATOM      6  O   UNL     1      14.416  12.334  19.818  0.00  0.00    -0.469 OA
BRANCH   6  21
ATOM     12  N   UNL     1      12.328  12.479  20.815  0.00  0.00    -0.221 NA
ATOM     21  C   UNL     1      13.645  12.196  20.939  0.00  0.00    +0.215 A 
ATOM     24  C   UNL     1      14.242  11.782  22.119  0.00  0.00    +0.068 A 
ATOM     25  C   UNL     1      13.436  11.650  23.245  0.00  0.00    +0.019 A 
ATOM     26  C   UNL     1      12.077  11.933  23.157  0.00  0.00    +0.073 A 
ATOM     27  C   UNL     1      11.578  12.340  21.931  0.00  0.00    +0.127 A 
BRANCH  26  28
ATOM      2  F   UNL     1       9.984  12.421  24.173  0.00  0.00    -0.166 F 
ATOM      3  F   UNL     1      10.888  10.505  24.664  0.00  0.00    -0.166 F 
ATOM      4  F   UNL     1      11.714  12.334  25.487  0.00  0.00    -0.166 F 
ATOM     28  C   UNL     1      11.190  11.801  24.343  0.00  0.00    +0.419 C 
ENDBRANCH  26  28
ENDBRANCH   6  21
ENDBRANCH  14   6
TORSDOF 5
ENDMDL
MODEL 5
REMARK VINA RESULT:      -5.9     27.729     29.498
REMARK  Name = 75536858
REMARK  7 active torsions:
REMARK  status: ('A' for Active; 'I' for Inactive)
REMARK    1  A    between atoms: S_1  and  N_10
REMARK    2  A    between atoms: S_1  and  C_18
REMARK    3  A    between atoms: O_6  and  C_14
REMARK    4  A    between atoms: O_6  and  C_21
REMARK    5  A    between atoms: C_19  and  C_22
REMARK    6  A    between atoms: C_20  and  C_23
REMARK    7  A    between atoms: C_26  and  C_28
REMARK                            x       y       z     vdW  Elec       q    Type
REMARK                         _______ _______ _______ _____ _____    ______ ____
ROOT
ATOM      5  O   UNL     1      -5.794 -15.139  15.684  0.00  0.00    -0.375 OA
ATOM     10  N   UNL     1      -6.276 -12.701  17.477  0.00  0.00    -0.171 NA
ATOM     13  C   UNL     1      -4.832 -12.826  17.115  0.00  0.00    +0.156 C 
ATOM     14  C   UNL     1      -4.691 -12.895  15.597  0.00  0.00    +0.216 C 
ATOM     15  C   UNL     1      -7.041 -13.980  17.385  0.00  0.00    +0.137 C 
ATOM     16  C   UNL     1      -4.849 -14.307  15.026  0.00  0.00    +0.205 C 
ATOM     17  C   UNL     1      -7.046 -14.524  15.963  0.00  0.00    +0.177 C 
ENDROOT
BRANCH  10   1
ATOM      1  S   UNL     1      -6.602 -11.767  18.881  0.00  0.00    +0.066 S 
ATOM      7  O   UNL     1      -5.390 -11.088  19.281  0.00  0.00    -0.153 OA
ATOM      8  O   UNL     1      -7.352 -12.575  19.815  0.00  0.00    -0.153 OA
BRANCH   1  18
ATOM      9  O   UNL     1      -9.488  -9.300  17.792  0.00  0.00    -0.358 OA
ATOM     11  N   UNL     1      -8.513  -8.884  16.894  0.00  0.00    -0.081 NA
ATOM     18  C   UNL     1      -7.697 -10.564  18.197  0.00  0.00    +0.170 A 
ATOM     19  C   UNL     1      -8.990 -10.301  18.562  0.00  0.00    +0.161 A 
ATOM     20  C   UNL     1      -7.452  -9.652  17.155  0.00  0.00    +0.107 A 
ATOM     22  C   UNL     1      -9.901 -10.860  19.571  0.00  0.00    +0.091 C 
ATOM     23  C   UNL     1      -6.217  -9.475  16.374  0.00  0.00    +0.071 C 
ENDBRANCH   1  18
ENDBRANCH  10   1
BRANCH  14   6
ATOM      6  O   UNL     1      -3.405 -12.396  15.231  0.00  0.00    -0.469 OA
BRANCH   6  21
ATOM     12  N   UNL     1      -4.441 -11.006  13.691  0.00  0.00    -0.221 NA
ATOM     21  C   UNL     1      -3.334 -11.689  14.062  0.00  0.00    +0.215 A 
ATOM     24  C   UNL     1      -2.154 -11.708  13.336  0.00  0.00    +0.068 A 
ATOM     25  C   UNL     1      -2.107 -10.980  12.151  0.00  0.00    +0.019 A 
ATOM     26  C   UNL     1      -3.225 -10.267  11.736  0.00  0.00    +0.073 A 
ATOM     27  C   UNL     1      -4.356 -10.312  12.534  0.00  0.00    +0.127 A 
BRANCH  26  28
ATOM      2  F   UNL     1      -3.538 -10.225   9.379  0.00  0.00    -0.166 F 
ATOM      3  F   UNL     1      -4.077  -8.423  10.470  0.00  0.00    -0.166 F 
ATOM      4  F   UNL     1      -1.987  -8.931  10.184  0.00  0.00    -0.166 F 
ATOM     28  C   UNL     1      -3.206  -9.479  10.475  0.00  0.00    +0.419 C 
ENDBRANCH  26  28
ENDBRANCH   6  21
ENDBRANCH  14   6
TORSDOF 5
ENDMDL
MODEL 6
REMARK VINA RESULT:      -5.9      4.137      6.688
REMARK  Name = 75536858
REMARK  7 active torsions:
REMARK  status: ('A' for Active; 'I' for Inactive)
REMARK    1  A    between atoms: S_1  and  N_10
REMARK    2  A    between atoms: S_1  and  C_18
REMARK    3  A    between atoms: O_6  and  C_14
REMARK    4  A    between atoms: O_6  and  C_21
REMARK    5  A    between atoms: C_19  and  C_22
REMARK    6  A    between atoms: C_20  and  C_23
REMARK    7  A    between atoms: C_26  and  C_28
REMARK                            x       y       z     vdW  Elec       q    Type
REMARK                         _______ _______ _______ _____ _____    ______ ____
ROOT
ATOM      5  O   UNL     1      11.775   7.268  21.943  0.00  0.00    -0.375 OA
ATOM     10  N   UNL     1      11.877  10.316  21.640  0.00  0.00    -0.171 NA
ATOM     13  C   UNL     1      13.071   9.672  21.014  0.00  0.00    +0.156 C 
ATOM     14  C   UNL     1      12.615   8.617  20.011  0.00  0.00    +0.216 C 
ATOM     15  C   UNL     1      11.217   9.487  22.692  0.00  0.00    +0.137 C 
ATOM     16  C   UNL     1      12.336   7.249  20.637  0.00  0.00    +0.205 C 
ATOM     17  C   UNL     1      10.693   8.176  22.119  0.00  0.00    +0.177 C 
ENDROOT
BRANCH  10   1
ATOM      1  S   UNL     1      12.065  11.975  22.043  0.00  0.00    +0.066 S 
ATOM      7  O   UNL     1      10.757  12.564  22.219  0.00  0.00    -0.153 OA
ATOM      8  O   UNL     1      13.039  12.563  21.152  0.00  0.00    -0.153 OA
BRANCH   1  18
ATOM      9  O   UNL     1      13.123  11.746  25.842  0.00  0.00    -0.358 OA
ATOM     11  N   UNL     1      14.362  11.489  25.268  0.00  0.00    -0.081 NA
ATOM     18  C   UNL     1      12.808  11.817  23.636  0.00  0.00    +0.170 A 
ATOM     19  C   UNL     1      12.206  11.939  24.860  0.00  0.00    +0.161 A 
ATOM     20  C   UNL     1      14.149  11.536  23.950  0.00  0.00    +0.107 A 
ATOM     22  C   UNL     1      10.834  12.225  25.299  0.00  0.00    +0.091 C 
ATOM     23  C   UNL     1      15.271  11.304  23.024  0.00  0.00    +0.071 C 
ENDBRANCH   1  18
ENDBRANCH  10   1
BRANCH  14   6
ATOM      6  O   UNL     1      13.623   8.465  19.012  0.00  0.00    -0.469 OA
BRANCH   6  21
ATOM     12  N   UNL     1      15.140   6.712  19.082  0.00  0.00    -0.221 NA
ATOM     21  C   UNL     1      14.832   7.981  19.433  0.00  0.00    +0.215 A 
ATOM     24  C   UNL     1      15.661   8.802  20.181  0.00  0.00    +0.068 A 
ATOM     25  C   UNL     1      16.885   8.287  20.596  0.00  0.00    +0.019 A 
ATOM     26  C   UNL     1      17.236   6.986  20.256  0.00  0.00    +0.073 A 
ATOM     27  C   UNL     1      16.338   6.247  19.504  0.00  0.00    +0.127 A 
BRANCH  26  28
ATOM      2  F   UNL     1      18.600   6.185  22.031  0.00  0.00    -0.166 F 
ATOM      3  F   UNL     1      18.822   5.201  20.105  0.00  0.00    -0.166 F 
ATOM      4  F   UNL     1      19.615   7.199  20.397  0.00  0.00    -0.166 F 
ATOM     28  C   UNL     1      18.537   6.407  20.684  0.00  0.00    +0.419 C 
ENDBRANCH  26  28
ENDBRANCH   6  21
ENDBRANCH  14   6
TORSDOF 5
ENDMDL
MODEL 7
REMARK VINA RESULT:      -5.9      2.083      4.271
REMARK  Name = 75536858
REMARK  7 active torsions:
REMARK  status: ('A' for Active; 'I' for Inactive)
REMARK    1  A    between atoms: S_1  and  N_10
REMARK    2  A    between atoms: S_1  and  C_18
REMARK    3  A    between atoms: O_6  and  C_14
REMARK    4  A    between atoms: O_6  and  C_21
REMARK    5  A    between atoms: C_19  and  C_22
REMARK    6  A    between atoms: C_20  and  C_23
REMARK    7  A    between atoms: C_26  and  C_28
REMARK                            x       y       z     vdW  Elec       q    Type
REMARK                         _______ _______ _______ _____ _____    ______ ____
ROOT
ATOM      5  O   UNL     1      10.539   7.208  21.574  0.00  0.00    -0.375 OA
ATOM     10  N   UNL     1      12.883   7.783  19.685  0.00  0.00    -0.171 NA
ATOM     13  C   UNL     1      11.908   8.915  19.694  0.00  0.00    +0.156 C 
ATOM     14  C   UNL     1      11.686   9.386  21.128  0.00  0.00    +0.216 C 
ATOM     15  C   UNL     1      12.302   6.474  20.108  0.00  0.00    +0.137 C 
ATOM     16  C   UNL     1      10.614   8.594  21.880  0.00  0.00    +0.205 C 
ATOM     17  C   UNL     1      11.790   6.531  21.542  0.00  0.00    +0.177 C 
ENDROOT
BRANCH  10   1
ATOM      1  S   UNL     1      13.903   7.705  18.306  0.00  0.00    +0.066 S 
ATOM      7  O   UNL     1      13.104   7.357  17.152  0.00  0.00    -0.153 OA
ATOM      8  O   UNL     1      15.093   6.958  18.648  0.00  0.00    -0.153 OA
BRANCH   1  18
ATOM      9  O   UNL     1      14.618  11.481  17.390  0.00  0.00    -0.358 OA
ATOM     11  N   UNL     1      15.194  11.463  18.655  0.00  0.00    -0.081 NA
ATOM     18  C   UNL     1      14.350   9.406  18.163  0.00  0.00    +0.170 A 
ATOM     19  C   UNL     1      14.119  10.251  17.109  0.00  0.00    +0.161 A 
ATOM     20  C   UNL     1      15.022  10.214  19.097  0.00  0.00    +0.107 A 
ATOM     22  C   UNL     1      13.471  10.095  15.800  0.00  0.00    +0.091 C 
ATOM     23  C   UNL     1      15.522   9.840  20.430  0.00  0.00    +0.071 C 
ENDBRANCH   1  18
ENDBRANCH  10   1
BRANCH  14   6
ATOM      6  O   UNL     1      11.307  10.762  21.108  0.00  0.00    -0.469 OA
BRANCH   6  21
ATOM     12  N   UNL     1      10.778  12.559  22.474  0.00  0.00    -0.221 NA
ATOM     21  C   UNL     1      11.564  11.484  22.241  0.00  0.00    +0.215 A 
ATOM     24  C   UNL     1      12.595  11.082  23.075  0.00  0.00    +0.068 A 
ATOM     25  C   UNL     1      12.836  11.832  24.221  0.00  0.00    +0.019 A 
ATOM     26  C   UNL     1      12.049  12.946  24.494  0.00  0.00    +0.073 A 
ATOM     27  C   UNL     1      11.043  13.264  23.597  0.00  0.00    +0.127 A 
BRANCH  26  28
ATOM      2  F   UNL     1      13.121  13.166  26.604  0.00  0.00    -0.166 F 
ATOM      3  F   UNL     1      12.843  14.989  25.452  0.00  0.00    -0.166 F 
ATOM      4  F   UNL     1      11.143  14.047  26.415  0.00  0.00    -0.166 F 
ATOM     28  C   UNL     1      12.281  13.768  25.711  0.00  0.00    +0.419 C 
ENDBRANCH  26  28
ENDBRANCH   6  21
ENDBRANCH  14   6
TORSDOF 5
ENDMDL
MODEL 8
REMARK VINA RESULT:      -5.8     27.624     29.238
REMARK  Name = 75536858
REMARK  7 active torsions:
REMARK  status: ('A' for Active; 'I' for Inactive)
REMARK    1  A    between atoms: S_1  and  N_10
REMARK    2  A    between atoms: S_1  and  C_18
REMARK    3  A    between atoms: O_6  and  C_14
REMARK    4  A    between atoms: O_6  and  C_21
REMARK    5  A    between atoms: C_19  and  C_22
REMARK    6  A    between atoms: C_20  and  C_23
REMARK    7  A    between atoms: C_26  and  C_28
REMARK                            x       y       z     vdW  Elec       q    Type
REMARK                         _______ _______ _______ _____ _____    ______ ____
ROOT
ATOM      5  O   UNL     1      -4.561 -15.653  15.269  0.00  0.00    -0.375 OA
ATOM     10  N   UNL     1      -4.418 -12.704  16.093  0.00  0.00    -0.171 NA
ATOM     13  C   UNL     1      -3.393 -13.023  15.055  0.00  0.00    +0.156 C 
ATOM     14  C   UNL     1      -4.072 -13.656  13.843  0.00  0.00    +0.216 C 
ATOM     15  C   UNL     1      -4.885 -13.889  16.874  0.00  0.00    +0.137 C 
ATOM     16  C   UNL     1      -4.269 -15.169  13.965  0.00  0.00    +0.205 C 
ATOM     17  C   UNL     1      -5.555 -14.919  15.974  0.00  0.00    +0.177 C 
ENDROOT
BRANCH  10   1
ATOM      1  S   UNL     1      -4.098 -11.303  17.032  0.00  0.00    +0.066 S 
ATOM      7  O   UNL     1      -3.114 -10.496  16.347  0.00  0.00    -0.153 OA
ATOM      8  O   UNL     1      -3.917 -11.697  18.411  0.00  0.00    -0.153 OA
BRANCH   1  18
ATOM      9  O   UNL     1      -7.457  -9.451  16.087  0.00  0.00    -0.358 OA
ATOM     11  N   UNL     1      -7.654  -9.547  17.459  0.00  0.00    -0.081 NA
ATOM     18  C   UNL     1      -5.657 -10.487  16.899  0.00  0.00    +0.170 A 
ATOM     19  C   UNL     1      -6.265 -10.015  15.766  0.00  0.00    +0.161 A 
ATOM     20  C   UNL     1      -6.567 -10.169  17.923  0.00  0.00    +0.107 A 
ATOM     22  C   UNL     1      -5.900  -9.998  14.343  0.00  0.00    +0.091 C 
ATOM     23  C   UNL     1      -6.443 -10.438  19.365  0.00  0.00    +0.071 C 
ENDBRANCH   1  18
ENDBRANCH  10   1
BRANCH  14   6
ATOM      6  O   UNL     1      -3.286 -13.389  12.682  0.00  0.00    -0.469 OA
BRANCH   6  21
ATOM     12  N   UNL     1      -4.869 -12.161  11.515  0.00  0.00    -0.221 NA
ATOM     21  C   UNL     1      -3.601 -12.261  11.976  0.00  0.00    +0.215 A 
ATOM     24  C   UNL     1      -2.625 -11.299  11.774  0.00  0.00    +0.068 A 
ATOM     25  C   UNL     1      -2.971 -10.161  11.053  0.00  0.00    +0.019 A 
ATOM     26  C   UNL     1      -4.264 -10.023  10.562  0.00  0.00    +0.073 A 
ATOM     27  C   UNL     1      -5.167 -11.042  10.818  0.00  0.00    +0.127 A 
BRANCH  26  28
ATOM      2  F   UNL     1      -5.869  -8.969   9.159  0.00  0.00    -0.166 F 
ATOM      3  F   UNL     1      -4.793  -7.690  10.551  0.00  0.00    -0.166 F 
ATOM      4  F   UNL     1      -3.782  -8.477   8.801  0.00  0.00    -0.166 F 
ATOM     28  C   UNL     1      -4.665  -8.819   9.787  0.00  0.00    +0.419 C 
ENDBRANCH  26  28
ENDBRANCH   6  21
ENDBRANCH  14   6
TORSDOF 5
ENDMDL
MODEL 9
REMARK VINA RESULT:      -5.8     14.286     17.077
REMARK  Name = 75536858
REMARK  7 active torsions:
REMARK  status: ('A' for Active; 'I' for Inactive)
REMARK    1  A    between atoms: S_1  and  N_10
REMARK    2  A    between atoms: S_1  and  C_18
REMARK    3  A    between atoms: O_6  and  C_14
REMARK    4  A    between atoms: O_6  and  C_21
REMARK    5  A    between atoms: C_19  and  C_22
REMARK    6  A    between atoms: C_20  and  C_23
REMARK    7  A    between atoms: C_26  and  C_28
REMARK                            x       y       z     vdW  Elec       q    Type
REMARK                         _______ _______ _______ _____ _____    ______ ____
ROOT
ATOM      5  O   UNL     1       8.874   9.183   1.007  0.00  0.00    -0.375 OA
ATOM     10  N   UNL     1      11.036   7.643   2.538  0.00  0.00    -0.171 NA
ATOM     13  C   UNL     1      10.148   8.397   3.473  0.00  0.00    +0.156 C 
ATOM     14  C   UNL     1       8.693   8.018   3.213  0.00  0.00    +0.216 C 
ATOM     15  C   UNL     1      11.060   8.186   1.147  0.00  0.00    +0.137 C 
ATOM     16  C   UNL     1       8.033   8.830   2.096  0.00  0.00    +0.205 C 
ATOM     17  C   UNL     1       9.681   8.126   0.503  0.00  0.00    +0.177 C 
ENDROOT
BRANCH  10   1
ATOM      1  S   UNL     1      12.574   7.216   3.171  0.00  0.00    +0.066 S 
ATOM      7  O   UNL     1      12.431   6.904   4.575  0.00  0.00    -0.153 OA
ATOM      8  O   UNL     1      13.550   8.178   2.712  0.00  0.00    -0.153 OA
BRANCH   1  18
ATOM      9  O   UNL     1      13.730   4.129   0.994  0.00  0.00    -0.358 OA
ATOM     11  N   UNL     1      12.579   3.576   1.541  0.00  0.00    -0.081 NA
ATOM     18  C   UNL     1      12.850   5.704   2.305  0.00  0.00    +0.170 A 
ATOM     19  C   UNL     1      13.881   5.396   1.457  0.00  0.00    +0.161 A 
ATOM     20  C   UNL     1      12.070   4.534   2.320  0.00  0.00    +0.107 A 
ATOM     22  C   UNL     1      15.057   6.130   0.972  0.00  0.00    +0.091 C 
ATOM     23  C   UNL     1      10.826   4.280   3.065  0.00  0.00    +0.071 C 
ENDBRANCH   1  18
ENDBRANCH  10   1
BRANCH  14   6
ATOM      6  O   UNL     1       7.947   8.204   4.415  0.00  0.00    -0.469 OA
BRANCH   6  21
ATOM     12  N   UNL     1       8.680   6.187   5.294  0.00  0.00    -0.221 NA
ATOM     21  C   UNL     1       8.352   7.483   5.505  0.00  0.00    +0.215 A 
ATOM     24  C   UNL     1       8.406   8.105   6.741  0.00  0.00    +0.068 A 
ATOM     25  C   UNL     1       8.822   7.350   7.833  0.00  0.00    +0.019 A 
ATOM     26  C   UNL     1       9.166   6.015   7.656  0.00  0.00    +0.073 A 
ATOM     27  C   UNL     1       9.078   5.486   6.379  0.00  0.00    +0.127 A 
BRANCH  26  28
ATOM      2  F   UNL     1       8.702   5.146   9.821  0.00  0.00    -0.166 F 
ATOM      3  F   UNL     1       9.844   3.872   8.478  0.00  0.00    -0.166 F 
ATOM      4  F   UNL     1      10.779   5.611   9.376  0.00  0.00    -0.166 F 
ATOM     28  C   UNL     1       9.614   5.181   8.803  0.00  0.00    +0.419 C 
ENDBRANCH  26  28
ENDBRANCH   6  21
ENDBRANCH  14   6
TORSDOF 5
ENDMDL
MODEL 10
REMARK VINA RESULT:      -5.8     14.885     17.621
REMARK  Name = 75536858
REMARK  7 active torsions:
REMARK  status: ('A' for Active; 'I' for Inactive)
REMARK    1  A    between atoms: S_1  and  N_10
REMARK    2  A    between atoms: S_1  and  C_18
REMARK    3  A    between atoms: O_6  and  C_14
REMARK    4  A    between atoms: O_6  and  C_21
REMARK    5  A    between atoms: C_19  and  C_22
REMARK    6  A    between atoms: C_20  and  C_23
REMARK    7  A    between atoms: C_26  and  C_28
REMARK                            x       y       z     vdW  Elec       q    Type
REMARK                         _______ _______ _______ _____ _____    ______ ____
ROOT
ATOM      5  O   UNL     1      11.639   8.790   1.831  0.00  0.00    -0.375 OA
ATOM     10  N   UNL     1      11.010   5.791   1.833  0.00  0.00    -0.171 NA
ATOM     13  C   UNL     1      12.090   6.116   2.813  0.00  0.00    +0.156 C 
ATOM     14  C   UNL     1      11.604   7.205   3.765  0.00  0.00    +0.216 C 
ATOM     15  C   UNL     1      10.859   6.793   0.736  0.00  0.00    +0.137 C 
ATOM     16  C   UNL     1      11.804   8.626   3.232  0.00  0.00    +0.205 C 
ATOM     17  C   UNL     1      10.484   8.164   1.284  0.00  0.00    +0.177 C 
ENDROOT
BRANCH  10   1
ATOM      1  S   UNL     1      10.951   4.152   1.323  0.00  0.00    +0.066 S 
ATOM      7  O   UNL     1       9.706   3.925   0.625  0.00  0.00    -0.153 OA
ATOM      8  O   UNL     1      11.359   3.307   2.423  0.00  0.00    -0.153 OA
BRANCH   1  18
ATOM      9  O   UNL     1      13.383   4.313  -1.785  0.00  0.00    -0.358 OA
ATOM     11  N   UNL     1      14.320   4.006  -0.806  0.00  0.00    -0.081 NA
ATOM     18  C   UNL     1      12.250   4.159   0.129  0.00  0.00    +0.170 A 
ATOM     19  C   UNL     1      12.154   4.401  -1.216  0.00  0.00    +0.161 A 
ATOM     20  C   UNL     1      13.621   3.919   0.328  0.00  0.00    +0.107 A 
ATOM     22  C   UNL     1      11.040   4.721  -2.119  0.00  0.00    +0.091 C 
ATOM     23  C   UNL     1      14.315   3.602   1.587  0.00  0.00    +0.071 C 
ENDBRANCH   1  18
ENDBRANCH  10   1
BRANCH  14   6
ATOM      6  O   UNL     1      12.303   7.079   5.003  0.00  0.00    -0.469 OA
BRANCH   6  21
ATOM     12  N   UNL     1      12.140   6.679   7.282  0.00  0.00    -0.221 NA
ATOM     21  C   UNL     1      11.604   6.539   6.048  0.00  0.00    +0.215 A 
ATOM     24  C   UNL     1      10.406   5.892   5.792  0.00  0.00    +0.068 A 
ATOM     25  C   UNL     1       9.714   5.352   6.872  0.00  0.00    +0.019 A 
ATOM     26  C   UNL     1      10.234   5.475   8.155  0.00  0.00    +0.073 A 
ATOM     27  C   UNL     1      11.439   6.141   8.305  0.00  0.00    +0.127 A 
BRANCH  26  28
ATOM      2  F   UNL     1       9.082   3.632   9.118  0.00  0.00    -0.166 F 
ATOM      3  F   UNL     1      10.281   4.848  10.463  0.00  0.00    -0.166 F 
ATOM      4  F   UNL     1       8.406   5.617   9.691  0.00  0.00    -0.166 F 
ATOM     28  C   UNL     1       9.518   4.909   9.329  0.00  0.00    +0.419 C 
ENDBRANCH  26  28
ENDBRANCH   6  21
ENDBRANCH  14   6
TORSDOF 5
ENDMDL
