MODEL 1
REMARK VINA RESULT:      -5.7      0.000      0.000
REMARK  Name = 56775516
REMARK  11 active torsions:
REMARK  status: ('A' for Active; 'I' for Inactive)
REMARK    1  A    between atoms: O_3  and  C_16
REMARK    2  A    between atoms: O_4  and  C_21
REMARK    3  A    between atoms: O_4  and  C_24
REMARK    4  A    between atoms: N_5  and  C_7
REMARK    5  A    between atoms: N_5  and  C_12
REMARK    6  A    between atoms: C_7  and  C_10
REMARK    7  A    between atoms: C_10  and  C_11
REMARK    8  A    between atoms: C_12  and  C_14
REMARK    9  A    between atoms: C_15  and  C_16
REMARK   10  A    between atoms: C_16  and  C_19
REMARK   11  A    between atoms: C_16  and  C_20
REMARK                            x       y       z     vdW  Elec       q    Type
REMARK                         _______ _______ _______ _____ _____    ______ ____
ROOT
ATOM      1  O   UNL     1      12.825   7.763   3.097  0.00  0.00    -0.376 OA
ATOM      7  C   UNL     1      11.474   6.109   3.088  0.00  0.00    +0.072 C 
ATOM      8  C   UNL     1      12.006   7.129   2.087  0.00  0.00    +0.184 C 
ATOM      9  C   UNL     1      12.434   6.769   4.072  0.00  0.00    +0.184 C 
ENDROOT
BRANCH   7   5
ATOM      5  N   UNL     1      10.103   6.475   3.449  0.00  0.00    -0.302 NA
ATOM     25  H   UNL     1       9.479   6.645   2.662  0.00  0.00    +0.123 HD
BRANCH   5  12
ATOM     12  C   UNL     1       9.540   5.432   4.310  0.00  0.00    +0.117 C 
BRANCH  12  14
ATOM     14  C   UNL     1       9.353   5.896   5.715  0.00  0.00    -0.030 A 
ATOM     17  C   UNL     1       9.811   5.114   6.775  0.00  0.00    +0.050 A 
ATOM     18  C   UNL     1       8.718   7.112   5.969  0.00  0.00    +0.005 A 
ATOM     21  C   UNL     1       9.636   5.548   8.089  0.00  0.00    +0.120 A 
ATOM     22  C   UNL     1       8.542   7.546   7.282  0.00  0.00    +0.004 A 
ATOM     23  C   UNL     1       9.000   6.764   8.342  0.00  0.00    +0.045 A 
BRANCH  21   4
ATOM      4  O   UNL     1      10.081   4.784   9.123  0.00  0.00    -0.495 OA
ATOM     24  C   UNL     1       9.175   4.558  10.201  0.00  0.00    +0.277 C 
ENDBRANCH  21   4
ENDBRANCH  12  14
ENDBRANCH   5  12
ENDBRANCH   7   5
BRANCH   7  10
ATOM     10  C   UNL     1      11.631   4.650   2.791  0.00  0.00    +0.085 C 
BRANCH  10  11
ATOM      2  O   UNL     1      10.125   4.092  -0.446  0.00  0.00    -0.356 OA
ATOM      6  N   UNL     1      10.055   4.398   0.908  0.00  0.00    -0.083 NA
ATOM     11  C   UNL     1      11.319   4.360   1.337  0.00  0.00    +0.086 A 
ATOM     13  C   UNL     1      12.222   4.039   0.309  0.00  0.00    +0.074 A 
ATOM     15  C   UNL     1      11.421   3.880  -0.791  0.00  0.00    +0.168 A 
BRANCH  15  16
ATOM     16  C   UNL     1      11.679   3.544  -2.196  0.00  0.00    +0.120 C 
ATOM     19  C   UNL     1      11.867   2.017  -2.431  0.00  0.00    +0.049 C 
ATOM     20  C   UNL     1      12.917   4.286  -2.780  0.00  0.00    +0.049 C 
BRANCH  16   3
ATOM      3  O   UNL     1      10.579   3.918  -3.071  0.00  0.00    -0.381 OA
ATOM     26  H   UNL     1       9.745   3.675  -2.633  0.00  0.00    +0.211 HD
ENDBRANCH  16   3
ENDBRANCH  15  16
ENDBRANCH  10  11
ENDBRANCH   7  10
TORSDOF 8
ENDMDL
MODEL 2
REMARK VINA RESULT:      -5.6     24.023     27.615
REMARK  Name = 56775516
REMARK  11 active torsions:
REMARK  status: ('A' for Active; 'I' for Inactive)
REMARK    1  A    between atoms: O_3  and  C_16
REMARK    2  A    between atoms: O_4  and  C_21
REMARK    3  A    between atoms: O_4  and  C_24
REMARK    4  A    between atoms: N_5  and  C_7
REMARK    5  A    between atoms: N_5  and  C_12
REMARK    6  A    between atoms: C_7  and  C_10
REMARK    7  A    between atoms: C_10  and  C_11
REMARK    8  A    between atoms: C_12  and  C_14
REMARK    9  A    between atoms: C_15  and  C_16
REMARK   10  A    between atoms: C_16  and  C_19
REMARK   11  A    between atoms: C_16  and  C_20
REMARK                            x       y       z     vdW  Elec       q    Type
REMARK                         _______ _______ _______ _____ _____    ______ ____
ROOT
ATOM      1  O   UNL     1      -8.044 -13.072  18.973  0.00  0.00    -0.376 OA
ATOM      7  C   UNL     1      -7.413 -11.196  18.173  0.00  0.00    +0.072 C 
ATOM      8  C   UNL     1      -8.170 -11.696  19.398  0.00  0.00    +0.184 C 
ATOM      9  C   UNL     1      -7.238 -12.673  17.840  0.00  0.00    +0.184 C 
ENDROOT
BRANCH   7   5
ATOM      5  N   UNL     1      -8.372 -10.610  17.233  0.00  0.00    -0.302 NA
ATOM     25  H   UNL     1      -9.287 -11.057  17.214  0.00  0.00    +0.123 HD
BRANCH   5  12
ATOM     12  C   UNL     1      -8.524  -9.184  17.529  0.00  0.00    +0.117 C 
BRANCH  12  14
ATOM     14  C   UNL     1      -9.867  -8.665  17.143  0.00  0.00    -0.030 A 
ATOM     17  C   UNL     1      -9.982  -7.427  16.512  0.00  0.00    +0.050 A 
ATOM     18  C   UNL     1     -11.010  -9.417  17.416  0.00  0.00    +0.005 A 
ATOM     21  C   UNL     1     -11.239  -6.941  16.152  0.00  0.00    +0.120 A 
ATOM     22  C   UNL     1     -12.267  -8.932  17.057  0.00  0.00    +0.004 A 
ATOM     23  C   UNL     1     -12.382  -7.694  16.425  0.00  0.00    +0.045 A 
BRANCH  21   4
ATOM      4  O   UNL     1     -11.351  -5.732  15.537  0.00  0.00    -0.495 OA
ATOM     24  C   UNL     1     -12.238  -5.649  14.424  0.00  0.00    +0.277 C 
ENDBRANCH  21   4
ENDBRANCH  12  14
ENDBRANCH   5  12
ENDBRANCH   7   5
BRANCH   7  10
ATOM     10  C   UNL     1      -6.194 -10.348  18.368  0.00  0.00    +0.085 C 
BRANCH  10  11
ATOM      2  O   UNL     1      -4.616 -10.257  15.119  0.00  0.00    -0.356 OA
ATOM      6  N   UNL     1      -5.687 -10.028  15.973  0.00  0.00    -0.083 NA
ATOM     11  C   UNL     1      -5.271 -10.447  17.171  0.00  0.00    +0.086 A 
ATOM     13  C   UNL     1      -3.958 -10.946  17.134  0.00  0.00    +0.074 A 
ATOM     15  C   UNL     1      -3.591 -10.804  15.822  0.00  0.00    +0.168 A 
BRANCH  15  16
ATOM     16  C   UNL     1      -2.370 -11.112  15.069  0.00  0.00    +0.120 C 
ATOM     19  C   UNL     1      -1.086 -10.532  15.730  0.00  0.00    +0.049 C 
ATOM     20  C   UNL     1      -2.426 -10.618  13.593  0.00  0.00    +0.049 C 
BRANCH  16   3
ATOM      3  O   UNL     1      -2.120 -12.541  14.970  0.00  0.00    -0.381 OA
ATOM     26  H   UNL     1      -2.218 -12.804  14.039  0.00  0.00    +0.211 HD
ENDBRANCH  16   3
ENDBRANCH  15  16
ENDBRANCH  10  11
ENDBRANCH   7  10
TORSDOF 8
ENDMDL
MODEL 3
REMARK VINA RESULT:      -5.6     22.621     24.755
REMARK  Name = 56775516
REMARK  11 active torsions:
REMARK  status: ('A' for Active; 'I' for Inactive)
REMARK    1  A    between atoms: O_3  and  C_16
REMARK    2  A    between atoms: O_4  and  C_21
REMARK    3  A    between atoms: O_4  and  C_24
REMARK    4  A    between atoms: N_5  and  C_7
REMARK    5  A    between atoms: N_5  and  C_12
REMARK    6  A    between atoms: C_7  and  C_10
REMARK    7  A    between atoms: C_10  and  C_11
REMARK    8  A    between atoms: C_12  and  C_14
REMARK    9  A    between atoms: C_15  and  C_16
REMARK   10  A    between atoms: C_16  and  C_19
REMARK   11  A    between atoms: C_16  and  C_20
REMARK                            x       y       z     vdW  Elec       q    Type
REMARK                         _______ _______ _______ _____ _____    ______ ____
ROOT
ATOM      1  O   UNL     1      -2.393 -14.014  13.124  0.00  0.00    -0.376 OA
ATOM      7  C   UNL     1      -2.580 -12.140  14.130  0.00  0.00    +0.072 C 
ATOM      8  C   UNL     1      -1.468 -13.128  13.796  0.00  0.00    +0.184 C 
ATOM      9  C   UNL     1      -3.475 -13.076  13.326  0.00  0.00    +0.184 C 
ENDROOT
BRANCH   7   5
ATOM      5  N   UNL     1      -2.915 -12.271  15.550  0.00  0.00    -0.302 NA
ATOM     25  H   UNL     1      -2.284 -12.861  16.091  0.00  0.00    +0.123 HD
BRANCH   5  12
ATOM     12  C   UNL     1      -2.984 -10.937  16.152  0.00  0.00    +0.117 C 
BRANCH  12  14
ATOM     14  C   UNL     1      -4.245 -10.726  16.918  0.00  0.00    -0.030 A 
ATOM     17  C   UNL     1      -5.314 -10.050  16.330  0.00  0.00    +0.050 A 
ATOM     18  C   UNL     1      -4.355 -11.201  18.225  0.00  0.00    +0.005 A 
ATOM     21  C   UNL     1      -6.494  -9.852  17.047  0.00  0.00    +0.120 A 
ATOM     22  C   UNL     1      -5.534 -11.001  18.943  0.00  0.00    +0.004 A 
ATOM     23  C   UNL     1      -6.603 -10.327  18.355  0.00  0.00    +0.045 A 
BRANCH  21   4
ATOM      4  O   UNL     1      -7.536  -9.192  16.473  0.00  0.00    -0.495 OA
ATOM     24  C   UNL     1      -8.692  -8.975  17.281  0.00  0.00    +0.277 C 
ENDBRANCH  21   4
ENDBRANCH  12  14
ENDBRANCH   5  12
ENDBRANCH   7   5
BRANCH   7  10
ATOM     10  C   UNL     1      -2.442 -10.715  13.692  0.00  0.00    +0.085 C 
BRANCH  10  11
ATOM      2  O   UNL     1      -5.329  -9.941  11.662  0.00  0.00    -0.356 OA
ATOM      6  N   UNL     1      -4.720 -10.218  12.879  0.00  0.00    -0.083 NA
ATOM     11  C   UNL     1      -3.429 -10.393  12.588  0.00  0.00    +0.086 A 
ATOM     13  C   UNL     1      -3.166 -10.241  11.215  0.00  0.00    +0.074 A 
ATOM     15  C   UNL     1      -4.395  -9.957  10.678  0.00  0.00    +0.168 A 
BRANCH  15  16
ATOM     16  C   UNL     1      -4.869  -9.682   9.317  0.00  0.00    +0.120 C 
ATOM     19  C   UNL     1      -6.382  -9.319   9.262  0.00  0.00    +0.049 C 
ATOM     20  C   UNL     1      -4.613 -10.863   8.335  0.00  0.00    +0.049 C 
BRANCH  16   3
ATOM      3  O   UNL     1      -4.196  -8.545   8.710  0.00  0.00    -0.381 OA
ATOM     26  H   UNL     1      -3.483  -8.882   8.141  0.00  0.00    +0.211 HD
ENDBRANCH  16   3
ENDBRANCH  15  16
ENDBRANCH  10  11
ENDBRANCH   7  10
TORSDOF 8
ENDMDL
MODEL 4
REMARK VINA RESULT:      -5.6     22.517     25.847
REMARK  Name = 56775516
REMARK  11 active torsions:
REMARK  status: ('A' for Active; 'I' for Inactive)
REMARK    1  A    between atoms: O_3  and  C_16
REMARK    2  A    between atoms: O_4  and  C_21
REMARK    3  A    between atoms: O_4  and  C_24
REMARK    4  A    between atoms: N_5  and  C_7
REMARK    5  A    between atoms: N_5  and  C_12
REMARK    6  A    between atoms: C_7  and  C_10
REMARK    7  A    between atoms: C_10  and  C_11
REMARK    8  A    between atoms: C_12  and  C_14
REMARK    9  A    between atoms: C_15  and  C_16
REMARK   10  A    between atoms: C_16  and  C_19
REMARK   11  A    between atoms: C_16  and  C_20
REMARK                            x       y       z     vdW  Elec       q    Type
REMARK                         _______ _______ _______ _____ _____    ______ ____
ROOT
ATOM      1  O   UNL     1      -2.044 -14.085  14.078  0.00  0.00    -0.376 OA
ATOM      7  C   UNL     1      -2.761 -12.074  14.093  0.00  0.00    +0.072 C 
ATOM      8  C   UNL     1      -3.259 -13.446  14.534  0.00  0.00    +0.184 C 
ATOM      9  C   UNL     1      -1.474 -12.804  13.724  0.00  0.00    +0.184 C 
ENDROOT
BRANCH   7   5
ATOM      5  N   UNL     1      -3.457 -11.693  12.862  0.00  0.00    -0.302 NA
ATOM     25  H   UNL     1      -4.474 -11.726  12.912  0.00  0.00    +0.123 HD
BRANCH   5  12
ATOM     12  C   UNL     1      -3.024 -10.353  12.460  0.00  0.00    +0.117 C 
BRANCH  12  14
ATOM     14  C   UNL     1      -3.864  -9.790  11.365  0.00  0.00    -0.030 A 
ATOM     17  C   UNL     1      -5.229  -9.588  11.566  0.00  0.00    +0.050 A 
ATOM     18  C   UNL     1      -3.284  -9.469  10.137  0.00  0.00    +0.005 A 
ATOM     21  C   UNL     1      -6.015  -9.062  10.540  0.00  0.00    +0.120 A 
ATOM     22  C   UNL     1      -4.070  -8.944   9.111  0.00  0.00    +0.004 A 
ATOM     23  C   UNL     1      -5.435  -8.741   9.312  0.00  0.00    +0.045 A 
BRANCH  21   4
ATOM      4  O   UNL     1      -7.347  -8.865  10.736  0.00  0.00    -0.495 OA
ATOM     24  C   UNL     1      -8.114  -8.447   9.609  0.00  0.00    +0.277 C 
ENDBRANCH  21   4
ENDBRANCH  12  14
ENDBRANCH   5  12
ENDBRANCH   7   5
BRANCH   7  10
ATOM     10  C   UNL     1      -2.703 -10.965  15.098  0.00  0.00    +0.085 C 
BRANCH  10  11
ATOM      2  O   UNL     1      -6.123 -10.349  16.085  0.00  0.00    -0.356 OA
ATOM      6  N   UNL     1      -5.095 -10.357  15.151  0.00  0.00    -0.083 NA
ATOM     11  C   UNL     1      -4.030 -10.816  15.813  0.00  0.00    +0.086 A 
ATOM     13  C   UNL     1      -4.323 -11.112  17.156  0.00  0.00    +0.074 A 
ATOM     15  C   UNL     1      -5.652 -10.800  17.275  0.00  0.00    +0.168 A 
BRANCH  15  16
ATOM     16  C   UNL     1      -6.613 -10.858  18.383  0.00  0.00    +0.120 C 
ATOM     19  C   UNL     1      -5.938 -11.117  19.761  0.00  0.00    +0.049 C 
ATOM     20  C   UNL     1      -7.719 -11.933  18.171  0.00  0.00    +0.049 C 
BRANCH  16   3
ATOM      3  O   UNL     1      -7.340  -9.611  18.557  0.00  0.00    -0.381 OA
ATOM     26  H   UNL     1      -7.295  -9.360  19.496  0.00  0.00    +0.211 HD
ENDBRANCH  16   3
ENDBRANCH  15  16
ENDBRANCH  10  11
ENDBRANCH   7  10
TORSDOF 8
ENDMDL
MODEL 5
REMARK VINA RESULT:      -5.6     15.072     18.947
REMARK  Name = 56775516
REMARK  11 active torsions:
REMARK  status: ('A' for Active; 'I' for Inactive)
REMARK    1  A    between atoms: O_3  and  C_16
REMARK    2  A    between atoms: O_4  and  C_21
REMARK    3  A    between atoms: O_4  and  C_24
REMARK    4  A    between atoms: N_5  and  C_7
REMARK    5  A    between atoms: N_5  and  C_12
REMARK    6  A    between atoms: C_7  and  C_10
REMARK    7  A    between atoms: C_10  and  C_11
REMARK    8  A    between atoms: C_12  and  C_14
REMARK    9  A    between atoms: C_15  and  C_16
REMARK   10  A    between atoms: C_16  and  C_19
REMARK   11  A    between atoms: C_16  and  C_20
REMARK                            x       y       z     vdW  Elec       q    Type
REMARK                         _______ _______ _______ _____ _____    ______ ____
ROOT
ATOM      1  O   UNL     1      14.025  12.198  24.488  0.00  0.00    -0.376 OA
ATOM      7  C   UNL     1      13.597  11.313  22.593  0.00  0.00    +0.072 C 
ATOM      8  C   UNL     1      12.913  11.448  23.949  0.00  0.00    +0.184 C 
ATOM      9  C   UNL     1      14.686  12.189  23.202  0.00  0.00    +0.184 C 
ENDROOT
BRANCH   7   5
ATOM      5  N   UNL     1      14.110   9.948  22.457  0.00  0.00    -0.302 NA
ATOM     25  H   UNL     1      13.584   9.349  21.822  0.00  0.00    +0.123 HD
BRANCH   5  12
ATOM     12  C   UNL     1      15.513  10.002  22.040  0.00  0.00    +0.117 C 
BRANCH  12  14
ATOM     14  C   UNL     1      15.964   8.732  21.402  0.00  0.00    -0.030 A 
ATOM     17  C   UNL     1      17.325   8.455  21.284  0.00  0.00    +0.050 A 
ATOM     18  C   UNL     1      15.022   7.821  20.921  0.00  0.00    +0.005 A 
ATOM     21  C   UNL     1      17.747   7.267  20.687  0.00  0.00    +0.120 A 
ATOM     22  C   UNL     1      15.444   6.633  20.323  0.00  0.00    +0.004 A 
ATOM     23  C   UNL     1      16.805   6.356  20.206  0.00  0.00    +0.045 A 
BRANCH  21   4
ATOM      4  O   UNL     1      19.075   6.998  20.570  0.00  0.00    -0.495 OA
ATOM     24  C   UNL     1      19.452   5.628  20.441  0.00  0.00    +0.277 C 
ENDBRANCH  21   4
ENDBRANCH  12  14
ENDBRANCH   5  12
ENDBRANCH   7   5
BRANCH   7  10
ATOM     10  C   UNL     1      12.882  11.793  21.368  0.00  0.00    +0.085 C 
BRANCH  10  11
ATOM      2  O   UNL     1      11.600   8.820  19.762  0.00  0.00    -0.356 OA
ATOM      6  N   UNL     1      11.657   9.720  20.819  0.00  0.00    -0.083 NA
ATOM     11  C   UNL     1      12.556  10.635  20.446  0.00  0.00    +0.086 A 
ATOM     13  C   UNL     1      13.093  10.368  19.175  0.00  0.00    +0.074 A 
ATOM     15  C   UNL     1      12.459   9.216  18.789  0.00  0.00    +0.168 A 
BRANCH  15  16
ATOM     16  C   UNL     1      12.525   8.373  17.590  0.00  0.00    +0.120 C 
ATOM     19  C   UNL     1      13.984   8.068  17.141  0.00  0.00    +0.049 C 
ATOM     20  C   UNL     1      11.758   8.980  16.378  0.00  0.00    +0.049 C 
BRANCH  16   3
ATOM      3  O   UNL     1      11.921   7.066  17.791  0.00  0.00    -0.381 OA
ATOM     26  H   UNL     1      12.630   6.428  17.981  0.00  0.00    +0.211 HD
ENDBRANCH  16   3
ENDBRANCH  15  16
ENDBRANCH  10  11
ENDBRANCH   7  10
TORSDOF 8
ENDMDL
MODEL 6
REMARK VINA RESULT:      -5.5     37.135     39.088
REMARK  Name = 56775516
REMARK  11 active torsions:
REMARK  status: ('A' for Active; 'I' for Inactive)
REMARK    1  A    between atoms: O_3  and  C_16
REMARK    2  A    between atoms: O_4  and  C_21
REMARK    3  A    between atoms: O_4  and  C_24
REMARK    4  A    between atoms: N_5  and  C_7
REMARK    5  A    between atoms: N_5  and  C_12
REMARK    6  A    between atoms: C_7  and  C_10
REMARK    7  A    between atoms: C_10  and  C_11
REMARK    8  A    between atoms: C_12  and  C_14
REMARK    9  A    between atoms: C_15  and  C_16
REMARK   10  A    between atoms: C_16  and  C_19
REMARK   11  A    between atoms: C_16  and  C_20
REMARK                            x       y       z     vdW  Elec       q    Type
REMARK                         _______ _______ _______ _____ _____    ______ ____
ROOT
ATOM      1  O   UNL     1     -16.904   4.989  32.020  0.00  0.00    -0.376 OA
ATOM      7  C   UNL     1     -15.164   4.966  33.258  0.00  0.00    +0.072 C 
ATOM      8  C   UNL     1     -16.575   4.388  33.294  0.00  0.00    +0.184 C 
ATOM      9  C   UNL     1     -15.553   5.485  31.879  0.00  0.00    +0.184 C 
ENDROOT
BRANCH   7   5
ATOM      5  N   UNL     1     -15.094   6.097  34.186  0.00  0.00    -0.302 NA
ATOM     25  H   UNL     1     -15.953   6.291  34.697  0.00  0.00    +0.123 HD
BRANCH   5  12
ATOM     12  C   UNL     1     -13.996   5.874  35.131  0.00  0.00    +0.117 C 
BRANCH  12  14
ATOM     14  C   UNL     1     -13.114   7.068  35.265  0.00  0.00    -0.030 A 
ATOM     17  C   UNL     1     -12.907   7.910  34.173  0.00  0.00    +0.050 A 
ATOM     18  C   UNL     1     -12.493   7.342  36.484  0.00  0.00    +0.005 A 
ATOM     21  C   UNL     1     -12.081   9.027  34.299  0.00  0.00    +0.120 A 
ATOM     22  C   UNL     1     -11.666   8.458  36.610  0.00  0.00    +0.004 A 
ATOM     23  C   UNL     1     -11.460   9.301  35.518  0.00  0.00    +0.045 A 
BRANCH  21   4
ATOM      4  O   UNL     1     -11.878   9.847  33.232  0.00  0.00    -0.495 OA
ATOM     24  C   UNL     1     -10.625   9.739  32.559  0.00  0.00    +0.277 C 
ENDBRANCH  21   4
ENDBRANCH  12  14
ENDBRANCH   5  12
ENDBRANCH   7   5
BRANCH   7  10
ATOM     10  C   UNL     1     -13.996   4.036  33.380  0.00  0.00    +0.085 C 
BRANCH  10  11
ATOM      2  O   UNL     1     -14.890   0.606  32.683  0.00  0.00    -0.356 OA
ATOM      6  N   UNL     1     -14.674   1.668  33.551  0.00  0.00    -0.083 NA
ATOM     11  C   UNL     1     -14.315   2.688  32.767  0.00  0.00    +0.086 A 
ATOM     13  C   UNL     1     -14.288   2.332  31.407  0.00  0.00    +0.074 A 
ATOM     15  C   UNL     1     -14.657   1.012  31.409  0.00  0.00    +0.168 A 
BRANCH  15  16
ATOM     16  C   UNL     1     -14.841   0.007  30.355  0.00  0.00    +0.120 C 
ATOM     19  C   UNL     1     -13.496  -0.520  29.777  0.00  0.00    +0.049 C 
ATOM     20  C   UNL     1     -15.715   0.521  29.173  0.00  0.00    +0.049 C 
BRANCH  16   3
ATOM      3  O   UNL     1     -15.529  -1.182  30.832  0.00  0.00    -0.381 OA
ATOM     26  H   UNL     1     -16.479  -1.079  30.649  0.00  0.00    +0.211 HD
ENDBRANCH  16   3
ENDBRANCH  15  16
ENDBRANCH  10  11
ENDBRANCH   7  10
TORSDOF 8
ENDMDL
MODEL 7
REMARK VINA RESULT:      -5.4      2.735      7.545
REMARK  Name = 56775516
REMARK  11 active torsions:
REMARK  status: ('A' for Active; 'I' for Inactive)
REMARK    1  A    between atoms: O_3  and  C_16
REMARK    2  A    between atoms: O_4  and  C_21
REMARK    3  A    between atoms: O_4  and  C_24
REMARK    4  A    between atoms: N_5  and  C_7
REMARK    5  A    between atoms: N_5  and  C_12
REMARK    6  A    between atoms: C_7  and  C_10
REMARK    7  A    between atoms: C_10  and  C_11
REMARK    8  A    between atoms: C_12  and  C_14
REMARK    9  A    between atoms: C_15  and  C_16
REMARK   10  A    between atoms: C_16  and  C_19
REMARK   11  A    between atoms: C_16  and  C_20
REMARK                            x       y       z     vdW  Elec       q    Type
REMARK                         _______ _______ _______ _____ _____    ______ ____
ROOT
ATOM      1  O   UNL     1      16.762   9.081   4.630  0.00  0.00    -0.376 OA
ATOM      7  C   UNL     1      14.821   8.343   5.123  0.00  0.00    +0.072 C 
ATOM      8  C   UNL     1      16.237   8.237   5.680  0.00  0.00    +0.184 C 
ATOM      9  C   UNL     1      15.432   9.300   4.107  0.00  0.00    +0.184 C 
ENDROOT
BRANCH   7   5
ATOM      5  N   UNL     1      14.485   7.088   4.447  0.00  0.00    -0.302 NA
ATOM     25  H   UNL     1      14.076   6.371   5.045  0.00  0.00    +0.123 HD
BRANCH   5  12
ATOM     12  C   UNL     1      13.583   7.372   3.328  0.00  0.00    +0.117 C 
BRANCH  12  14
ATOM     14  C   UNL     1      12.904   6.145   2.822  0.00  0.00    -0.030 A 
ATOM     17  C   UNL     1      13.536   5.337   1.877  0.00  0.00    +0.050 A 
ATOM     18  C   UNL     1      11.634   5.808   3.291  0.00  0.00    +0.005 A 
ATOM     21  C   UNL     1      12.900   4.190   1.403  0.00  0.00    +0.120 A 
ATOM     22  C   UNL     1      10.998   4.661   2.816  0.00  0.00    +0.004 A 
ATOM     23  C   UNL     1      11.630   3.852   1.873  0.00  0.00    +0.045 A 
BRANCH  21   4
ATOM      4  O   UNL     1      13.517   3.402   0.481  0.00  0.00    -0.495 OA
ATOM     24  C   UNL     1      12.773   3.069  -0.690  0.00  0.00    +0.277 C 
ENDBRANCH  21   4
ENDBRANCH  12  14
ENDBRANCH   5  12
ENDBRANCH   7   5
BRANCH   7  10
ATOM     10  C   UNL     1      13.725   8.837   6.016  0.00  0.00    +0.085 C 
BRANCH  10  11
ATOM      2  O   UNL     1      12.594   5.858   7.718  0.00  0.00    -0.356 OA
ATOM      6  N   UNL     1      13.583   6.755   7.335  0.00  0.00    -0.083 NA
ATOM     11  C   UNL     1      12.948   7.679   6.608  0.00  0.00    +0.086 A 
ATOM     13  C   UNL     1      11.572   7.419   6.498  0.00  0.00    +0.074 A 
ATOM     15  C   UNL     1      11.401   6.262   7.214  0.00  0.00    +0.168 A 
BRANCH  15  16
ATOM     16  C   UNL     1      10.238   5.422   7.524  0.00  0.00    +0.120 C 
ATOM     19  C   UNL     1       9.459   4.970   6.255  0.00  0.00    +0.049 C 
ATOM     20  C   UNL     1       9.234   6.110   8.495  0.00  0.00    +0.049 C 
BRANCH  16   3
ATOM      3  O   UNL     1      10.606   4.184   8.191  0.00  0.00    -0.381 OA
ATOM     26  H   UNL     1      10.877   3.541   7.513  0.00  0.00    +0.211 HD
ENDBRANCH  16   3
ENDBRANCH  15  16
ENDBRANCH  10  11
ENDBRANCH   7  10
TORSDOF 8
ENDMDL
MODEL 8
REMARK VINA RESULT:      -5.4      5.494      9.103
REMARK  Name = 56775516
REMARK  11 active torsions:
REMARK  status: ('A' for Active; 'I' for Inactive)
REMARK    1  A    between atoms: O_3  and  C_16
REMARK    2  A    between atoms: O_4  and  C_21
REMARK    3  A    between atoms: O_4  and  C_24
REMARK    4  A    between atoms: N_5  and  C_7
REMARK    5  A    between atoms: N_5  and  C_12
REMARK    6  A    between atoms: C_7  and  C_10
REMARK    7  A    between atoms: C_10  and  C_11
REMARK    8  A    between atoms: C_12  and  C_14
REMARK    9  A    between atoms: C_15  and  C_16
REMARK   10  A    between atoms: C_16  and  C_19
REMARK   11  A    between atoms: C_16  and  C_20
REMARK                            x       y       z     vdW  Elec       q    Type
REMARK                         _______ _______ _______ _____ _____    ______ ____
ROOT
ATOM      1  O   UNL     1      15.101   6.774   1.367  0.00  0.00    -0.376 OA
ATOM      7  C   UNL     1      15.402   7.699   3.268  0.00  0.00    +0.072 C 
ATOM      8  C   UNL     1      15.640   8.044   1.802  0.00  0.00    +0.184 C 
ATOM      9  C   UNL     1      14.762   6.425   2.729  0.00  0.00    +0.184 C 
ENDROOT
BRANCH   7   5
ATOM      5  N   UNL     1      16.685   7.358   3.887  0.00  0.00    -0.302 NA
ATOM     25  H   UNL     1      17.326   6.836   3.291  0.00  0.00    +0.123 HD
BRANCH   5  12
ATOM     12  C   UNL     1      17.332   8.585   4.356  0.00  0.00    +0.117 C 
BRANCH  12  14
ATOM     14  C   UNL     1      18.622   8.314   5.054  0.00  0.00    -0.030 A 
ATOM     17  C   UNL     1      19.607   7.550   4.428  0.00  0.00    +0.050 A 
ATOM     18  C   UNL     1      18.842   8.822   6.334  0.00  0.00    +0.005 A 
ATOM     21  C   UNL     1      20.813   7.297   5.081  0.00  0.00    +0.120 A 
ATOM     22  C   UNL     1      20.047   8.567   6.988  0.00  0.00    +0.004 A 
ATOM     23  C   UNL     1      21.033   7.805   6.362  0.00  0.00    +0.045 A 
BRANCH  21   4
ATOM      4  O   UNL     1      21.773   6.551   4.471  0.00  0.00    -0.495 OA
ATOM     24  C   UNL     1      21.870   6.653   3.051  0.00  0.00    +0.277 C 
ENDBRANCH  21   4
ENDBRANCH  12  14
ENDBRANCH   5  12
ENDBRANCH   7   5
BRANCH   7  10
ATOM     10  C   UNL     1      14.577   8.625   4.108  0.00  0.00    +0.085 C 
BRANCH  10  11
ATOM      2  O   UNL     1      13.475   6.695   6.957  0.00  0.00    -0.356 OA
ATOM      6  N   UNL     1      14.460   7.311   6.195  0.00  0.00    -0.083 NA
ATOM     11  C   UNL     1      13.809   7.856   5.163  0.00  0.00    +0.086 A 
ATOM     13  C   UNL     1      12.425   7.618   5.220  0.00  0.00    +0.074 A 
ATOM     15  C   UNL     1      12.268   6.884   6.367  0.00  0.00    +0.168 A 
BRANCH  15  16
ATOM     16  C   UNL     1      11.107   6.294   7.044  0.00  0.00    +0.120 C 
ATOM     19  C   UNL     1      10.198   5.470   6.087  0.00  0.00    +0.049 C 
ATOM     20  C   UNL     1      10.223   7.354   7.766  0.00  0.00    +0.049 C 
BRANCH  16   3
ATOM      3  O   UNL     1      11.487   5.357   8.090  0.00  0.00    -0.381 OA
ATOM     26  H   UNL     1      11.658   5.862   8.903  0.00  0.00    +0.211 HD
ENDBRANCH  16   3
ENDBRANCH  15  16
ENDBRANCH  10  11
ENDBRANCH   7  10
TORSDOF 8
ENDMDL
MODEL 9
REMARK VINA RESULT:      -5.4     35.754     38.295
REMARK  Name = 56775516
REMARK  11 active torsions:
REMARK  status: ('A' for Active; 'I' for Inactive)
REMARK    1  A    between atoms: O_3  and  C_16
REMARK    2  A    between atoms: O_4  and  C_21
REMARK    3  A    between atoms: O_4  and  C_24
REMARK    4  A    between atoms: N_5  and  C_7
REMARK    5  A    between atoms: N_5  and  C_12
REMARK    6  A    between atoms: C_7  and  C_10
REMARK    7  A    between atoms: C_10  and  C_11
REMARK    8  A    between atoms: C_12  and  C_14
REMARK    9  A    between atoms: C_15  and  C_16
REMARK   10  A    between atoms: C_16  and  C_19
REMARK   11  A    between atoms: C_16  and  C_20
REMARK                            x       y       z     vdW  Elec       q    Type
REMARK                         _______ _______ _______ _____ _____    ______ ____
ROOT
ATOM      1  O   UNL     1     -14.605   7.593  33.308  0.00  0.00    -0.376 OA
ATOM      7  C   UNL     1     -14.682   5.569  32.631  0.00  0.00    +0.072 C 
ATOM      8  C   UNL     1     -13.668   6.708  32.653  0.00  0.00    +0.184 C 
ATOM      9  C   UNL     1     -15.579   6.529  33.405  0.00  0.00    +0.184 C 
ENDROOT
BRANCH   7   5
ATOM      5  N   UNL     1     -15.204   5.429  31.269  0.00  0.00    -0.302 NA
ATOM     25  H   UNL     1     -14.736   4.729  30.696  0.00  0.00    +0.123 HD
BRANCH   5  12
ATOM     12  C   UNL     1     -16.638   5.138  31.333  0.00  0.00    +0.117 C 
BRANCH  12  14
ATOM     14  C   UNL     1     -17.106   4.335  30.167  0.00  0.00    -0.030 A 
ATOM     17  C   UNL     1     -16.299   4.210  29.037  0.00  0.00    +0.050 A 
ATOM     18  C   UNL     1     -18.353   3.710  30.207  0.00  0.00    +0.005 A 
ATOM     21  C   UNL     1     -16.737   3.460  27.946  0.00  0.00    +0.120 A 
ATOM     22  C   UNL     1     -18.791   2.960  29.116  0.00  0.00    +0.004 A 
ATOM     23  C   UNL     1     -17.984   2.835  27.986  0.00  0.00    +0.045 A 
BRANCH  21   4
ATOM      4  O   UNL     1     -15.950   3.339  26.843  0.00  0.00    -0.495 OA
ATOM     24  C   UNL     1     -16.385   4.005  25.659  0.00  0.00    +0.277 C 
ENDBRANCH  21   4
ENDBRANCH  12  14
ENDBRANCH   5  12
ENDBRANCH   7   5
BRANCH   7  10
ATOM     10  C   UNL     1     -14.316   4.258  33.254  0.00  0.00    +0.085 C 
BRANCH  10  11
ATOM      2  O   UNL     1     -13.370   2.167  30.462  0.00  0.00    -0.356 OA
ATOM      6  N   UNL     1     -13.235   3.305  31.248  0.00  0.00    -0.083 NA
ATOM     11  C   UNL     1     -14.168   3.182  32.197  0.00  0.00    +0.086 A 
ATOM     13  C   UNL     1     -14.914   1.999  32.061  0.00  0.00    +0.074 A 
ATOM     15  C   UNL     1     -14.373   1.397  30.956  0.00  0.00    +0.168 A 
BRANCH  15  16
ATOM     16  C   UNL     1     -14.653   0.147  30.240  0.00  0.00    +0.120 C 
ATOM     19  C   UNL     1     -15.507  -0.852  31.074  0.00  0.00    +0.049 C 
ATOM     20  C   UNL     1     -13.362  -0.586  29.771  0.00  0.00    +0.049 C 
BRANCH  16   3
ATOM      3  O   UNL     1     -15.419   0.359  29.023  0.00  0.00    -0.381 OA
ATOM     26  H   UNL     1     -15.860   1.223  29.087  0.00  0.00    +0.211 HD
ENDBRANCH  16   3
ENDBRANCH  15  16
ENDBRANCH  10  11
ENDBRANCH   7  10
TORSDOF 8
ENDMDL
MODEL 10
REMARK VINA RESULT:      -5.4     26.264     31.108
REMARK  Name = 56775516
REMARK  11 active torsions:
REMARK  status: ('A' for Active; 'I' for Inactive)
REMARK    1  A    between atoms: O_3  and  C_16
REMARK    2  A    between atoms: O_4  and  C_21
REMARK    3  A    between atoms: O_4  and  C_24
REMARK    4  A    between atoms: N_5  and  C_7
REMARK    5  A    between atoms: N_5  and  C_12
REMARK    6  A    between atoms: C_7  and  C_10
REMARK    7  A    between atoms: C_10  and  C_11
REMARK    8  A    between atoms: C_12  and  C_14
REMARK    9  A    between atoms: C_15  and  C_16
REMARK   10  A    between atoms: C_16  and  C_19
REMARK   11  A    between atoms: C_16  and  C_20
REMARK                            x       y       z     vdW  Elec       q    Type
REMARK                         _______ _______ _______ _____ _____    ______ ____
ROOT
ATOM      1  O   UNL     1     -15.615   8.769  22.075  0.00  0.00    -0.376 OA
ATOM      7  C   UNL     1     -13.893   7.628  21.534  0.00  0.00    +0.072 C 
ATOM      8  C   UNL     1     -14.612   8.035  22.815  0.00  0.00    +0.184 C 
ATOM      9  C   UNL     1     -15.037   8.340  20.821  0.00  0.00    +0.184 C 
ENDROOT
BRANCH   7   5
ATOM      5  N   UNL     1     -12.678   8.435  21.399  0.00  0.00    -0.302 NA
ATOM     25  H   UNL     1     -12.289   8.782  22.275  0.00  0.00    +0.123 HD
BRANCH   5  12
ATOM     12  C   UNL     1     -11.664   7.659  20.681  0.00  0.00    +0.117 C 
BRANCH  12  14
ATOM     14  C   UNL     1     -11.111   8.395  19.509  0.00  0.00    -0.030 A 
ATOM     17  C   UNL     1     -11.010   7.760  18.271  0.00  0.00    +0.050 A 
ATOM     18  C   UNL     1     -10.693   9.718  19.650  0.00  0.00    +0.005 A 
ATOM     21  C   UNL     1     -10.493   8.449  17.174  0.00  0.00    +0.120 A 
ATOM     22  C   UNL     1     -10.174  10.407  18.554  0.00  0.00    +0.004 A 
ATOM     23  C   UNL     1     -10.074   9.773  17.316  0.00  0.00    +0.045 A 
BRANCH  21   4
ATOM      4  O   UNL     1     -10.393   7.830  15.967  0.00  0.00    -0.495 OA
ATOM     24  C   UNL     1     -10.779   8.581  14.817  0.00  0.00    +0.277 C 
ENDBRANCH  21   4
ENDBRANCH  12  14
ENDBRANCH   5  12
ENDBRANCH   7   5
BRANCH   7  10
ATOM     10  C   UNL     1     -13.662   6.174  21.261  0.00  0.00    +0.085 C 
BRANCH  10  11
ATOM      2  O   UNL     1     -16.615   4.250  22.056  0.00  0.00    -0.356 OA
ATOM      6  N   UNL     1     -15.844   5.022  21.196  0.00  0.00    -0.083 NA
ATOM     11  C   UNL     1     -14.748   5.328  21.894  0.00  0.00    +0.086 A 
ATOM     13  C   UNL     1     -14.771   4.784  23.189  0.00  0.00    +0.074 A 
ATOM     15  C   UNL     1     -15.966   4.116  23.241  0.00  0.00    +0.168 A 
BRANCH  15  16
ATOM     16  C   UNL     1     -16.643   3.323  24.274  0.00  0.00    +0.120 C 
ATOM     19  C   UNL     1     -18.149   3.686  24.429  0.00  0.00    +0.049 C 
ATOM     20  C   UNL     1     -15.965   3.441  25.671  0.00  0.00    +0.049 C 
BRANCH  16   3
ATOM      3  O   UNL     1     -16.636   1.899  23.980  0.00  0.00    -0.381 OA
ATOM     26  H   UNL     1     -15.945   1.728  23.317  0.00  0.00    +0.211 HD
ENDBRANCH  16   3
ENDBRANCH  15  16
ENDBRANCH  10  11
ENDBRANCH   7  10
TORSDOF 8
ENDMDL
