MODEL 1
REMARK VINA RESULT:      -6.3      0.000      0.000
REMARK  Name = 45783383
REMARK  10 active torsions:
REMARK  status: ('A' for Active; 'I' for Inactive)
REMARK    1  A    between atoms: O_2  and  C_24
REMARK    2  A    between atoms: O_2  and  C_25
REMARK    3  A    between atoms: N_3  and  C_12
REMARK    4  A    between atoms: N_6  and  C_22
REMARK    5  A    between atoms: C_8  and  C_14
REMARK    6  A    between atoms: C_12  and  C_13
REMARK    7  A    between atoms: C_13  and  C_15
REMARK    8  A    between atoms: C_13  and  C_16
REMARK    9  A    between atoms: C_17  and  C_18
REMARK   10  A    between atoms: C_22  and  C_24
REMARK                            x       y       z     vdW  Elec       q    Type
REMARK                         _______ _______ _______ _____ _____    ______ ____
ROOT
ATOM      1  O   UNL     1      16.758   6.526  21.352  0.00  0.00    -0.336 OA
ATOM      4  N   UNL     1      16.199   8.446  20.343  0.00  0.00    -0.190 NA
ATOM      5  N   UNL     1      15.599   6.255  20.614  0.00  0.00    -0.056 NA
ATOM     14  C   UNL     1      17.043   7.837  21.138  0.00  0.00    +0.245 A 
ATOM     17  C   UNL     1      15.331   7.435  20.047  0.00  0.00    +0.205 A 
ENDROOT
BRANCH  17  18
ATOM      6  N   UNL     1      12.711   6.617  20.775  0.00  0.00    -0.326 N 
ATOM      7  N   UNL     1      11.841   7.422  18.727  0.00  0.00    -0.240 NA
ATOM     18  C   UNL     1      14.205   7.637  19.182  0.00  0.00    +0.062 A 
ATOM     19  C   UNL     1      12.920   7.244  19.521  0.00  0.00    +0.130 A 
ATOM     20  C   UNL     1      14.394   8.252  17.949  0.00  0.00    +0.016 A 
ATOM     21  C   UNL     1      13.308   8.451  17.105  0.00  0.00    +0.020 A 
ATOM     23  C   UNL     1      12.063   8.022  17.535  0.00  0.00    +0.113 A 
ATOM     26  H   UNL     1      13.399   6.815  21.491  0.00  0.00    +0.148 HD
BRANCH   6  22
ATOM     22  C   UNL     1      11.425   6.178  21.210  0.00  0.00    +0.131 C 
BRANCH  22  24
ATOM     24  C   UNL     1      10.683   7.324  21.875  0.00  0.00    +0.178 C 
BRANCH  24   2
ATOM      2  O   UNL     1      11.621   8.249  22.410  0.00  0.00    -0.381 OA
ATOM     25  C   UNL     1      11.002   9.483  22.747  0.00  0.00    +0.194 C 
ENDBRANCH  24   2
ENDBRANCH  22  24
ENDBRANCH   6  22
ENDBRANCH  17  18
BRANCH  14   8
ATOM      3  N   UNL     1      19.524   7.799  21.322  0.00  0.00    -0.291 NA
ATOM      8  C   UNL     1      18.269   8.385  21.836  0.00  0.00    +0.146 C 
ATOM      9  C   UNL     1      18.438   9.903  21.640  0.00  0.00    +0.030 C 
ATOM     10  C   UNL     1      20.559   8.817  21.502  0.00  0.00    +0.085 C 
ATOM     11  C   UNL     1      19.838  10.077  21.069  0.00  0.00    +0.017 C 
BRANCH   3  12
ATOM     12  C   UNL     1      19.876   6.540  21.965  0.00  0.00    +0.088 C 
BRANCH  12  13
ATOM     13  C   UNL     1      21.129   5.895  21.349  0.00  0.00    -0.003 C 
ATOM     15  C   UNL     1      22.092   5.470  22.460  0.00  0.00    +0.008 C 
ATOM     16  C   UNL     1      20.795   4.688  20.467  0.00  0.00    +0.008 C 
ENDBRANCH  12  13
ENDBRANCH   3  12
ENDBRANCH  14   8
TORSDOF 7
ENDMDL
MODEL 2
REMARK VINA RESULT:      -6.3     15.951     19.206
REMARK  Name = 45783383
REMARK  10 active torsions:
REMARK  status: ('A' for Active; 'I' for Inactive)
REMARK    1  A    between atoms: O_2  and  C_24
REMARK    2  A    between atoms: O_2  and  C_25
REMARK    3  A    between atoms: N_3  and  C_12
REMARK    4  A    between atoms: N_6  and  C_22
REMARK    5  A    between atoms: C_8  and  C_14
REMARK    6  A    between atoms: C_12  and  C_13
REMARK    7  A    between atoms: C_13  and  C_15
REMARK    8  A    between atoms: C_13  and  C_16
REMARK    9  A    between atoms: C_17  and  C_18
REMARK   10  A    between atoms: C_22  and  C_24
REMARK                            x       y       z     vdW  Elec       q    Type
REMARK                         _______ _______ _______ _____ _____    ______ ____
ROOT
ATOM      1  O   UNL     1      11.730   3.084   2.536  0.00  0.00    -0.336 OA
ATOM      4  N   UNL     1      12.061   5.253   2.085  0.00  0.00    -0.190 NA
ATOM      5  N   UNL     1      10.743   3.784   3.241  0.00  0.00    -0.056 NA
ATOM     14  C   UNL     1      12.463   4.024   1.883  0.00  0.00    +0.245 A 
ATOM     17  C   UNL     1      11.003   5.055   2.925  0.00  0.00    +0.205 A 
ENDROOT
BRANCH  17  18
ATOM      6  N   UNL     1      10.803   5.598   5.705  0.00  0.00    -0.326 N 
ATOM      7  N   UNL     1       9.396   7.455   5.289  0.00  0.00    -0.240 NA
ATOM     18  C   UNL     1      10.228   6.151   3.430  0.00  0.00    +0.062 A 
ATOM     19  C   UNL     1      10.119   6.430   4.784  0.00  0.00    +0.130 A 
ATOM     20  C   UNL     1       9.552   6.976   2.539  0.00  0.00    +0.016 A 
ATOM     21  C   UNL     1       8.798   8.041   3.021  0.00  0.00    +0.020 A 
ATOM     23  C   UNL     1       8.752   8.235   4.392  0.00  0.00    +0.113 A 
ATOM     26  H   UNL     1      11.604   5.097   5.341  0.00  0.00    +0.148 HD
BRANCH   6  22
ATOM     22  C   UNL     1      10.750   5.806   7.115  0.00  0.00    +0.131 C 
BRANCH  22  24
ATOM     24  C   UNL     1       9.816   4.794   7.755  0.00  0.00    +0.178 C 
BRANCH  24   2
ATOM      2  O   UNL     1      10.258   4.510   9.076  0.00  0.00    -0.381 OA
ATOM     25  C   UNL     1       9.198   4.623  10.016  0.00  0.00    +0.194 C 
ENDBRANCH  24   2
ENDBRANCH  22  24
ENDBRANCH   6  22
ENDBRANCH  17  18
BRANCH  14   8
ATOM      3  N   UNL     1      13.498   3.927  -0.378  0.00  0.00    -0.291 NA
ATOM      8  C   UNL     1      13.610   3.515   1.036  0.00  0.00    +0.146 C 
ATOM      9  C   UNL     1      14.975   4.062   1.494  0.00  0.00    +0.030 C 
ATOM     10  C   UNL     1      14.864   4.024  -0.890  0.00  0.00    +0.085 C 
ATOM     11  C   UNL     1      15.580   4.709   0.256  0.00  0.00    +0.017 C 
BRANCH   3  12
ATOM     12  C   UNL     1      12.677   3.024  -1.175  0.00  0.00    +0.088 C 
BRANCH  12  13
ATOM     13  C   UNL     1      11.306   3.628  -1.521  0.00  0.00    -0.003 C 
ATOM     15  C   UNL     1      11.403   5.155  -1.539  0.00  0.00    +0.008 C 
ATOM     16  C   UNL     1      10.766   3.130  -2.865  0.00  0.00    +0.008 C 
ENDBRANCH  12  13
ENDBRANCH   3  12
ENDBRANCH  14   8
TORSDOF 7
ENDMDL
MODEL 3
REMARK VINA RESULT:      -6.2      3.446      7.514
REMARK  Name = 45783383
REMARK  10 active torsions:
REMARK  status: ('A' for Active; 'I' for Inactive)
REMARK    1  A    between atoms: O_2  and  C_24
REMARK    2  A    between atoms: O_2  and  C_25
REMARK    3  A    between atoms: N_3  and  C_12
REMARK    4  A    between atoms: N_6  and  C_22
REMARK    5  A    between atoms: C_8  and  C_14
REMARK    6  A    between atoms: C_12  and  C_13
REMARK    7  A    between atoms: C_13  and  C_15
REMARK    8  A    between atoms: C_13  and  C_16
REMARK    9  A    between atoms: C_17  and  C_18
REMARK   10  A    between atoms: C_22  and  C_24
REMARK                            x       y       z     vdW  Elec       q    Type
REMARK                         _______ _______ _______ _____ _____    ______ ____
ROOT
ATOM      1  O   UNL     1      11.484   9.624  22.761  0.00  0.00    -0.336 OA
ATOM      4  N   UNL     1      13.573  10.141  22.139  0.00  0.00    -0.190 NA
ATOM      5  N   UNL     1      11.987   8.493  22.106  0.00  0.00    -0.056 NA
ATOM     14  C   UNL     1      12.480  10.547  22.736  0.00  0.00    +0.245 A 
ATOM     17  C   UNL     1      13.222   8.875  21.770  0.00  0.00    +0.205 A 
ENDROOT
BRANCH  17  18
ATOM      6  N   UNL     1      12.761   8.084  19.081  0.00  0.00    -0.326 N 
ATOM      7  N   UNL     1      14.758   6.815  19.063  0.00  0.00    -0.240 NA
ATOM     18  C   UNL     1      14.130   8.018  21.064  0.00  0.00    +0.062 A 
ATOM     19  C   UNL     1      13.921   7.621  19.753  0.00  0.00    +0.130 A 
ATOM     20  C   UNL     1      15.272   7.556  21.709  0.00  0.00    +0.016 A 
ATOM     21  C   UNL     1      16.158   6.725  21.033  0.00  0.00    +0.020 A 
ATOM     23  C   UNL     1      15.858   6.386  19.723  0.00  0.00    +0.113 A 
ATOM     26  H   UNL     1      12.354   8.941  19.437  0.00  0.00    +0.148 HD
BRANCH   6  22
ATOM     22  C   UNL     1      12.461   7.730  17.732  0.00  0.00    +0.131 C 
BRANCH  22  24
ATOM     24  C   UNL     1      12.298   8.984  16.890  0.00  0.00    +0.178 C 
BRANCH  24   2
ATOM      2  O   UNL     1      12.921   8.789  15.627  0.00  0.00    -0.381 OA
ATOM     25  C   UNL     1      14.250   9.294  15.619  0.00  0.00    +0.194 C 
ENDBRANCH  24   2
ENDBRANCH  22  24
ENDBRANCH   6  22
ENDBRANCH  17  18
BRANCH  14   8
ATOM      3  N   UNL     1      10.831  12.382  23.065  0.00  0.00    -0.291 NA
ATOM      8  C   UNL     1      12.182  11.879  23.390  0.00  0.00    +0.146 C 
ATOM      9  C   UNL     1      12.212  11.807  24.928  0.00  0.00    +0.030 C 
ATOM     10  C   UNL     1      10.405  13.191  24.207  0.00  0.00    +0.085 C 
ATOM     11  C   UNL     1      10.861  12.345  25.378  0.00  0.00    +0.017 C 
BRANCH   3  12
ATOM     12  C   UNL     1      10.781  13.128  21.815  0.00  0.00    +0.088 C 
BRANCH  12  13
ATOM     13  C   UNL     1      12.120  13.808  21.483  0.00  0.00    -0.003 C 
ATOM     15  C   UNL     1      12.521  13.484  20.042  0.00  0.00    +0.008 C 
ATOM     16  C   UNL     1      12.072  15.327  21.675  0.00  0.00    +0.008 C 
ENDBRANCH  12  13
ENDBRANCH   3  12
ENDBRANCH  14   8
TORSDOF 7
ENDMDL
MODEL 4
REMARK VINA RESULT:      -6.1      2.980      5.780
REMARK  Name = 45783383
REMARK  10 active torsions:
REMARK  status: ('A' for Active; 'I' for Inactive)
REMARK    1  A    between atoms: O_2  and  C_24
REMARK    2  A    between atoms: O_2  and  C_25
REMARK    3  A    between atoms: N_3  and  C_12
REMARK    4  A    between atoms: N_6  and  C_22
REMARK    5  A    between atoms: C_8  and  C_14
REMARK    6  A    between atoms: C_12  and  C_13
REMARK    7  A    between atoms: C_13  and  C_15
REMARK    8  A    between atoms: C_13  and  C_16
REMARK    9  A    between atoms: C_17  and  C_18
REMARK   10  A    between atoms: C_22  and  C_24
REMARK                            x       y       z     vdW  Elec       q    Type
REMARK                         _______ _______ _______ _____ _____    ______ ____
ROOT
ATOM      1  O   UNL     1      16.506   9.607  20.917  0.00  0.00    -0.336 OA
ATOM      4  N   UNL     1      15.040   9.041  22.514  0.00  0.00    -0.190 NA
ATOM      5  N   UNL     1      16.174  10.795  21.581  0.00  0.00    -0.056 NA
ATOM     14  C   UNL     1      15.795   8.624  21.528  0.00  0.00    +0.245 A 
ATOM     17  C   UNL     1      15.307  10.379  22.508  0.00  0.00    +0.205 A 
ENDROOT
BRANCH  17  18
ATOM      6  N   UNL     1      12.501  10.389  22.948  0.00  0.00    -0.326 N 
ATOM      7  N   UNL     1      12.711  12.125  24.544  0.00  0.00    -0.240 NA
ATOM     18  C   UNL     1      14.688  11.275  23.443  0.00  0.00    +0.062 A 
ATOM     19  C   UNL     1      13.321  11.293  23.670  0.00  0.00    +0.130 A 
ATOM     20  C   UNL     1      15.479  12.167  24.159  0.00  0.00    +0.016 A 
ATOM     21  C   UNL     1      14.887  13.038  25.066  0.00  0.00    +0.020 A 
ATOM     23  C   UNL     1      13.512  12.978  25.221  0.00  0.00    +0.113 A 
ATOM     26  H   UNL     1      12.959   9.556  22.600  0.00  0.00    +0.148 HD
BRANCH   6  22
ATOM     22  C   UNL     1      11.085  10.335  23.114  0.00  0.00    +0.131 C 
BRANCH  22  24
ATOM     24  C   UNL     1      10.509   9.194  22.294  0.00  0.00    +0.178 C 
BRANCH  24   2
ATOM      2  O   UNL     1      11.243   8.005  22.558  0.00  0.00    -0.381 OA
ATOM     25  C   UNL     1      11.212   7.117  21.448  0.00  0.00    +0.194 C 
ENDBRANCH  24   2
ENDBRANCH  22  24
ENDBRANCH   6  22
ENDBRANCH  17  18
BRANCH  14   8
ATOM      3  N   UNL     1      15.753   7.141  19.530  0.00  0.00    -0.291 NA
ATOM      8  C   UNL     1      15.979   7.222  20.988  0.00  0.00    +0.146 C 
ATOM      9  C   UNL     1      17.411   6.691  21.190  0.00  0.00    +0.030 C 
ATOM     10  C   UNL     1      16.593   6.048  19.041  0.00  0.00    +0.085 C 
ATOM     11  C   UNL     1      17.882   6.279  19.802  0.00  0.00    +0.017 C 
BRANCH   3  12
ATOM     12  C   UNL     1      14.351   6.956  19.176  0.00  0.00    +0.088 C 
BRANCH  12  13
ATOM     13  C   UNL     1      13.932   7.812  17.970  0.00  0.00    -0.003 C 
ATOM     15  C   UNL     1      12.407   7.815  17.843  0.00  0.00    +0.008 C 
ATOM     16  C   UNL     1      14.443   9.253  18.064  0.00  0.00    +0.008 C 
ENDBRANCH  12  13
ENDBRANCH   3  12
ENDBRANCH  14   8
TORSDOF 7
ENDMDL
MODEL 5
REMARK VINA RESULT:      -6.0      1.932      7.339
REMARK  Name = 45783383
REMARK  10 active torsions:
REMARK  status: ('A' for Active; 'I' for Inactive)
REMARK    1  A    between atoms: O_2  and  C_24
REMARK    2  A    between atoms: O_2  and  C_25
REMARK    3  A    between atoms: N_3  and  C_12
REMARK    4  A    between atoms: N_6  and  C_22
REMARK    5  A    between atoms: C_8  and  C_14
REMARK    6  A    between atoms: C_12  and  C_13
REMARK    7  A    between atoms: C_13  and  C_15
REMARK    8  A    between atoms: C_13  and  C_16
REMARK    9  A    between atoms: C_17  and  C_18
REMARK   10  A    between atoms: C_22  and  C_24
REMARK                            x       y       z     vdW  Elec       q    Type
REMARK                         _______ _______ _______ _____ _____    ______ ____
ROOT
ATOM      1  O   UNL     1      14.321   6.814  20.820  0.00  0.00    -0.336 OA
ATOM      4  N   UNL     1      15.775   8.401  20.201  0.00  0.00    -0.190 NA
ATOM      5  N   UNL     1      15.595   6.302  21.093  0.00  0.00    -0.056 NA
ATOM     14  C   UNL     1      14.517   8.053  20.297  0.00  0.00    +0.245 A 
ATOM     17  C   UNL     1      16.399   7.295  20.702  0.00  0.00    +0.205 A 
ENDROOT
BRANCH  17  18
ATOM      6  N   UNL     1      17.949   9.378  21.854  0.00  0.00    -0.326 N 
ATOM      7  N   UNL     1      19.947   8.173  21.457  0.00  0.00    -0.240 NA
ATOM     18  C   UNL     1      17.828   7.214  20.796  0.00  0.00    +0.062 A 
ATOM     19  C   UNL     1      18.600   8.221  21.355  0.00  0.00    +0.130 A 
ATOM     20  C   UNL     1      18.481   6.086  20.312  0.00  0.00    +0.016 A 
ATOM     21  C   UNL     1      19.866   6.001  20.400  0.00  0.00    +0.020 A 
ATOM     23  C   UNL     1      20.547   7.061  20.976  0.00  0.00    +0.113 A 
ATOM     26  H   UNL     1      16.977   9.262  22.114  0.00  0.00    +0.148 HD
BRANCH   6  22
ATOM     22  C   UNL     1      18.659  10.465  22.445  0.00  0.00    +0.131 C 
BRANCH  22  24
ATOM     24  C   UNL     1      18.179  11.780  21.856  0.00  0.00    +0.178 C 
BRANCH  24   2
ATOM      2  O   UNL     1      17.610  11.545  20.574  0.00  0.00    -0.381 OA
ATOM     25  C   UNL     1      17.042  12.730  20.031  0.00  0.00    +0.194 C 
ENDBRANCH  24   2
ENDBRANCH  22  24
ENDBRANCH   6  22
ENDBRANCH  17  18
BRANCH  14   8
ATOM      3  N   UNL     1      12.225   7.965  19.331  0.00  0.00    -0.291 NA
ATOM      8  C   UNL     1      13.274   8.827  19.913  0.00  0.00    +0.146 C 
ATOM      9  C   UNL     1      12.598   9.504  21.120  0.00  0.00    +0.030 C 
ATOM     10  C   UNL     1      10.945   8.594  19.658  0.00  0.00    +0.085 C 
ATOM     11  C   UNL     1      11.159   9.010  21.099  0.00  0.00    +0.017 C 
BRANCH   3  12
ATOM     12  C   UNL     1      12.383   7.756  17.899  0.00  0.00    +0.088 C 
BRANCH  12  13
ATOM     13  C   UNL     1      12.055   9.016  17.080  0.00  0.00    -0.003 C 
ATOM     15  C   UNL     1      13.271   9.421  16.245  0.00  0.00    +0.008 C 
ATOM     16  C   UNL     1      10.842   8.823  16.165  0.00  0.00    +0.008 C 
ENDBRANCH  12  13
ENDBRANCH   3  12
ENDBRANCH  14   8
TORSDOF 7
ENDMDL
MODEL 6
REMARK VINA RESULT:      -6.0      3.596      7.056
REMARK  Name = 45783383
REMARK  10 active torsions:
REMARK  status: ('A' for Active; 'I' for Inactive)
REMARK    1  A    between atoms: O_2  and  C_24
REMARK    2  A    between atoms: O_2  and  C_25
REMARK    3  A    between atoms: N_3  and  C_12
REMARK    4  A    between atoms: N_6  and  C_22
REMARK    5  A    between atoms: C_8  and  C_14
REMARK    6  A    between atoms: C_12  and  C_13
REMARK    7  A    between atoms: C_13  and  C_15
REMARK    8  A    between atoms: C_13  and  C_16
REMARK    9  A    between atoms: C_17  and  C_18
REMARK   10  A    between atoms: C_22  and  C_24
REMARK                            x       y       z     vdW  Elec       q    Type
REMARK                         _______ _______ _______ _____ _____    ______ ____
ROOT
ATOM      1  O   UNL     1      10.848   9.557  22.730  0.00  0.00    -0.336 OA
ATOM      4  N   UNL     1      12.854  10.245  22.007  0.00  0.00    -0.190 NA
ATOM      5  N   UNL     1      11.490   8.422  22.220  0.00  0.00    -0.056 NA
ATOM     14  C   UNL     1      11.720  10.587  22.565  0.00  0.00    +0.245 A 
ATOM     17  C   UNL     1      12.666   8.908  21.814  0.00  0.00    +0.205 A 
ENDROOT
BRANCH  17  18
ATOM      6  N   UNL     1      12.523   8.110  19.092  0.00  0.00    -0.326 N 
ATOM      7  N   UNL     1      14.554   6.912  19.288  0.00  0.00    -0.240 NA
ATOM     18  C   UNL     1      13.674   8.085  21.210  0.00  0.00    +0.062 A 
ATOM     19  C   UNL     1      13.620   7.686  19.883  0.00  0.00    +0.130 A 
ATOM     20  C   UNL     1      14.756   7.661  21.974  0.00  0.00    +0.016 A 
ATOM     21  C   UNL     1      15.737   6.864  21.396  0.00  0.00    +0.020 A 
ATOM     23  C   UNL     1      15.592   6.519  20.062  0.00  0.00    +0.113 A 
ATOM     26  H   UNL     1      12.051   8.950  19.401  0.00  0.00    +0.148 HD
BRANCH   6  22
ATOM     22  C   UNL     1      12.382   7.749  17.719  0.00  0.00    +0.131 C 
BRANCH  22  24
ATOM     24  C   UNL     1      12.319   8.999  16.858  0.00  0.00    +0.178 C 
BRANCH  24   2
ATOM      2  O   UNL     1      12.959   8.750  15.613  0.00  0.00    -0.381 OA
ATOM     25  C   UNL     1      14.246   9.352  15.560  0.00  0.00    +0.194 C 
ENDBRANCH  24   2
ENDBRANCH  22  24
ENDBRANCH   6  22
ENDBRANCH  17  18
BRANCH  14   8
ATOM      3  N   UNL     1      12.291  12.658  23.822  0.00  0.00    -0.291 NA
ATOM      8  C   UNL     1      11.256  11.946  23.044  0.00  0.00    +0.146 C 
ATOM      9  C   UNL     1      10.915  12.900  21.884  0.00  0.00    +0.030 C 
ATOM     10  C   UNL     1      12.055  14.086  23.615  0.00  0.00    +0.085 C 
ATOM     11  C   UNL     1      11.760  14.143  22.130  0.00  0.00    +0.017 C 
BRANCH   3  12
ATOM     12  C   UNL     1      12.293  12.302  25.235  0.00  0.00    +0.088 C 
BRANCH  12  13
ATOM     13  C   UNL     1      13.714  12.096  25.787  0.00  0.00    -0.003 C 
ATOM     15  C   UNL     1      14.672  11.767  24.640  0.00  0.00    +0.008 C 
ATOM     16  C   UNL     1      14.229  13.318  26.554  0.00  0.00    +0.008 C 
ENDBRANCH  12  13
ENDBRANCH   3  12
ENDBRANCH  14   8
TORSDOF 7
ENDMDL
MODEL 7
REMARK VINA RESULT:      -6.0      2.432      7.062
REMARK  Name = 45783383
REMARK  10 active torsions:
REMARK  status: ('A' for Active; 'I' for Inactive)
REMARK    1  A    between atoms: O_2  and  C_24
REMARK    2  A    between atoms: O_2  and  C_25
REMARK    3  A    between atoms: N_3  and  C_12
REMARK    4  A    between atoms: N_6  and  C_22
REMARK    5  A    between atoms: C_8  and  C_14
REMARK    6  A    between atoms: C_12  and  C_13
REMARK    7  A    between atoms: C_13  and  C_15
REMARK    8  A    between atoms: C_13  and  C_16
REMARK    9  A    between atoms: C_17  and  C_18
REMARK   10  A    between atoms: C_22  and  C_24
REMARK                            x       y       z     vdW  Elec       q    Type
REMARK                         _______ _______ _______ _____ _____    ______ ____
ROOT
ATOM      1  O   UNL     1      13.362   7.224  19.010  0.00  0.00    -0.336 OA
ATOM      4  N   UNL     1      15.066   8.665  18.821  0.00  0.00    -0.190 NA
ATOM      5  N   UNL     1      14.417   6.679  19.752  0.00  0.00    -0.056 NA
ATOM     14  C   UNL     1      13.828   8.391  18.495  0.00  0.00    +0.245 A 
ATOM     17  C   UNL     1      15.385   7.585  19.592  0.00  0.00    +0.205 A 
ENDROOT
BRANCH  17  18
ATOM      6  N   UNL     1      16.484   9.577  21.293  0.00  0.00    -0.326 N 
ATOM      7  N   UNL     1      18.452   8.298  21.596  0.00  0.00    -0.240 NA
ATOM     18  C   UNL     1      16.682   7.443  20.189  0.00  0.00    +0.062 A 
ATOM     19  C   UNL     1      17.234   8.405  21.021  0.00  0.00    +0.130 A 
ATOM     20  C   UNL     1      17.430   6.300  19.931  0.00  0.00    +0.016 A 
ATOM     21  C   UNL     1      18.687   6.154  20.505  0.00  0.00    +0.020 A 
ATOM     23  C   UNL     1      19.150   7.173  21.323  0.00  0.00    +0.113 A 
ATOM     26  H   UNL     1      15.480   9.497  21.185  0.00  0.00    +0.148 HD
BRANCH   6  22
ATOM     22  C   UNL     1      16.969  10.621  22.136  0.00  0.00    +0.131 C 
BRANCH  22  24
ATOM     24  C   UNL     1      15.803  11.363  22.766  0.00  0.00    +0.178 C 
BRANCH  24   2
ATOM      2  O   UNL     1      14.801  10.431  23.153  0.00  0.00    -0.381 OA
ATOM     25  C   UNL     1      13.515  10.829  22.696  0.00  0.00    +0.194 C 
ENDBRANCH  24   2
ENDBRANCH  22  24
ENDBRANCH   6  22
ENDBRANCH  17  18
BRANCH  14   8
ATOM      3  N   UNL     1      12.938   8.819  16.211  0.00  0.00    -0.291 NA
ATOM      8  C   UNL     1      12.862   9.184  17.640  0.00  0.00    +0.146 C 
ATOM      9  C   UNL     1      11.391   8.945  18.027  0.00  0.00    +0.030 C 
ATOM     10  C   UNL     1      11.608   9.059  15.652  0.00  0.00    +0.085 C 
ATOM     11  C   UNL     1      10.707   8.507  16.739  0.00  0.00    +0.017 C 
BRANCH   3  12
ATOM     12  C   UNL     1      13.975   9.543  15.487  0.00  0.00    +0.088 C 
BRANCH  12  13
ATOM     13  C   UNL     1      13.928  11.057  15.753  0.00  0.00    -0.003 C 
ATOM     15  C   UNL     1      15.223  11.503  16.438  0.00  0.00    +0.008 C 
ATOM     16  C   UNL     1      13.716  11.873  14.474  0.00  0.00    +0.008 C 
ENDBRANCH  12  13
ENDBRANCH   3  12
ENDBRANCH  14   8
TORSDOF 7
ENDMDL
MODEL 8
REMARK VINA RESULT:      -5.9      1.965      6.891
REMARK  Name = 45783383
REMARK  10 active torsions:
REMARK  status: ('A' for Active; 'I' for Inactive)
REMARK    1  A    between atoms: O_2  and  C_24
REMARK    2  A    between atoms: O_2  and  C_25
REMARK    3  A    between atoms: N_3  and  C_12
REMARK    4  A    between atoms: N_6  and  C_22
REMARK    5  A    between atoms: C_8  and  C_14
REMARK    6  A    between atoms: C_12  and  C_13
REMARK    7  A    between atoms: C_13  and  C_15
REMARK    8  A    between atoms: C_13  and  C_16
REMARK    9  A    between atoms: C_17  and  C_18
REMARK   10  A    between atoms: C_22  and  C_24
REMARK                            x       y       z     vdW  Elec       q    Type
REMARK                         _______ _______ _______ _____ _____    ______ ____
ROOT
ATOM      1  O   UNL     1      14.098   6.654  20.374  0.00  0.00    -0.336 OA
ATOM      4  N   UNL     1      15.749   7.736  19.315  0.00  0.00    -0.190 NA
ATOM      5  N   UNL     1      15.220   6.564  21.207  0.00  0.00    -0.056 NA
ATOM     14  C   UNL     1      14.496   7.360  19.283  0.00  0.00    +0.245 A 
ATOM     17  C   UNL     1      16.152   7.225  20.515  0.00  0.00    +0.205 A 
ENDROOT
BRANCH  17  18
ATOM      6  N   UNL     1      17.079   9.699  21.556  0.00  0.00    -0.326 N 
ATOM      7  N   UNL     1      19.222   8.779  21.960  0.00  0.00    -0.240 NA
ATOM     18  C   UNL     1      17.495   7.392  20.992  0.00  0.00    +0.062 A 
ATOM     19  C   UNL     1      17.964   8.592  21.503  0.00  0.00    +0.130 A 
ATOM     20  C   UNL     1      18.374   6.316  20.947  0.00  0.00    +0.016 A 
ATOM     21  C   UNL     1      19.676   6.470  21.408  0.00  0.00    +0.020 A 
ATOM     23  C   UNL     1      20.049   7.711  21.900  0.00  0.00    +0.113 A 
ATOM     26  H   UNL     1      16.092   9.478  21.574  0.00  0.00    +0.148 HD
BRANCH   6  22
ATOM     22  C   UNL     1      17.472  10.973  22.064  0.00  0.00    +0.131 C 
BRANCH  22  24
ATOM     24  C   UNL     1      16.256  11.723  22.580  0.00  0.00    +0.178 C 
BRANCH  24   2
ATOM      2  O   UNL     1      15.251  10.792  22.959  0.00  0.00    -0.381 OA
ATOM     25  C   UNL     1      14.464  11.286  24.036  0.00  0.00    +0.194 C 
ENDBRANCH  24   2
ENDBRANCH  22  24
ENDBRANCH   6  22
ENDBRANCH  17  18
BRANCH  14   8
ATOM      3  N   UNL     1      12.623   8.793  18.487  0.00  0.00    -0.291 NA
ATOM      8  C   UNL     1      13.449   7.598  18.215  0.00  0.00    +0.146 C 
ATOM      9  C   UNL     1      14.064   7.856  16.827  0.00  0.00    +0.030 C 
ATOM     10  C   UNL     1      12.204   9.310  17.185  0.00  0.00    +0.085 C 
ATOM     11  C   UNL     1      13.478   9.186  16.373  0.00  0.00    +0.017 C 
BRANCH   3  12
ATOM     12  C   UNL     1      11.489   8.520  19.359  0.00  0.00    +0.088 C 
BRANCH  12  13
ATOM     13  C   UNL     1      11.471   9.426  20.602  0.00  0.00    -0.003 C 
ATOM     15  C   UNL     1      11.346   8.571  21.864  0.00  0.00    +0.008 C 
ATOM     16  C   UNL     1      12.717  10.312  20.701  0.00  0.00    +0.008 C 
ENDBRANCH  12  13
ENDBRANCH   3  12
ENDBRANCH  14   8
TORSDOF 7
ENDMDL
MODEL 9
REMARK VINA RESULT:      -5.9     14.678     18.380
REMARK  Name = 45783383
REMARK  10 active torsions:
REMARK  status: ('A' for Active; 'I' for Inactive)
REMARK    1  A    between atoms: O_2  and  C_24
REMARK    2  A    between atoms: O_2  and  C_25
REMARK    3  A    between atoms: N_3  and  C_12
REMARK    4  A    between atoms: N_6  and  C_22
REMARK    5  A    between atoms: C_8  and  C_14
REMARK    6  A    between atoms: C_12  and  C_13
REMARK    7  A    between atoms: C_13  and  C_15
REMARK    8  A    between atoms: C_13  and  C_16
REMARK    9  A    between atoms: C_17  and  C_18
REMARK   10  A    between atoms: C_22  and  C_24
REMARK                            x       y       z     vdW  Elec       q    Type
REMARK                         _______ _______ _______ _____ _____    ______ ____
ROOT
ATOM      1  O   UNL     1      11.889   5.925   3.521  0.00  0.00    -0.336 OA
ATOM      4  N   UNL     1      10.338   4.559   4.384  0.00  0.00    -0.190 NA
ATOM      5  N   UNL     1      11.623   6.402   4.811  0.00  0.00    -0.056 NA
ATOM     14  C   UNL     1      11.091   4.839   3.350  0.00  0.00    +0.245 A 
ATOM     17  C   UNL     1      10.700   5.545   5.255  0.00  0.00    +0.205 A 
ENDROOT
BRANCH  17  18
ATOM      6  N   UNL     1       9.582   7.971   6.220  0.00  0.00    -0.326 N 
ATOM      7  N   UNL     1       9.015   6.945   8.276  0.00  0.00    -0.240 NA
ATOM     18  C   UNL     1      10.119   5.645   6.562  0.00  0.00    +0.062 A 
ATOM     19  C   UNL     1       9.569   6.821   7.050  0.00  0.00    +0.130 A 
ATOM     20  C   UNL     1      10.098   4.526   7.388  0.00  0.00    +0.016 A 
ATOM     21  C   UNL     1       9.536   4.615   8.656  0.00  0.00    +0.020 A 
ATOM     23  C   UNL     1       9.013   5.836   9.050  0.00  0.00    +0.113 A 
ATOM     26  H   UNL     1       9.642   7.799   5.224  0.00  0.00    +0.148 HD
BRANCH   6  22
ATOM     22  C   UNL     1       9.041   9.224   6.635  0.00  0.00    +0.131 C 
BRANCH  22  24
ATOM     24  C   UNL     1       8.374   9.916   5.459  0.00  0.00    +0.178 C 
BRANCH  24   2
ATOM      2  O   UNL     1       7.648   8.960   4.697  0.00  0.00    -0.381 OA
ATOM     25  C   UNL     1       6.826   9.587   3.721  0.00  0.00    +0.194 C 
ENDBRANCH  24   2
ENDBRANCH  22  24
ENDBRANCH   6  22
ENDBRANCH  17  18
BRANCH  14   8
ATOM      3  N   UNL     1      11.401   5.067   0.891  0.00  0.00    -0.291 NA
ATOM      8  C   UNL     1      11.191   4.132   2.015  0.00  0.00    +0.146 C 
ATOM      9  C   UNL     1      12.386   3.163   1.944  0.00  0.00    +0.030 C 
ATOM     10  C   UNL     1      12.153   4.331  -0.125  0.00  0.00    +0.085 C 
ATOM     11  C   UNL     1      13.175   3.593   0.716  0.00  0.00    +0.017 C 
BRANCH   3  12
ATOM     12  C   UNL     1      10.159   5.617   0.363  0.00  0.00    +0.088 C 
BRANCH  12  13
ATOM     13  C   UNL     1      10.096   7.149   0.484  0.00  0.00    -0.003 C 
ATOM     15  C   UNL     1       9.327   7.536   1.750  0.00  0.00    +0.008 C 
ATOM     16  C   UNL     1      11.485   7.794   0.507  0.00  0.00    +0.008 C 
ENDBRANCH  12  13
ENDBRANCH   3  12
ENDBRANCH  14   8
TORSDOF 7
ENDMDL
MODEL 10
REMARK VINA RESULT:      -5.9     14.777     18.215
REMARK  Name = 45783383
REMARK  10 active torsions:
REMARK  status: ('A' for Active; 'I' for Inactive)
REMARK    1  A    between atoms: O_2  and  C_24
REMARK    2  A    between atoms: O_2  and  C_25
REMARK    3  A    between atoms: N_3  and  C_12
REMARK    4  A    between atoms: N_6  and  C_22
REMARK    5  A    between atoms: C_8  and  C_14
REMARK    6  A    between atoms: C_12  and  C_13
REMARK    7  A    between atoms: C_13  and  C_15
REMARK    8  A    between atoms: C_13  and  C_16
REMARK    9  A    between atoms: C_17  and  C_18
REMARK   10  A    between atoms: C_22  and  C_24
REMARK                            x       y       z     vdW  Elec       q    Type
REMARK                         _______ _______ _______ _____ _____    ______ ____
ROOT
ATOM      1  O   UNL     1      11.198   3.798   2.751  0.00  0.00    -0.336 OA
ATOM      4  N   UNL     1      11.378   6.000   3.121  0.00  0.00    -0.190 NA
ATOM      5  N   UNL     1      10.543   4.044   3.964  0.00  0.00    -0.056 NA
ATOM     14  C   UNL     1      11.660   5.002   2.322  0.00  0.00    +0.245 A 
ATOM     17  C   UNL     1      10.692   5.363   4.114  0.00  0.00    +0.205 A 
ENDROOT
BRANCH  17  18
ATOM      6  N   UNL     1      12.373   6.345   6.182  0.00  0.00    -0.326 N 
ATOM      7  N   UNL     1      10.509   7.235   7.337  0.00  0.00    -0.240 NA
ATOM     18  C   UNL     1      10.168   6.075   5.244  0.00  0.00    +0.062 A 
ATOM     19  C   UNL     1      10.974   6.561   6.262  0.00  0.00    +0.130 A 
ATOM     20  C   UNL     1       8.799   6.295   5.337  0.00  0.00    +0.016 A 
ATOM     21  C   UNL     1       8.283   6.984   6.429  0.00  0.00    +0.020 A 
ATOM     23  C   UNL     1       9.172   7.429   7.394  0.00  0.00    +0.113 A 
ATOM     26  H   UNL     1      12.746   6.191   5.253  0.00  0.00    +0.148 HD
BRANCH   6  22
ATOM     22  C   UNL     1      13.280   6.808   7.180  0.00  0.00    +0.131 C 
BRANCH  22  24
ATOM     24  C   UNL     1      14.049   8.013   6.666  0.00  0.00    +0.178 C 
BRANCH  24   2
ATOM      2  O   UNL     1      15.415   7.662   6.488  0.00  0.00    -0.381 OA
ATOM     25  C   UNL     1      16.112   8.647   5.736  0.00  0.00    +0.194 C 
ENDBRANCH  24   2
ENDBRANCH  22  24
ENDBRANCH   6  22
ENDBRANCH  17  18
BRANCH  14   8
ATOM      3  N   UNL     1      13.558   4.069   1.010  0.00  0.00    -0.291 NA
ATOM      8  C   UNL     1      12.416   5.006   1.010  0.00  0.00    +0.146 C 
ATOM      9  C   UNL     1      11.545   4.560  -0.179  0.00  0.00    +0.030 C 
ATOM     10  C   UNL     1      13.738   3.637  -0.376  0.00  0.00    +0.085 C 
ATOM     11  C   UNL     1      12.308   3.410  -0.822  0.00  0.00    +0.017 C 
BRANCH   3  12
ATOM     12  C   UNL     1      14.774   4.646   1.567  0.00  0.00    +0.088 C 
BRANCH  12  13
ATOM     13  C   UNL     1      14.911   6.144   1.251  0.00  0.00    -0.003 C 
ATOM     15  C   UNL     1      15.070   6.935   2.552  0.00  0.00    +0.008 C 
ATOM     16  C   UNL     1      16.090   6.444   0.320  0.00  0.00    +0.008 C 
ENDBRANCH  12  13
ENDBRANCH   3  12
ENDBRANCH  14   8
TORSDOF 7
ENDMDL
