REMARK  Name = 45361365
REMARK  12 active torsions:
REMARK  status: ('A' for Active; 'I' for Inactive)
REMARK    1  A    between atoms: O_1  and  C_9
REMARK    2  A    between atoms: N_4  and  C_13
REMARK    3  A    between atoms: N_5  and  C_23
REMARK    4  A    between atoms: N_5  and  C_24
REMARK    5  A    between atoms: C_6  and  C_16
REMARK    6  A    between atoms: C_8  and  C_18
REMARK    7  A    between atoms: C_11  and  C_17
REMARK    8  A    between atoms: C_17  and  C_19
REMARK    9  A    between atoms: C_17  and  C_20
REMARK   10  A    between atoms: C_21  and  C_22
REMARK   11  A    between atoms: C_23  and  C_25
REMARK   12  A    between atoms: C_25  and  C_26
REMARK                            x       y       z     vdW  Elec       q    Type
REMARK                         _______ _______ _______ _____ _____    ______ ____
ROOT
ATOM      6  C   UNL     1      -2.686  -1.746   0.343  0.00  0.00    -0.027 C 
ATOM      7  C   UNL     1      -2.047  -0.360  -0.003  0.00  0.00    +0.028 C 
ATOM      8  C   UNL     1      -3.106   0.594  -0.664  0.00  0.00    +0.012 C 
ATOM      9  C   UNL     1      -0.718  -0.533  -0.793  0.00  0.00    +0.122 C 
ATOM     10  C   UNL     1      -1.651  -2.618   1.093  0.00  0.00    +0.007 C 
ATOM     11  C   UNL     1       0.272  -1.489  -0.088  0.00  0.00    +0.029 C 
ATOM     12  C   UNL     1      -3.889  -1.525   1.290  0.00  0.00    +0.009 C 
ATOM     13  C   UNL     1      -4.344   0.749   0.263  0.00  0.00    +0.076 C 
ATOM     14  C   UNL     1      -0.364  -2.822   0.305  0.00  0.00    +0.007 C 
ATOM     15  C   UNL     1      -4.938  -0.586   0.712  0.00  0.00    +0.023 C 
ATOM     16  C   UNL     1      -3.162  -2.512  -0.917  0.00  0.00    +0.011 C 
ATOM     18  C   UNL     1      -2.551   1.988  -1.004  0.00  0.00    +0.010 C 
ENDROOT
BRANCH  13   4
ATOM      3  O   UNL     1      -6.253   2.510   1.561  0.00  0.00    -0.276 OA
ATOM      4  N   UNL     1      -5.390   1.528  -0.365  0.00  0.00    -0.312 N 
ATOM     21  C   UNL     1      -6.254   2.342   0.344  0.00  0.00    +0.210 C 
ATOM     22  C   UNL     1      -7.227   3.057  -0.555  0.00  0.00    +0.109 C 
ATOM     32  H   UNL     1      -5.526   1.423  -1.366  0.00  0.00    +0.149 HD
ENDBRANCH  13   4
BRANCH   9   1
ATOM      1  O   UNL     1      -0.059   0.730  -0.901  0.00  0.00    -0.391 OA
ATOM     33  H   UNL     1       0.131   1.050  -0.002  0.00  0.00    +0.210 HD
ENDBRANCH   9   1
BRANCH  11  17
ATOM     17  C   UNL     1       1.519  -1.749  -0.944  0.00  0.00    +0.078 C 
ATOM     19  C   UNL     1       1.103  -2.390  -2.269  0.00  0.00    +0.017 C 
BRANCH  17  20
ATOM      2  O   UNL     1       2.395  -3.877  -0.282  0.00  0.00    -0.275 OA
ATOM      5  N   UNL     1       3.453  -2.033   0.629  0.00  0.00    -0.304 N 
ATOM     20  C   UNL     1       2.493  -2.649  -0.180  0.00  0.00    +0.219 C 
ATOM     24  C   UNL     1       4.383  -2.863   1.388  0.00  0.00    +0.132 C 
BRANCH   5  23
ATOM     23  C   UNL     1       3.659  -0.593   0.778  0.00  0.00    +0.112 C 
BRANCH  23  25
ATOM     25  C   UNL     1       4.657  -0.036  -0.234  0.00  0.00    +0.054 C 
BRANCH  25  26
ATOM     26  C   UNL     1       4.896   1.445  -0.070  0.00  0.00    -0.046 A 
ATOM     27  C   UNL     1       4.101   2.360  -0.760  0.00  0.00    +0.004 A 
ATOM     28  C   UNL     1       5.912   1.898   0.771  0.00  0.00    +0.004 A 
ATOM     29  C   UNL     1       4.322   3.729  -0.608  0.00  0.00    +0.000 A 
ATOM     30  C   UNL     1       6.133   3.267   0.923  0.00  0.00    +0.000 A 
ATOM     31  C   UNL     1       5.338   4.183   0.233  0.00  0.00    +0.000 A 
ENDBRANCH  25  26
ENDBRANCH  23  25
ENDBRANCH   5  23
ENDBRANCH  17  20
ENDBRANCH  11  17
TORSDOF 7
