MODEL 1
REMARK VINA RESULT:      -6.0      0.000      0.000
REMARK  Name = 71692999
REMARK  8 active torsions:
REMARK  status: ('A' for Active; 'I' for Inactive)
REMARK    1  A    between atoms: N_1  and  C_12
REMARK    2  A    between atoms: C_4  and  C_8
REMARK    3  A    between atoms: C_6  and  C_12
REMARK    4  A    between atoms: C_7  and  C_11
REMARK    5  A    between atoms: C_8  and  C_13
REMARK    6  A    between atoms: C_8  and  C_14
REMARK    7  A    between atoms: C_9  and  C_15
REMARK    8  A    between atoms: C_11  and  C_16
REMARK                            x       y       z     vdW  Elec       q    Type
REMARK                         _______ _______ _______ _____ _____    ______ ____
ROOT
ATOM      4  C   UNL     1      -5.888 -10.593  17.911  0.00  0.00    +0.000 C 
ATOM      5  C   UNL     1      -4.813 -10.281  16.861  0.00  0.00    +0.012 C 
ATOM      6  C   UNL     1      -5.582 -11.933  18.618  0.00  0.00    +0.029 C 
ATOM      7  C   UNL     1      -4.650 -11.394  15.803  0.00  0.00    +0.022 C 
ATOM      9  C   UNL     1      -4.750 -12.794  16.391  0.00  0.00    -0.073 C 
ATOM     10  C   UNL     1      -5.157 -13.013  17.655  0.00  0.00    -0.023 C 
ATOM     15  C   UNL     1      -4.431 -13.952  15.485  0.00  0.00    +0.039 C 
ENDROOT
BRANCH   4   8
ATOM      8  C   UNL     1      -7.289 -10.597  17.286  0.00  0.00    -0.013 C 
ATOM     13  C   UNL     1      -7.674  -9.193  16.833  0.00  0.00    +0.007 C 
ATOM     14  C   UNL     1      -8.312 -11.145  18.276  0.00  0.00    +0.007 C 
ENDBRANCH   4   8
BRANCH   7  11
ATOM     11  C   UNL     1      -3.339 -11.159  15.042  0.00  0.00    +0.082 C 
BRANCH  11  16
ATOM      2  N   UNL     1      -4.857 -10.320  13.240  0.00  0.00    -0.342 N 
ATOM      3  N   UNL     1      -2.696 -10.402  12.727  0.00  0.00    -0.232 NA
ATOM     16  C   UNL     1      -3.594 -10.628  13.660  0.00  0.00    +0.109 A 
ATOM     17  C   UNL     1      -4.769  -9.864  11.950  0.00  0.00    +0.066 A 
ATOM     18  C   UNL     1      -3.411  -9.926  11.653  0.00  0.00    +0.089 A 
ATOM     19  C   UNL     1      -5.732  -9.418  11.044  0.00  0.00    +0.028 A 
ATOM     20  C   UNL     1      -2.969  -9.521  10.382  0.00  0.00    +0.030 A 
ATOM     21  C   UNL     1      -5.275  -9.020   9.783  0.00  0.00    +0.002 A 
ATOM     22  C   UNL     1      -3.918  -9.070   9.457  0.00  0.00    +0.002 A 
ATOM     25  H   UNL     1      -5.706 -10.409  13.782  0.00  0.00    +0.167 HD
ENDBRANCH  11  16
ENDBRANCH   7  11
BRANCH   6  12
ATOM     12  C   UNL     1      -4.507 -11.772  19.698  0.00  0.00    +0.085 C 
BRANCH  12   1
ATOM      1  N   UNL     1      -3.305 -12.505  19.339  0.00  0.00    -0.329 NA
ATOM     23  H   UNL     1      -3.026 -13.122  20.100  0.00  0.00    +0.118 HD
ATOM     24  H   UNL     1      -2.535 -11.851  19.210  0.00  0.00    +0.118 HD
ENDBRANCH  12   1
ENDBRANCH   6  12
TORSDOF 5
ENDMDL
MODEL 2
REMARK VINA RESULT:      -5.9      2.161      3.351
REMARK  Name = 71692999
REMARK  8 active torsions:
REMARK  status: ('A' for Active; 'I' for Inactive)
REMARK    1  A    between atoms: N_1  and  C_12
REMARK    2  A    between atoms: C_4  and  C_8
REMARK    3  A    between atoms: C_6  and  C_12
REMARK    4  A    between atoms: C_7  and  C_11
REMARK    5  A    between atoms: C_8  and  C_13
REMARK    6  A    between atoms: C_8  and  C_14
REMARK    7  A    between atoms: C_9  and  C_15
REMARK    8  A    between atoms: C_11  and  C_16
REMARK                            x       y       z     vdW  Elec       q    Type
REMARK                         _______ _______ _______ _____ _____    ______ ____
ROOT
ATOM      4  C   UNL     1      -5.035 -12.299  15.672  0.00  0.00    +0.000 C 
ATOM      5  C   UNL     1      -4.041 -12.745  14.592  0.00  0.00    +0.012 C 
ATOM      6  C   UNL     1      -4.924 -10.776  15.916  0.00  0.00    +0.029 C 
ATOM      7  C   UNL     1      -2.576 -12.385  14.923  0.00  0.00    +0.022 C 
ATOM      9  C   UNL     1      -2.431 -11.013  15.565  0.00  0.00    -0.073 C 
ATOM     10  C   UNL     1      -3.493 -10.305  15.991  0.00  0.00    -0.023 C 
ATOM     15  C   UNL     1      -1.037 -10.485  15.767  0.00  0.00    +0.039 C 
ENDROOT
BRANCH   4   8
ATOM      8  C   UNL     1      -4.836 -13.090  16.972  0.00  0.00    -0.013 C 
ATOM     13  C   UNL     1      -5.195 -14.557  16.762  0.00  0.00    +0.007 C 
ATOM     14  C   UNL     1      -5.670 -12.484  18.097  0.00  0.00    +0.007 C 
ENDBRANCH   4   8
BRANCH   7  11
ATOM     11  C   UNL     1      -1.734 -12.540  13.650  0.00  0.00    +0.082 C 
BRANCH  11  16
ATOM      2  N   UNL     1      -3.049 -12.488  11.524  0.00  0.00    -0.342 N 
ATOM      3  N   UNL     1      -2.318 -10.523  12.261  0.00  0.00    -0.232 NA
ATOM     16  C   UNL     1      -2.355 -11.817  12.490  0.00  0.00    +0.109 A 
ATOM     17  C   UNL     1      -3.490 -11.566  10.609  0.00  0.00    +0.066 A 
ATOM     18  C   UNL     1      -3.021 -10.348  11.091  0.00  0.00    +0.089 A 
ATOM     19  C   UNL     1      -4.236 -11.691   9.436  0.00  0.00    +0.028 A 
ATOM     20  C   UNL     1      -3.304  -9.174  10.374  0.00  0.00    +0.030 A 
ATOM     21  C   UNL     1      -4.508 -10.511   8.735  0.00  0.00    +0.002 A 
ATOM     22  C   UNL     1      -4.051  -9.275   9.194  0.00  0.00    +0.002 A 
ATOM     25  H   UNL     1      -3.211 -13.486  11.488  0.00  0.00    +0.167 HD
ENDBRANCH  11  16
ENDBRANCH   7  11
BRANCH   6  12
ATOM     12  C   UNL     1      -5.661  -9.973  14.839  0.00  0.00    +0.085 C 
BRANCH  12   1
ATOM      1  N   UNL     1      -6.967  -9.554  15.317  0.00  0.00    -0.329 NA
ATOM     23  H   UNL     1      -7.068  -8.544  15.233  0.00  0.00    +0.118 HD
ATOM     24  H   UNL     1      -7.048  -9.763  16.311  0.00  0.00    +0.118 HD
ENDBRANCH  12   1
ENDBRANCH   6  12
TORSDOF 5
ENDMDL
MODEL 3
REMARK VINA RESULT:      -5.9     23.711     26.823
REMARK  Name = 71692999
REMARK  8 active torsions:
REMARK  status: ('A' for Active; 'I' for Inactive)
REMARK    1  A    between atoms: N_1  and  C_12
REMARK    2  A    between atoms: C_4  and  C_8
REMARK    3  A    between atoms: C_6  and  C_12
REMARK    4  A    between atoms: C_7  and  C_11
REMARK    5  A    between atoms: C_8  and  C_13
REMARK    6  A    between atoms: C_8  and  C_14
REMARK    7  A    between atoms: C_9  and  C_15
REMARK    8  A    between atoms: C_11  and  C_16
REMARK                            x       y       z     vdW  Elec       q    Type
REMARK                         _______ _______ _______ _____ _____    ______ ____
ROOT
ATOM      4  C   UNL     1      11.088   4.489  -1.260  0.00  0.00    +0.000 C 
ATOM      5  C   UNL     1      10.681   4.202   0.191  0.00  0.00    +0.012 C 
ATOM      6  C   UNL     1      12.212   3.527  -1.708  0.00  0.00    +0.029 C 
ATOM      7  C   UNL     1      11.858   4.290   1.186  0.00  0.00    +0.022 C 
ATOM      9  C   UNL     1      13.150   3.706   0.633  0.00  0.00    -0.073 C 
ATOM     10  C   UNL     1      13.284   3.361  -0.661  0.00  0.00    -0.023 C 
ATOM     15  C   UNL     1      14.314   3.578   1.577  0.00  0.00    +0.039 C 
ENDROOT
BRANCH   4   8
ATOM      8  C   UNL     1      11.502   5.956  -1.440  0.00  0.00    -0.013 C 
ATOM     13  C   UNL     1      10.301   6.875  -1.246  0.00  0.00    +0.007 C 
ATOM     14  C   UNL     1      12.129   6.167  -2.815  0.00  0.00    +0.007 C 
ENDBRANCH   4   8
BRANCH   7  11
ATOM     11  C   UNL     1      11.430   3.644   2.510  0.00  0.00    +0.082 C 
BRANCH  11  16
ATOM      2  N   UNL     1      10.474   4.363   4.707  0.00  0.00    -0.342 N 
ATOM      3  N   UNL     1      10.180   5.771   3.013  0.00  0.00    -0.232 NA
ATOM     16  C   UNL     1      10.689   4.617   3.381  0.00  0.00    +0.109 A 
ATOM     17  C   UNL     1       9.779   5.424   5.228  0.00  0.00    +0.066 A 
ATOM     18  C   UNL     1       9.607   6.288   4.151  0.00  0.00    +0.089 A 
ATOM     19  C   UNL     1       9.299   5.691   6.511  0.00  0.00    +0.028 A 
ATOM     20  C   UNL     1       8.920   7.498   4.348  0.00  0.00    +0.030 A 
ATOM     21  C   UNL     1       8.616   6.900   6.688  0.00  0.00    +0.002 A 
ATOM     22  C   UNL     1       8.429   7.788   5.627  0.00  0.00    +0.002 A 
ATOM     25  H   UNL     1      10.773   3.541   5.214  0.00  0.00    +0.167 HD
ENDBRANCH  11  16
ENDBRANCH   7  11
BRANCH   6  12
ATOM     12  C   UNL     1      11.661   2.149  -2.087  0.00  0.00    +0.085 C 
BRANCH  12   1
ATOM      1  N   UNL     1      10.362   2.274  -2.727  0.00  0.00    -0.329 NA
ATOM     23  H   UNL     1      10.469   2.609  -3.682  0.00  0.00    +0.118 HD
ATOM     24  H   UNL     1       9.812   2.980  -2.241  0.00  0.00    +0.118 HD
ENDBRANCH  12   1
ENDBRANCH   6  12
TORSDOF 5
ENDMDL
MODEL 4
REMARK VINA RESULT:      -5.8      2.005      6.365
REMARK  Name = 71692999
REMARK  8 active torsions:
REMARK  status: ('A' for Active; 'I' for Inactive)
REMARK    1  A    between atoms: N_1  and  C_12
REMARK    2  A    between atoms: C_4  and  C_8
REMARK    3  A    between atoms: C_6  and  C_12
REMARK    4  A    between atoms: C_7  and  C_11
REMARK    5  A    between atoms: C_8  and  C_13
REMARK    6  A    between atoms: C_8  and  C_14
REMARK    7  A    between atoms: C_9  and  C_15
REMARK    8  A    between atoms: C_11  and  C_16
REMARK                            x       y       z     vdW  Elec       q    Type
REMARK                         _______ _______ _______ _____ _____    ______ ____
ROOT
ATOM      4  C   UNL     1      -4.050 -11.446  12.611  0.00  0.00    +0.000 C 
ATOM      5  C   UNL     1      -4.509 -11.444  14.075  0.00  0.00    +0.012 C 
ATOM      6  C   UNL     1      -2.591 -11.945  12.501  0.00  0.00    +0.029 C 
ATOM      7  C   UNL     1      -3.607 -10.596  14.998  0.00  0.00    +0.022 C 
ATOM      9  C   UNL     1      -2.127 -10.729  14.669  0.00  0.00    -0.073 C 
ATOM     10  C   UNL     1      -1.693 -11.345  13.554  0.00  0.00    -0.023 C 
ATOM     15  C   UNL     1      -1.146 -10.089  15.613  0.00  0.00    +0.039 C 
ENDROOT
BRANCH   4   8
ATOM      8  C   UNL     1      -4.217 -10.059  11.975  0.00  0.00    -0.013 C 
ATOM     13  C   UNL     1      -5.694  -9.702  11.857  0.00  0.00    +0.007 C 
ATOM     14  C   UNL     1      -3.539 -10.015  10.609  0.00  0.00    +0.007 C 
ENDBRANCH   4   8
BRANCH   7  11
ATOM     11  C   UNL     1      -3.927 -10.949  16.456  0.00  0.00    +0.082 C 
BRANCH  11  16
ATOM      2  N   UNL     1      -6.101 -11.408  17.606  0.00  0.00    -0.342 N 
ATOM      3  N   UNL     1      -6.009  -9.532  16.418  0.00  0.00    -0.232 NA
ATOM     16  C   UNL     1      -5.345 -10.597  16.806  0.00  0.00    +0.109 A 
ATOM     17  C   UNL     1      -7.335 -10.827  17.743  0.00  0.00    +0.066 A 
ATOM     18  C   UNL     1      -7.252  -9.658  16.992  0.00  0.00    +0.089 A 
ATOM     19  C   UNL     1      -8.482 -11.213  18.437  0.00  0.00    +0.028 A 
ATOM     20  C   UNL     1      -8.371  -8.811  16.919  0.00  0.00    +0.030 A 
ATOM     21  C   UNL     1      -9.587 -10.358  18.353  0.00  0.00    +0.002 A 
ATOM     22  C   UNL     1      -9.534  -9.178  17.609  0.00  0.00    +0.002 A 
ATOM     25  H   UNL     1      -5.804 -12.280  18.024  0.00  0.00    +0.167 HD
ENDBRANCH  11  16
ENDBRANCH   7  11
BRANCH   6  12
ATOM     12  C   UNL     1      -2.506 -13.472  12.579  0.00  0.00    +0.085 C 
BRANCH  12   1
ATOM      1  N   UNL     1      -1.198 -13.890  13.051  0.00  0.00    -0.329 NA
ATOM     23  H   UNL     1      -1.249 -14.180  14.026  0.00  0.00    +0.118 HD
ATOM     24  H   UNL     1      -0.560 -13.097  13.028  0.00  0.00    +0.118 HD
ENDBRANCH  12   1
ENDBRANCH   6  12
TORSDOF 5
ENDMDL
MODEL 5
REMARK VINA RESULT:      -5.7     20.034     21.863
REMARK  Name = 71692999
REMARK  8 active torsions:
REMARK  status: ('A' for Active; 'I' for Inactive)
REMARK    1  A    between atoms: N_1  and  C_12
REMARK    2  A    between atoms: C_4  and  C_8
REMARK    3  A    between atoms: C_6  and  C_12
REMARK    4  A    between atoms: C_7  and  C_11
REMARK    5  A    between atoms: C_8  and  C_13
REMARK    6  A    between atoms: C_8  and  C_14
REMARK    7  A    between atoms: C_9  and  C_15
REMARK    8  A    between atoms: C_11  and  C_16
REMARK                            x       y       z     vdW  Elec       q    Type
REMARK                         _______ _______ _______ _____ _____    ______ ____
ROOT
ATOM      4  C   UNL     1     -12.107   8.682  18.040  0.00  0.00    +0.000 C 
ATOM      5  C   UNL     1     -12.049   7.432  18.926  0.00  0.00    +0.012 C 
ATOM      6  C   UNL     1     -11.519   9.903  18.784  0.00  0.00    +0.029 C 
ATOM      7  C   UNL     1     -12.774   7.606  20.278  0.00  0.00    +0.022 C 
ATOM      9  C   UNL     1     -12.562   8.981  20.895  0.00  0.00    -0.073 C 
ATOM     10  C   UNL     1     -11.989   9.990  20.214  0.00  0.00    -0.023 C 
ATOM     15  C   UNL     1     -13.074   9.202  22.292  0.00  0.00    +0.039 C 
ENDROOT
BRANCH   4   8
ATOM      8  C   UNL     1     -13.539   8.956  17.560  0.00  0.00    -0.013 C 
ATOM     13  C   UNL     1     -13.841   8.154  16.299  0.00  0.00    +0.007 C 
ATOM     14  C   UNL     1     -13.742  10.449  17.313  0.00  0.00    +0.007 C 
ENDBRANCH   4   8
BRANCH   7  11
ATOM     11  C   UNL     1     -12.353   6.463  21.211  0.00  0.00    +0.082 C 
BRANCH  11  16
ATOM      2  N   UNL     1     -14.784   5.876  21.264  0.00  0.00    -0.342 N 
ATOM      3  N   UNL     1     -13.560   5.094  22.947  0.00  0.00    -0.232 NA
ATOM     16  C   UNL     1     -13.545   5.798  21.836  0.00  0.00    +0.109 A 
ATOM     17  C   UNL     1     -15.656   5.177  22.058  0.00  0.00    +0.066 A 
ATOM     18  C   UNL     1     -14.868   4.699  23.101  0.00  0.00    +0.089 A 
ATOM     19  C   UNL     1     -17.026   4.930  21.956  0.00  0.00    +0.028 A 
ATOM     20  C   UNL     1     -15.466   3.927  24.111  0.00  0.00    +0.030 A 
ATOM     21  C   UNL     1     -17.604   4.159  22.971  0.00  0.00    +0.002 A 
ATOM     22  C   UNL     1     -16.840   3.666  24.030  0.00  0.00    +0.002 A 
ATOM     25  H   UNL     1     -15.017   6.360  20.408  0.00  0.00    +0.167 HD
ENDBRANCH  11  16
ENDBRANCH   7  11
BRANCH   6  12
ATOM     12  C   UNL     1      -9.987   9.899  18.758  0.00  0.00    +0.085 C 
BRANCH  12   1
ATOM      1  N   UNL     1      -9.498   9.538  17.438  0.00  0.00    -0.329 NA
ATOM     23  H   UNL     1      -8.916   8.705  17.491  0.00  0.00    +0.118 HD
ATOM     24  H   UNL     1      -8.896  10.280  17.085  0.00  0.00    +0.118 HD
ENDBRANCH  12   1
ENDBRANCH   6  12
TORSDOF 5
ENDMDL
MODEL 6
REMARK VINA RESULT:      -5.6      3.267      5.854
REMARK  Name = 71692999
REMARK  8 active torsions:
REMARK  status: ('A' for Active; 'I' for Inactive)
REMARK    1  A    between atoms: N_1  and  C_12
REMARK    2  A    between atoms: C_4  and  C_8
REMARK    3  A    between atoms: C_6  and  C_12
REMARK    4  A    between atoms: C_7  and  C_11
REMARK    5  A    between atoms: C_8  and  C_13
REMARK    6  A    between atoms: C_8  and  C_14
REMARK    7  A    between atoms: C_9  and  C_15
REMARK    8  A    between atoms: C_11  and  C_16
REMARK                            x       y       z     vdW  Elec       q    Type
REMARK                         _______ _______ _______ _____ _____    ______ ____
ROOT
ATOM      4  C   UNL     1      -4.519 -10.645  17.416  0.00  0.00    +0.000 C 
ATOM      5  C   UNL     1      -5.598  -9.951  16.574  0.00  0.00    +0.012 C 
ATOM      6  C   UNL     1      -3.644 -11.560  16.528  0.00  0.00    +0.029 C 
ATOM      7  C   UNL     1      -6.503 -10.938  15.806  0.00  0.00    +0.022 C 
ATOM      9  C   UNL     1      -5.740 -12.122  15.231  0.00  0.00    -0.073 C 
ATOM     10  C   UNL     1      -4.460 -12.376  15.558  0.00  0.00    -0.023 C 
ATOM     15  C   UNL     1      -6.489 -13.053  14.316  0.00  0.00    +0.039 C 
ENDROOT
BRANCH   4   8
ATOM      8  C   UNL     1      -5.141 -11.425  18.582  0.00  0.00    -0.013 C 
ATOM     13  C   UNL     1      -6.029 -10.511  19.419  0.00  0.00    +0.007 C 
ATOM     14  C   UNL     1      -4.050 -12.055  19.443  0.00  0.00    +0.007 C 
ENDBRANCH   4   8
BRANCH   7  11
ATOM     11  C   UNL     1      -7.286 -10.159  14.741  0.00  0.00    +0.082 C 
BRANCH  11  16
ATOM      2  N   UNL     1      -9.156  -8.511  14.942  0.00  0.00    -0.342 N 
ATOM      3  N   UNL     1      -9.441 -10.437  16.014  0.00  0.00    -0.232 NA
ATOM     16  C   UNL     1      -8.633  -9.735  15.251  0.00  0.00    +0.109 A 
ATOM     17  C   UNL     1     -10.384  -8.416  15.546  0.00  0.00    +0.066 A 
ATOM     18  C   UNL     1     -10.538  -9.631  16.208  0.00  0.00    +0.089 A 
ATOM     19  C   UNL     1     -11.343  -7.403  15.569  0.00  0.00    +0.028 A 
ATOM     20  C   UNL     1     -11.713  -9.865  16.942  0.00  0.00    +0.030 A 
ATOM     21  C   UNL     1     -12.507  -7.654  16.304  0.00  0.00    +0.002 A 
ATOM     22  C   UNL     1     -12.690  -8.862  16.979  0.00  0.00    +0.002 A 
ATOM     25  H   UNL     1      -8.719  -7.801  14.370  0.00  0.00    +0.167 HD
ENDBRANCH  11  16
ENDBRANCH   7  11
BRANCH   6  12
ATOM     12  C   UNL     1      -2.591 -10.761  15.753  0.00  0.00    +0.085 C 
BRANCH  12   1
ATOM      1  N   UNL     1      -1.275 -10.941  16.343  0.00  0.00    -0.329 NA
ATOM     23  H   UNL     1      -1.358 -11.190  17.326  0.00  0.00    +0.118 HD
ATOM     24  H   UNL     1      -0.770 -10.056  16.319  0.00  0.00    +0.118 HD
ENDBRANCH  12   1
ENDBRANCH   6  12
TORSDOF 5
ENDMDL
MODEL 7
REMARK VINA RESULT:      -5.6     22.536     25.834
REMARK  Name = 71692999
REMARK  8 active torsions:
REMARK  status: ('A' for Active; 'I' for Inactive)
REMARK    1  A    between atoms: N_1  and  C_12
REMARK    2  A    between atoms: C_4  and  C_8
REMARK    3  A    between atoms: C_6  and  C_12
REMARK    4  A    between atoms: C_7  and  C_11
REMARK    5  A    between atoms: C_8  and  C_13
REMARK    6  A    between atoms: C_8  and  C_14
REMARK    7  A    between atoms: C_9  and  C_15
REMARK    8  A    between atoms: C_11  and  C_16
REMARK                            x       y       z     vdW  Elec       q    Type
REMARK                         _______ _______ _______ _____ _____    ______ ____
ROOT
ATOM      4  C   UNL     1     -17.603   5.947  32.830  0.00  0.00    +0.000 C 
ATOM      5  C   UNL     1     -16.640   4.998  33.556  0.00  0.00    +0.012 C 
ATOM      6  C   UNL     1     -16.971   6.460  31.515  0.00  0.00    +0.029 C 
ATOM      7  C   UNL     1     -15.268   5.637  33.862  0.00  0.00    +0.022 C 
ATOM      9  C   UNL     1     -14.755   6.516  32.731  0.00  0.00    -0.073 C 
ATOM     10  C   UNL     1     -15.528   6.863  31.686  0.00  0.00    -0.023 C 
ATOM     15  C   UNL     1     -13.351   7.045  32.846  0.00  0.00    +0.039 C 
ENDROOT
BRANCH   4   8
ATOM      8  C   UNL     1     -18.027   7.109  33.738  0.00  0.00    -0.013 C 
ATOM     13  C   UNL     1     -18.877   6.597  34.895  0.00  0.00    +0.007 C 
ATOM     14  C   UNL     1     -18.785   8.163  32.935  0.00  0.00    +0.007 C 
ENDBRANCH   4   8
BRANCH   7  11
ATOM     11  C   UNL     1     -14.284   4.523  34.245  0.00  0.00    +0.082 C 
BRANCH  11  16
ATOM      2  N   UNL     1     -14.825   2.215  33.450  0.00  0.00    -0.342 N 
ATOM      3  N   UNL     1     -13.721   3.502  32.013  0.00  0.00    -0.232 NA
ATOM     16  C   UNL     1     -14.258   3.435  33.211  0.00  0.00    +0.109 A 
ATOM     17  C   UNL     1     -14.643   1.443  32.331  0.00  0.00    +0.066 A 
ATOM     18  C   UNL     1     -13.951   2.269  31.449  0.00  0.00    +0.089 A 
ATOM     19  C   UNL     1     -15.011   0.132  32.025  0.00  0.00    +0.028 A 
ATOM     20  C   UNL     1     -13.599   1.774  30.182  0.00  0.00    +0.030 A 
ATOM     21  C   UNL     1     -14.652  -0.344  30.759  0.00  0.00    +0.002 A 
ATOM     22  C   UNL     1     -13.959   0.461  29.853  0.00  0.00    +0.002 A 
ATOM     25  H   UNL     1     -15.297   1.930  34.297  0.00  0.00    +0.167 HD
ENDBRANCH  11  16
ENDBRANCH   7  11
BRANCH   6  12
ATOM     12  C   UNL     1     -17.074   5.421  30.393  0.00  0.00    +0.085 C 
BRANCH  12   1
ATOM      1  N   UNL     1     -15.754   4.956  30.003  0.00  0.00    -0.329 NA
ATOM     23  H   UNL     1     -15.761   3.948  29.860  0.00  0.00    +0.118 HD
ATOM     24  H   UNL     1     -15.096   5.127  30.762  0.00  0.00    +0.118 HD
ENDBRANCH  12   1
ENDBRANCH   6  12
TORSDOF 5
ENDMDL
MODEL 8
REMARK VINA RESULT:      -5.5     19.260     21.308
REMARK  Name = 71692999
REMARK  8 active torsions:
REMARK  status: ('A' for Active; 'I' for Inactive)
REMARK    1  A    between atoms: N_1  and  C_12
REMARK    2  A    between atoms: C_4  and  C_8
REMARK    3  A    between atoms: C_6  and  C_12
REMARK    4  A    between atoms: C_7  and  C_11
REMARK    5  A    between atoms: C_8  and  C_13
REMARK    6  A    between atoms: C_8  and  C_14
REMARK    7  A    between atoms: C_9  and  C_15
REMARK    8  A    between atoms: C_11  and  C_16
REMARK                            x       y       z     vdW  Elec       q    Type
REMARK                         _______ _______ _______ _____ _____    ______ ____
ROOT
ATOM      4  C   UNL     1     -13.153   7.339  19.757  0.00  0.00    +0.000 C 
ATOM      5  C   UNL     1     -11.784   7.703  19.167  0.00  0.00    +0.012 C 
ATOM      6  C   UNL     1     -14.202   8.417  19.397  0.00  0.00    +0.029 C 
ATOM      7  C   UNL     1     -11.272   9.087  19.620  0.00  0.00    +0.022 C 
ATOM      9  C   UNL     1     -12.371  10.137  19.683  0.00  0.00    -0.073 C 
ATOM     10  C   UNL     1     -13.673   9.819  19.570  0.00  0.00    -0.023 C 
ATOM     15  C   UNL     1     -11.957  11.561  19.940  0.00  0.00    +0.039 C 
ENDROOT
BRANCH   4   8
ATOM      8  C   UNL     1     -13.066   7.127  21.274  0.00  0.00    -0.013 C 
ATOM     13  C   UNL     1     -12.332   5.828  21.589  0.00  0.00    +0.007 C 
ATOM     14  C   UNL     1     -14.461   7.124  21.892  0.00  0.00    +0.007 C 
ENDBRANCH   4   8
BRANCH   7  11
ATOM     11  C   UNL     1     -10.105   9.499  18.712  0.00  0.00    +0.082 C 
BRANCH  11  16
ATOM      2  N   UNL     1     -10.082   8.251  16.544  0.00  0.00    -0.342 N 
ATOM      3  N   UNL     1     -11.144  10.204  16.528  0.00  0.00    -0.232 NA
ATOM     16  C   UNL     1     -10.462   9.351  17.260  0.00  0.00    +0.109 A 
ATOM     17  C   UNL     1     -10.550   8.404  15.264  0.00  0.00    +0.066 A 
ATOM     18  C   UNL     1     -11.209   9.630  15.280  0.00  0.00    +0.089 A 
ATOM     19  C   UNL     1     -10.456   7.598  14.128  0.00  0.00    +0.028 A 
ATOM     20  C   UNL     1     -11.816  10.096  14.102  0.00  0.00    +0.030 A 
ATOM     21  C   UNL     1     -11.065   8.078  12.964  0.00  0.00    +0.002 A 
ATOM     22  C   UNL     1     -11.734   9.304  12.949  0.00  0.00    +0.002 A 
ATOM     25  H   UNL     1      -9.553   7.464  16.893  0.00  0.00    +0.167 HD
ENDBRANCH  11  16
ENDBRANCH   7  11
BRANCH   6  12
ATOM     12  C   UNL     1     -14.721   8.248  17.966  0.00  0.00    +0.085 C 
BRANCH  12   1
ATOM      1  N   UNL     1     -14.271   9.344  17.125  0.00  0.00    -0.329 NA
ATOM     23  H   UNL     1     -13.382   9.709  17.462  0.00  0.00    +0.118 HD
ATOM     24  H   UNL     1     -14.934  10.115  17.189  0.00  0.00    +0.118 HD
ENDBRANCH  12   1
ENDBRANCH   6  12
TORSDOF 5
ENDMDL
MODEL 9
REMARK VINA RESULT:      -5.5     20.069     22.016
REMARK  Name = 71692999
REMARK  8 active torsions:
REMARK  status: ('A' for Active; 'I' for Inactive)
REMARK    1  A    between atoms: N_1  and  C_12
REMARK    2  A    between atoms: C_4  and  C_8
REMARK    3  A    between atoms: C_6  and  C_12
REMARK    4  A    between atoms: C_7  and  C_11
REMARK    5  A    between atoms: C_8  and  C_13
REMARK    6  A    between atoms: C_8  and  C_14
REMARK    7  A    between atoms: C_9  and  C_15
REMARK    8  A    between atoms: C_11  and  C_16
REMARK                            x       y       z     vdW  Elec       q    Type
REMARK                         _______ _______ _______ _____ _____    ______ ____
ROOT
ATOM      4  C   UNL     1     -15.948   6.880  21.193  0.00  0.00    +0.000 C 
ATOM      5  C   UNL     1     -15.126   8.152  21.440  0.00  0.00    +0.012 C 
ATOM      6  C   UNL     1     -15.293   5.667  21.893  0.00  0.00    +0.029 C 
ATOM      7  C   UNL     1     -13.656   8.030  20.983  0.00  0.00    +0.022 C 
ATOM      9  C   UNL     1     -13.051   6.667  21.286  0.00  0.00    -0.073 C 
ATOM     10  C   UNL     1     -13.797   5.628  21.702  0.00  0.00    -0.023 C 
ATOM     15  C   UNL     1     -11.576   6.494  21.047  0.00  0.00    +0.039 C 
ENDROOT
BRANCH   4   8
ATOM      8  C   UNL     1     -16.138   6.625  19.691  0.00  0.00    -0.013 C 
ATOM     13  C   UNL     1     -16.869   7.794  19.041  0.00  0.00    +0.007 C 
ATOM     14  C   UNL     1     -16.896   5.320  19.465  0.00  0.00    +0.007 C 
ENDBRANCH   4   8
BRANCH   7  11
ATOM     11  C   UNL     1     -12.855   9.187  21.593  0.00  0.00    +0.082 C 
BRANCH  11  16
ATOM      2  N   UNL     1     -11.328   9.482  19.635  0.00  0.00    -0.342 N 
ATOM      3  N   UNL     1     -12.384  11.312  20.326  0.00  0.00    -0.232 NA
ATOM     16  C   UNL     1     -12.207  10.026  20.530  0.00  0.00    +0.109 A 
ATOM     17  C   UNL     1     -10.909  10.486  18.799  0.00  0.00    +0.066 A 
ATOM     18  C   UNL     1     -11.583  11.617  19.251  0.00  0.00    +0.089 A 
ATOM     19  C   UNL     1     -10.026  10.499  17.718  0.00  0.00    +0.028 A 
ATOM     20  C   UNL     1     -11.375  12.843  18.598  0.00  0.00    +0.030 A 
ATOM     21  C   UNL     1      -9.831  11.729  17.080  0.00  0.00    +0.002 A 
ATOM     22  C   UNL     1     -10.492  12.881  17.511  0.00  0.00    +0.002 A 
ATOM     25  H   UNL     1     -11.037   8.515  19.595  0.00  0.00    +0.167 HD
ENDBRANCH  11  16
ENDBRANCH   7  11
BRANCH   6  12
ATOM     12  C   UNL     1     -15.610   5.637  23.391  0.00  0.00    +0.085 C 
BRANCH  12   1
ATOM      1  N   UNL     1     -14.653   4.807  24.101  0.00  0.00    -0.329 NA
ATOM     23  H   UNL     1     -13.978   5.387  24.596  0.00  0.00    +0.118 HD
ATOM     24  H   UNL     1     -14.115   4.260  23.431  0.00  0.00    +0.118 HD
ENDBRANCH  12   1
ENDBRANCH   6  12
TORSDOF 5
ENDMDL
MODEL 10
REMARK VINA RESULT:      -5.5      3.359      6.526
REMARK  Name = 71692999
REMARK  8 active torsions:
REMARK  status: ('A' for Active; 'I' for Inactive)
REMARK    1  A    between atoms: N_1  and  C_12
REMARK    2  A    between atoms: C_4  and  C_8
REMARK    3  A    between atoms: C_6  and  C_12
REMARK    4  A    between atoms: C_7  and  C_11
REMARK    5  A    between atoms: C_8  and  C_13
REMARK    6  A    between atoms: C_8  and  C_14
REMARK    7  A    between atoms: C_9  and  C_15
REMARK    8  A    between atoms: C_11  and  C_16
REMARK                            x       y       z     vdW  Elec       q    Type
REMARK                         _______ _______ _______ _____ _____    ______ ____
ROOT
ATOM      4  C   UNL     1      -5.922 -11.724  15.890  0.00  0.00    +0.000 C 
ATOM      5  C   UNL     1      -7.298 -11.444  16.510  0.00  0.00    +0.012 C 
ATOM      6  C   UNL     1      -4.999 -12.425  16.913  0.00  0.00    +0.029 C 
ATOM      7  C   UNL     1      -7.226 -10.598  17.799  0.00  0.00    +0.022 C 
ATOM      9  C   UNL     1      -6.055 -10.975  18.695  0.00  0.00    -0.073 C 
ATOM     10  C   UNL     1      -5.077 -11.802  18.284  0.00  0.00    -0.023 C 
ATOM     15  C   UNL     1      -5.990 -10.340  20.057  0.00  0.00    +0.039 C 
ENDROOT
BRANCH   4   8
ATOM      8  C   UNL     1      -5.284 -10.437  15.350  0.00  0.00    -0.013 C 
ATOM     13  C   UNL     1      -6.047  -9.937  14.128  0.00  0.00    +0.007 C 
ATOM     14  C   UNL     1      -3.815 -10.672  15.011  0.00  0.00    +0.007 C 
ENDBRANCH   4   8
BRANCH   7  11
ATOM     11  C   UNL     1      -8.579 -10.685  18.518  0.00  0.00    +0.082 C 
BRANCH  11  16
ATOM      2  N   UNL     1      -9.272  -8.497  17.525  0.00  0.00    -0.342 N 
ATOM      3  N   UNL     1     -10.848 -10.061  17.621  0.00  0.00    -0.232 NA
ATOM     16  C   UNL     1      -9.594  -9.774  17.889  0.00  0.00    +0.109 A 
ATOM     17  C   UNL     1     -10.393  -7.921  16.985  0.00  0.00    +0.066 A 
ATOM     18  C   UNL     1     -11.362  -8.917  17.057  0.00  0.00    +0.089 A 
ATOM     19  C   UNL     1     -10.635  -6.652  16.457  0.00  0.00    +0.028 A 
ATOM     20  C   UNL     1     -12.656  -8.649  16.577  0.00  0.00    +0.030 A 
ATOM     21  C   UNL     1     -11.928  -6.402  15.985  0.00  0.00    +0.002 A 
ATOM     22  C   UNL     1     -12.921  -7.382  16.043  0.00  0.00    +0.002 A 
ATOM     25  H   UNL     1      -8.369  -8.054  17.632  0.00  0.00    +0.167 HD
ENDBRANCH  11  16
ENDBRANCH   7  11
BRANCH   6  12
ATOM     12  C   UNL     1      -5.306 -13.922  17.022  0.00  0.00    +0.085 C 
BRANCH  12   1
ATOM      1  N   UNL     1      -4.298 -14.595  17.823  0.00  0.00    -0.329 NA
ATOM     23  H   UNL     1      -4.673 -14.830  18.740  0.00  0.00    +0.118 HD
ATOM     24  H   UNL     1      -3.520 -13.960  17.992  0.00  0.00    +0.118 HD
ENDBRANCH  12   1
ENDBRANCH   6  12
TORSDOF 5
ENDMDL
