MODEL 1
REMARK VINA RESULT:      -7.0      0.000      0.000
REMARK  Name = 75536735
REMARK  9 active torsions:
REMARK  status: ('A' for Active; 'I' for Inactive)
REMARK    1  A    between atoms: O_2  and  C_9
REMARK    2  A    between atoms: N_4  and  C_8
REMARK    3  A    between atoms: N_4  and  C_13
REMARK    4  A    between atoms: N_5  and  C_12
REMARK    5  A    between atoms: N_6  and  C_16
REMARK    6  A    between atoms: C_10  and  C_12
REMARK    7  A    between atoms: C_13  and  C_14
REMARK    8  A    between atoms: C_16  and  C_19
REMARK    9  A    between atoms: C_16  and  C_20
REMARK                            x       y       z     vdW  Elec       q    Type
REMARK                         _______ _______ _______ _____ _____    ______ ____
ROOT
ATOM      1  O   UNL     1      11.041   8.171  20.302  0.00  0.00    -0.371 OA
ATOM      8  C   UNL     1      12.685   6.521  20.733  0.00  0.00    +0.111 C 
ATOM      9  C   UNL     1      11.475   6.212  21.597  0.00  0.00    +0.164 C 
ATOM     10  C   UNL     1      10.557   7.423  21.434  0.00  0.00    +0.165 C 
ATOM     11  C   UNL     1      12.083   7.421  19.665  0.00  0.00    +0.181 C 
ENDROOT
BRANCH   9   2
ATOM      2  O   UNL     1      10.830   5.061  21.047  0.00  0.00    -0.388 OA
ATOM     24  H   UNL     1      11.511   4.378  20.921  0.00  0.00    +0.210 HD
ENDBRANCH   9   2
BRANCH   8   4
ATOM      4  N   UNL     1      13.717   7.230  21.486  0.00  0.00    -0.305 NA
ATOM     23  H   UNL     1      13.274   7.888  22.129  0.00  0.00    +0.123 HD
BRANCH   4  13
ATOM     13  C   UNL     1      14.598   7.976  20.594  0.00  0.00    +0.118 C 
BRANCH  13  14
ATOM      7  N   UNL     1      16.987   5.710  18.726  0.00  0.00    -0.263 NA
ATOM     14  C   UNL     1      15.838   7.194  20.249  0.00  0.00    -0.015 A 
ATOM     17  C   UNL     1      16.950   7.212  21.083  0.00  0.00    +0.008 A 
ATOM     18  C   UNL     1      15.906   6.435  19.093  0.00  0.00    +0.115 A 
ATOM     21  C   UNL     1      18.081   6.480  20.740  0.00  0.00    +0.020 A 
ATOM     22  C   UNL     1      18.050   5.752  19.561  0.00  0.00    +0.111 A 
ENDBRANCH  13  14
ENDBRANCH   4  13
ENDBRANCH   8   4
BRANCH  10  12
ATOM     12  C   UNL     1      10.546   8.344  22.645  0.00  0.00    +0.140 C 
BRANCH  12   5
ATOM      3  O   UNL     1      11.081  10.633  24.317  0.00  0.00    -0.253 OA
ATOM      5  N   UNL     1      10.526   9.724  22.253  0.00  0.00    -0.297 N 
ATOM      6  N   UNL     1      10.707  12.011  22.488  0.00  0.00    -0.297 N 
ATOM     15  C   UNL     1      10.798  10.779  23.128  0.00  0.00    +0.300 C 
ATOM     25  H   UNL     1      10.291   9.945  21.290  0.00  0.00    +0.150 HD
ATOM     26  H   UNL     1      10.396  12.033  21.521  0.00  0.00    +0.150 HD
BRANCH   6  16
ATOM     16  C   UNL     1      10.941  13.265  23.166  0.00  0.00    +0.068 C 
ATOM     19  C   UNL     1      12.339  13.787  22.858  0.00  0.00    +0.027 C 
ATOM     20  C   UNL     1       9.874  14.283  22.783  0.00  0.00    +0.027 C 
ENDBRANCH   6  16
ENDBRANCH  12   5
ENDBRANCH  10  12
TORSDOF 7
ENDMDL
MODEL 2
REMARK VINA RESULT:      -6.9      1.813      2.162
REMARK  Name = 75536735
REMARK  9 active torsions:
REMARK  status: ('A' for Active; 'I' for Inactive)
REMARK    1  A    between atoms: O_2  and  C_9
REMARK    2  A    between atoms: N_4  and  C_8
REMARK    3  A    between atoms: N_4  and  C_13
REMARK    4  A    between atoms: N_5  and  C_12
REMARK    5  A    between atoms: N_6  and  C_16
REMARK    6  A    between atoms: C_10  and  C_12
REMARK    7  A    between atoms: C_13  and  C_14
REMARK    8  A    between atoms: C_16  and  C_19
REMARK    9  A    between atoms: C_16  and  C_20
REMARK                            x       y       z     vdW  Elec       q    Type
REMARK                         _______ _______ _______ _____ _____    ______ ____
ROOT
ATOM      1  O   UNL     1      11.170   8.120  20.056  0.00  0.00    -0.371 OA
ATOM      8  C   UNL     1      12.774   6.497  20.691  0.00  0.00    +0.111 C 
ATOM      9  C   UNL     1      11.542   6.300  21.556  0.00  0.00    +0.164 C 
ATOM     10  C   UNL     1      10.651   7.503  21.249  0.00  0.00    +0.165 C 
ATOM     11  C   UNL     1      12.210   7.291  19.523  0.00  0.00    +0.181 C 
ENDROOT
BRANCH   9   2
ATOM      2  O   UNL     1      10.886   5.109  21.115  0.00  0.00    -0.388 OA
ATOM     24  H   UNL     1      11.132   4.969  20.184  0.00  0.00    +0.210 HD
ENDBRANCH   9   2
BRANCH   8   4
ATOM      4  N   UNL     1      13.804   7.264  21.388  0.00  0.00    -0.305 NA
ATOM     23  H   UNL     1      13.360   7.956  21.992  0.00  0.00    +0.123 HD
BRANCH   4  13
ATOM     13  C   UNL     1      14.670   7.960  20.442  0.00  0.00    +0.118 C 
BRANCH  13  14
ATOM      7  N   UNL     1      17.346   5.732  18.957  0.00  0.00    -0.263 NA
ATOM     14  C   UNL     1      15.984   7.248  20.257  0.00  0.00    -0.015 A 
ATOM     17  C   UNL     1      17.026   7.421  21.161  0.00  0.00    +0.008 A 
ATOM     18  C   UNL     1      16.192   6.401  19.181  0.00  0.00    +0.115 A 
ATOM     21  C   UNL     1      18.227   6.751  20.965  0.00  0.00    +0.020 A 
ATOM     22  C   UNL     1      18.336   5.925  19.857  0.00  0.00    +0.111 A 
ENDBRANCH  13  14
ENDBRANCH   4  13
ENDBRANCH   8   4
BRANCH  10  12
ATOM     12  C   UNL     1      10.633   8.545  22.357  0.00  0.00    +0.140 C 
BRANCH  12   5
ATOM      3  O   UNL     1      11.940  11.085  21.958  0.00  0.00    -0.253 OA
ATOM      5  N   UNL     1      11.963   8.905  22.757  0.00  0.00    -0.297 N 
ATOM      6  N   UNL     1      13.825  10.241  23.015  0.00  0.00    -0.297 N 
ATOM     15  C   UNL     1      12.525  10.163  22.525  0.00  0.00    +0.300 C 
ATOM     25  H   UNL     1      12.530   8.204  23.225  0.00  0.00    +0.150 HD
ATOM     26  H   UNL     1      14.247   9.404  23.404  0.00  0.00    +0.150 HD
BRANCH   6  16
ATOM     16  C   UNL     1      14.633  11.434  22.904  0.00  0.00    +0.068 C 
ATOM     19  C   UNL     1      14.693  12.165  24.239  0.00  0.00    +0.027 C 
ATOM     20  C   UNL     1      16.028  11.085  22.402  0.00  0.00    +0.027 C 
ENDBRANCH   6  16
ENDBRANCH  12   5
ENDBRANCH  10  12
TORSDOF 7
ENDMDL
MODEL 3
REMARK VINA RESULT:      -6.4      2.441      3.030
REMARK  Name = 75536735
REMARK  9 active torsions:
REMARK  status: ('A' for Active; 'I' for Inactive)
REMARK    1  A    between atoms: O_2  and  C_9
REMARK    2  A    between atoms: N_4  and  C_8
REMARK    3  A    between atoms: N_4  and  C_13
REMARK    4  A    between atoms: N_5  and  C_12
REMARK    5  A    between atoms: N_6  and  C_16
REMARK    6  A    between atoms: C_10  and  C_12
REMARK    7  A    between atoms: C_13  and  C_14
REMARK    8  A    between atoms: C_16  and  C_19
REMARK    9  A    between atoms: C_16  and  C_20
REMARK                            x       y       z     vdW  Elec       q    Type
REMARK                         _______ _______ _______ _____ _____    ______ ____
ROOT
ATOM      1  O   UNL     1      10.519   8.664  20.302  0.00  0.00    -0.371 OA
ATOM      8  C   UNL     1      12.415   7.339  19.793  0.00  0.00    +0.111 C 
ATOM      9  C   UNL     1      11.791   6.793  21.065  0.00  0.00    +0.164 C 
ATOM     10  C   UNL     1      10.723   7.816  21.448  0.00  0.00    +0.165 C 
ATOM     11  C   UNL     1      11.263   8.134  19.198  0.00  0.00    +0.181 C 
ENDROOT
BRANCH   9   2
ATOM      2  O   UNL     1      11.156   5.554  20.741  0.00  0.00    -0.388 OA
ATOM     24  H   UNL     1      10.862   5.611  19.816  0.00  0.00    +0.210 HD
ENDBRANCH   9   2
BRANCH   8   4
ATOM      4  N   UNL     1      13.551   8.211  20.081  0.00  0.00    -0.305 NA
ATOM     23  H   UNL     1      13.249   9.185  20.039  0.00  0.00    +0.123 HD
BRANCH   4  13
ATOM     13  C   UNL     1      14.622   8.016  19.111  0.00  0.00    +0.118 C 
BRANCH  13  14
ATOM      7  N   UNL     1      13.851   8.773  15.483  0.00  0.00    -0.263 NA
ATOM     14  C   UNL     1      14.377   8.789  17.842  0.00  0.00    -0.015 A 
ATOM     17  C   UNL     1      14.444  10.178  17.826  0.00  0.00    +0.008 A 
ATOM     18  C   UNL     1      14.080   8.140  16.655  0.00  0.00    +0.115 A 
ATOM     21  C   UNL     1      14.215  10.865  16.640  0.00  0.00    +0.020 A 
ATOM     22  C   UNL     1      13.924  10.124  15.505  0.00  0.00    +0.111 A 
ENDBRANCH  13  14
ENDBRANCH   4  13
ENDBRANCH   8   4
BRANCH  10  12
ATOM     12  C   UNL     1      11.118   8.693  22.627  0.00  0.00    +0.140 C 
BRANCH  12   5
ATOM      3  O   UNL     1      12.299  11.150  23.570  0.00  0.00    -0.253 OA
ATOM      5  N   UNL     1      10.579  10.016  22.498  0.00  0.00    -0.297 N 
ATOM      6  N   UNL     1      10.475  12.309  22.726  0.00  0.00    -0.297 N 
ATOM     15  C   UNL     1      11.217  11.160  22.985  0.00  0.00    +0.300 C 
ATOM     25  H   UNL     1       9.681  10.125  22.037  0.00  0.00    +0.150 HD
ATOM     26  H   UNL     1       9.559  12.208  22.301  0.00  0.00    +0.150 HD
BRANCH   6  16
ATOM     16  C   UNL     1      10.910  13.628  23.125  0.00  0.00    +0.068 C 
ATOM     19  C   UNL     1      10.719  14.621  21.986  0.00  0.00    +0.027 C 
ATOM     20  C   UNL     1      10.168  14.075  24.378  0.00  0.00    +0.027 C 
ENDBRANCH   6  16
ENDBRANCH  12   5
ENDBRANCH  10  12
TORSDOF 7
ENDMDL
MODEL 4
REMARK VINA RESULT:      -6.1      3.285      3.976
REMARK  Name = 75536735
REMARK  9 active torsions:
REMARK  status: ('A' for Active; 'I' for Inactive)
REMARK    1  A    between atoms: O_2  and  C_9
REMARK    2  A    between atoms: N_4  and  C_8
REMARK    3  A    between atoms: N_4  and  C_13
REMARK    4  A    between atoms: N_5  and  C_12
REMARK    5  A    between atoms: N_6  and  C_16
REMARK    6  A    between atoms: C_10  and  C_12
REMARK    7  A    between atoms: C_13  and  C_14
REMARK    8  A    between atoms: C_16  and  C_19
REMARK    9  A    between atoms: C_16  and  C_20
REMARK                            x       y       z     vdW  Elec       q    Type
REMARK                         _______ _______ _______ _____ _____    ______ ____
ROOT
ATOM      1  O   UNL     1      11.538   6.713  20.281  0.00  0.00    -0.371 OA
ATOM      8  C   UNL     1      13.452   8.084  20.024  0.00  0.00    +0.111 C 
ATOM      9  C   UNL     1      13.198   7.911  21.511  0.00  0.00    +0.164 C 
ATOM     10  C   UNL     1      11.842   7.212  21.597  0.00  0.00    +0.165 C 
ATOM     11  C   UNL     1      12.679   6.913  19.437  0.00  0.00    +0.181 C 
ENDROOT
BRANCH   9   2
ATOM      2  O   UNL     1      14.207   7.039  22.026  0.00  0.00    -0.388 OA
ATOM     24  H   UNL     1      15.037   7.251  21.567  0.00  0.00    +0.210 HD
ENDBRANCH   9   2
BRANCH   8   4
ATOM      4  N   UNL     1      12.922   9.353  19.530  0.00  0.00    -0.305 NA
ATOM     23  H   UNL     1      12.066   9.582  20.038  0.00  0.00    +0.123 HD
BRANCH   4  13
ATOM     13  C   UNL     1      12.610   9.273  18.107  0.00  0.00    +0.118 C 
BRANCH  13  14
ATOM      7  N   UNL     1      15.025  11.991  17.053  0.00  0.00    -0.263 NA
ATOM     14  C   UNL     1      13.587  10.061  17.275  0.00  0.00    -0.015 A 
ATOM     17  C   UNL     1      13.957   9.630  16.006  0.00  0.00    +0.008 A 
ATOM     18  C   UNL     1      14.145  11.237  17.749  0.00  0.00    +0.115 A 
ATOM     21  C   UNL     1      14.860  10.378  15.259  0.00  0.00    +0.020 A 
ATOM     22  C   UNL     1      15.361  11.541  15.823  0.00  0.00    +0.111 A 
ENDBRANCH  13  14
ENDBRANCH   4  13
ENDBRANCH   8   4
BRANCH  10  12
ATOM     12  C   UNL     1      10.711   8.133  22.032  0.00  0.00    +0.140 C 
BRANCH  12   5
ATOM      3  O   UNL     1      11.090  10.990  22.160  0.00  0.00    -0.253 OA
ATOM      5  N   UNL     1      11.078   8.905  23.184  0.00  0.00    -0.297 N 
ATOM      6  N   UNL     1      11.600  10.785  24.414  0.00  0.00    -0.297 N 
ATOM     15  C   UNL     1      11.242  10.293  23.162  0.00  0.00    +0.300 C 
ATOM     25  H   UNL     1      11.237   8.415  24.059  0.00  0.00    +0.150 HD
ATOM     26  H   UNL     1      11.773  10.122  25.164  0.00  0.00    +0.150 HD
BRANCH   6  16
ATOM     16  C   UNL     1      11.832  12.189  24.666  0.00  0.00    +0.068 C 
ATOM     19  C   UNL     1      10.681  12.785  25.467  0.00  0.00    +0.027 C 
ATOM     20  C   UNL     1      13.163  12.387  25.380  0.00  0.00    +0.027 C 
ENDBRANCH   6  16
ENDBRANCH  12   5
ENDBRANCH  10  12
TORSDOF 7
ENDMDL
MODEL 5
REMARK VINA RESULT:      -5.9      1.853      2.405
REMARK  Name = 75536735
REMARK  9 active torsions:
REMARK  status: ('A' for Active; 'I' for Inactive)
REMARK    1  A    between atoms: O_2  and  C_9
REMARK    2  A    between atoms: N_4  and  C_8
REMARK    3  A    between atoms: N_4  and  C_13
REMARK    4  A    between atoms: N_5  and  C_12
REMARK    5  A    between atoms: N_6  and  C_16
REMARK    6  A    between atoms: C_10  and  C_12
REMARK    7  A    between atoms: C_13  and  C_14
REMARK    8  A    between atoms: C_16  and  C_19
REMARK    9  A    between atoms: C_16  and  C_20
REMARK                            x       y       z     vdW  Elec       q    Type
REMARK                         _______ _______ _______ _____ _____    ______ ____
ROOT
ATOM      1  O   UNL     1      13.927   9.478  19.574  0.00  0.00    -0.371 OA
ATOM      8  C   UNL     1      13.516   7.158  19.332  0.00  0.00    +0.111 C 
ATOM      9  C   UNL     1      12.427   7.735  20.219  0.00  0.00    +0.164 C 
ATOM     10  C   UNL     1      12.876   9.167  20.508  0.00  0.00    +0.165 C 
ATOM     11  C   UNL     1      14.040   8.403  18.633  0.00  0.00    +0.181 C 
ENDROOT
BRANCH   9   2
ATOM      2  O   UNL     1      11.217   7.770  19.458  0.00  0.00    -0.388 OA
ATOM     24  H   UNL     1      10.485   7.910  20.083  0.00  0.00    +0.210 HD
ENDBRANCH   9   2
BRANCH   8   4
ATOM      4  N   UNL     1      14.571   6.523  20.117  0.00  0.00    -0.305 NA
ATOM     23  H   UNL     1      14.743   7.072  20.960  0.00  0.00    +0.123 HD
BRANCH   4  13
ATOM     13  C   UNL     1      15.813   6.439  19.357  0.00  0.00    +0.118 C 
BRANCH  13  14
ATOM      7  N   UNL     1      17.963   8.440  21.744  0.00  0.00    -0.263 NA
ATOM     14  C   UNL     1      17.000   6.876  20.173  0.00  0.00    -0.015 A 
ATOM     17  C   UNL     1      18.197   6.170  20.131  0.00  0.00    +0.008 A 
ATOM     18  C   UNL     1      16.935   7.994  20.988  0.00  0.00    +0.115 A 
ATOM     21  C   UNL     1      19.277   6.597  20.894  0.00  0.00    +0.020 A 
ATOM     22  C   UNL     1      19.111   7.728  21.678  0.00  0.00    +0.111 A 
ENDBRANCH  13  14
ENDBRANCH   4  13
ENDBRANCH   8   4
BRANCH  10  12
ATOM     12  C   UNL     1      13.416   9.362  21.917  0.00  0.00    +0.140 C 
BRANCH  12   5
ATOM      3  O   UNL     1      10.897  10.043  23.146  0.00  0.00    -0.253 OA
ATOM      5  N   UNL     1      13.033  10.636  22.453  0.00  0.00    -0.297 N 
ATOM      6  N   UNL     1      11.680  12.203  23.470  0.00  0.00    -0.297 N 
ATOM     15  C   UNL     1      11.787  10.885  23.035  0.00  0.00    +0.300 C 
ATOM     25  H   UNL     1      13.700  11.400  22.397  0.00  0.00    +0.150 HD
ATOM     26  H   UNL     1      12.442  12.843  23.269  0.00  0.00    +0.150 HD
BRANCH   6  16
ATOM     16  C   UNL     1      10.493  12.723  24.108  0.00  0.00    +0.068 C 
ATOM     19  C   UNL     1      10.739  12.947  25.595  0.00  0.00    +0.027 C 
ATOM     20  C   UNL     1      10.041  14.006  23.423  0.00  0.00    +0.027 C 
ENDBRANCH   6  16
ENDBRANCH  12   5
ENDBRANCH  10  12
TORSDOF 7
ENDMDL
MODEL 6
REMARK VINA RESULT:      -5.8      3.229      5.874
REMARK  Name = 75536735
REMARK  9 active torsions:
REMARK  status: ('A' for Active; 'I' for Inactive)
REMARK    1  A    between atoms: O_2  and  C_9
REMARK    2  A    between atoms: N_4  and  C_8
REMARK    3  A    between atoms: N_4  and  C_13
REMARK    4  A    between atoms: N_5  and  C_12
REMARK    5  A    between atoms: N_6  and  C_16
REMARK    6  A    between atoms: C_10  and  C_12
REMARK    7  A    between atoms: C_13  and  C_14
REMARK    8  A    between atoms: C_16  and  C_19
REMARK    9  A    between atoms: C_16  and  C_20
REMARK                            x       y       z     vdW  Elec       q    Type
REMARK                         _______ _______ _______ _____ _____    ______ ____
ROOT
ATOM      1  O   UNL     1      11.637   8.989  20.458  0.00  0.00    -0.371 OA
ATOM      8  C   UNL     1      12.454   7.413  18.890  0.00  0.00    +0.111 C 
ATOM      9  C   UNL     1      12.614   6.817  20.277  0.00  0.00    +0.164 C 
ATOM     10  C   UNL     1      12.279   7.959  21.235  0.00  0.00    +0.165 C 
ATOM     11  C   UNL     1      11.411   8.492  19.133  0.00  0.00    +0.181 C 
ENDROOT
BRANCH   9   2
ATOM      2  O   UNL     1      11.637   5.784  20.423  0.00  0.00    -0.388 OA
ATOM     24  H   UNL     1      10.999   6.079  21.095  0.00  0.00    +0.210 HD
ENDBRANCH   9   2
BRANCH   8   4
ATOM      4  N   UNL     1      13.702   8.000  18.408  0.00  0.00    -0.305 NA
ATOM     23  H   UNL     1      14.033   8.692  19.081  0.00  0.00    +0.123 HD
BRANCH   4  13
ATOM     13  C   UNL     1      13.510   8.659  17.121  0.00  0.00    +0.118 C 
BRANCH  13  14
ATOM      7  N   UNL     1      15.492  11.516  15.625  0.00  0.00    -0.263 NA
ATOM     14  C   UNL     1      14.314   9.928  17.015  0.00  0.00    -0.015 A 
ATOM     17  C   UNL     1      14.626  10.674  18.146  0.00  0.00    +0.008 A 
ATOM     18  C   UNL     1      14.766  10.388  15.789  0.00  0.00    +0.115 A 
ATOM     21  C   UNL     1      15.371  11.841  18.018  0.00  0.00    +0.020 A 
ATOM     22  C   UNL     1      15.776  12.216  16.747  0.00  0.00    +0.111 A 
ENDBRANCH  13  14
ENDBRANCH   4  13
ENDBRANCH   8   4
BRANCH  10  12
ATOM     12  C   UNL     1      13.500   8.563  21.911  0.00  0.00    +0.140 C 
BRANCH  12   5
ATOM      3  O   UNL     1      15.999   8.459  20.473  0.00  0.00    -0.253 OA
ATOM      5  N   UNL     1      14.546   7.593  22.066  0.00  0.00    -0.297 N 
ATOM      6  N   UNL     1      16.570   6.558  21.676  0.00  0.00    -0.297 N 
ATOM     15  C   UNL     1      15.732   7.613  21.327  0.00  0.00    +0.300 C 
ATOM     25  H   UNL     1      14.412   6.847  22.741  0.00  0.00    +0.150 HD
ATOM     26  H   UNL     1      16.230   5.870  22.341  0.00  0.00    +0.150 HD
BRANCH   6  16
ATOM     16  C   UNL     1      17.860   6.346  21.061  0.00  0.00    +0.068 C 
ATOM     19  C   UNL     1      17.711   6.162  19.556  0.00  0.00    +0.027 C 
ATOM     20  C   UNL     1      18.798   7.502  21.386  0.00  0.00    +0.027 C 
ENDBRANCH   6  16
ENDBRANCH  12   5
ENDBRANCH  10  12
TORSDOF 7
ENDMDL
MODEL 7
REMARK VINA RESULT:      -5.8     14.639     17.846
REMARK  Name = 75536735
REMARK  9 active torsions:
REMARK  status: ('A' for Active; 'I' for Inactive)
REMARK    1  A    between atoms: O_2  and  C_9
REMARK    2  A    between atoms: N_4  and  C_8
REMARK    3  A    between atoms: N_4  and  C_13
REMARK    4  A    between atoms: N_5  and  C_12
REMARK    5  A    between atoms: N_6  and  C_16
REMARK    6  A    between atoms: C_10  and  C_12
REMARK    7  A    between atoms: C_13  and  C_14
REMARK    8  A    between atoms: C_16  and  C_19
REMARK    9  A    between atoms: C_16  and  C_20
REMARK                            x       y       z     vdW  Elec       q    Type
REMARK                         _______ _______ _______ _____ _____    ______ ____
ROOT
ATOM      1  O   UNL     1      -2.302   2.814  23.651  0.00  0.00    -0.371 OA
ATOM      8  C   UNL     1      -4.096   3.175  25.154  0.00  0.00    +0.111 C 
ATOM      9  C   UNL     1      -2.843   3.770  25.772  0.00  0.00    +0.164 C 
ATOM     10  C   UNL     1      -1.703   3.311  24.864  0.00  0.00    +0.165 C 
ATOM     11  C   UNL     1      -3.708   3.087  23.687  0.00  0.00    +0.181 C 
ENDROOT
BRANCH   9   2
ATOM      2  O   UNL     1      -2.954   5.194  25.697  0.00  0.00    -0.388 OA
ATOM     24  H   UNL     1      -3.676   5.397  25.077  0.00  0.00    +0.210 HD
ENDBRANCH   9   2
BRANCH   8   4
ATOM      4  N   UNL     1      -4.385   1.849  25.694  0.00  0.00    -0.305 NA
ATOM     23  H   UNL     1      -3.542   1.468  26.126  0.00  0.00    +0.123 HD
BRANCH   4  13
ATOM     13  C   UNL     1      -4.820   0.938  24.641  0.00  0.00    +0.118 C 
BRANCH  13  14
ATOM      7  N   UNL     1      -2.177  -1.629  25.511  0.00  0.00    -0.263 NA
ATOM     14  C   UNL     1      -4.054  -0.358  24.670  0.00  0.00    -0.015 A 
ATOM     17  C   UNL     1      -4.471  -1.453  23.922  0.00  0.00    +0.008 A 
ATOM     18  C   UNL     1      -2.911  -0.496  25.441  0.00  0.00    +0.115 A 
ATOM     21  C   UNL     1      -3.743  -2.637  23.967  0.00  0.00    +0.020 A 
ATOM     22  C   UNL     1      -2.613  -2.674  24.770  0.00  0.00    +0.111 A 
ENDBRANCH  13  14
ENDBRANCH   4  13
ENDBRANCH   8   4
BRANCH  10  12
ATOM     12  C   UNL     1      -0.856   2.201  25.467  0.00  0.00    +0.140 C 
BRANCH  12   5
ATOM      3  O   UNL     1       0.107  -0.022  23.900  0.00  0.00    -0.253 OA
ATOM      5  N   UNL     1       0.414   2.094  24.808  0.00  0.00    -0.297 N 
ATOM      6  N   UNL     1       2.083   1.138  23.535  0.00  0.00    -0.297 N 
ATOM     15  C   UNL     1       0.805   0.977  24.064  0.00  0.00    +0.300 C 
ATOM     25  H   UNL     1       1.066   2.867  24.895  0.00  0.00    +0.150 HD
ATOM     26  H   UNL     1       2.610   1.968  23.786  0.00  0.00    +0.150 HD
BRANCH   6  16
ATOM     16  C   UNL     1       2.727   0.129  22.726  0.00  0.00    +0.068 C 
ATOM     19  C   UNL     1       1.848  -0.246  21.539  0.00  0.00    +0.027 C 
ATOM     20  C   UNL     1       4.097   0.613  22.268  0.00  0.00    +0.027 C 
ENDBRANCH   6  16
ENDBRANCH  12   5
ENDBRANCH  10  12
TORSDOF 7
ENDMDL
MODEL 8
REMARK VINA RESULT:      -5.8     26.404     27.634
REMARK  Name = 75536735
REMARK  9 active torsions:
REMARK  status: ('A' for Active; 'I' for Inactive)
REMARK    1  A    between atoms: O_2  and  C_9
REMARK    2  A    between atoms: N_4  and  C_8
REMARK    3  A    between atoms: N_4  and  C_13
REMARK    4  A    between atoms: N_5  and  C_12
REMARK    5  A    between atoms: N_6  and  C_16
REMARK    6  A    between atoms: C_10  and  C_12
REMARK    7  A    between atoms: C_13  and  C_14
REMARK    8  A    between atoms: C_16  and  C_19
REMARK    9  A    between atoms: C_16  and  C_20
REMARK                            x       y       z     vdW  Elec       q    Type
REMARK                         _______ _______ _______ _____ _____    ______ ____
ROOT
ATOM      1  O   UNL     1      -7.022 -12.517  18.231  0.00  0.00    -0.371 OA
ATOM      8  C   UNL     1      -5.223 -12.818  16.721  0.00  0.00    +0.111 C 
ATOM      9  C   UNL     1      -4.639 -12.485  18.083  0.00  0.00    +0.164 C 
ATOM     10  C   UNL     1      -5.843 -12.091  18.938  0.00  0.00    +0.165 C 
ATOM     11  C   UNL     1      -6.623 -13.284  17.088  0.00  0.00    +0.181 C 
ENDROOT
BRANCH   9   2
ATOM      2  O   UNL     1      -4.060 -13.679  18.613  0.00  0.00    -0.388 OA
ATOM     24  H   UNL     1      -4.468 -13.840  19.481  0.00  0.00    +0.210 HD
ENDBRANCH   9   2
BRANCH   8   4
ATOM      4  N   UNL     1      -5.279 -11.643  15.856  0.00  0.00    -0.305 NA
ATOM     23  H   UNL     1      -5.604 -11.920  14.929  0.00  0.00    +0.123 HD
BRANCH   4  13
ATOM     13  C   UNL     1      -3.963 -11.026  15.722  0.00  0.00    +0.118 C 
BRANCH  13  14
ATOM      7  N   UNL     1      -4.361 -10.278  12.033  0.00  0.00    -0.263 NA
ATOM     14  C   UNL     1      -3.616 -10.755  14.282  0.00  0.00    -0.015 A 
ATOM     17  C   UNL     1      -2.292 -10.728  13.858  0.00  0.00    +0.008 A 
ATOM     18  C   UNL     1      -4.604 -10.526  13.339  0.00  0.00    +0.115 A 
ATOM     21  C   UNL     1      -2.001 -10.476  12.522  0.00  0.00    +0.020 A 
ATOM     22  C   UNL     1      -3.062 -10.259  11.657  0.00  0.00    +0.111 A 
ENDBRANCH  13  14
ENDBRANCH   4  13
ENDBRANCH   8   4
BRANCH  10  12
ATOM     12  C   UNL     1      -5.949 -10.594  19.186  0.00  0.00    +0.140 C 
BRANCH  12   5
ATOM      3  O   UNL     1      -6.772  -9.232  16.779  0.00  0.00    -0.253 OA
ATOM      5  N   UNL     1      -7.261 -10.104  18.876  0.00  0.00    -0.297 N 
ATOM      6  N   UNL     1      -8.920  -9.082  17.642  0.00  0.00    -0.297 N 
ATOM     15  C   UNL     1      -7.579  -9.452  17.681  0.00  0.00    +0.300 C 
ATOM     25  H   UNL     1      -7.995 -10.230  19.566  0.00  0.00    +0.150 HD
ATOM     26  H   UNL     1      -9.491  -9.244  18.466  0.00  0.00    +0.150 HD
BRANCH   6  16
ATOM     16  C   UNL     1      -9.509  -8.392  16.517  0.00  0.00    +0.068 C 
ATOM     19  C   UNL     1     -10.116  -9.388  15.537  0.00  0.00    +0.027 C 
ATOM     20  C   UNL     1     -10.548  -7.386  16.998  0.00  0.00    +0.027 C 
ENDBRANCH   6  16
ENDBRANCH  12   5
ENDBRANCH  10  12
TORSDOF 7
ENDMDL
MODEL 9
REMARK VINA RESULT:      -5.7     25.465     27.464
REMARK  Name = 75536735
REMARK  9 active torsions:
REMARK  status: ('A' for Active; 'I' for Inactive)
REMARK    1  A    between atoms: O_2  and  C_9
REMARK    2  A    between atoms: N_4  and  C_8
REMARK    3  A    between atoms: N_4  and  C_13
REMARK    4  A    between atoms: N_5  and  C_12
REMARK    5  A    between atoms: N_6  and  C_16
REMARK    6  A    between atoms: C_10  and  C_12
REMARK    7  A    between atoms: C_13  and  C_14
REMARK    8  A    between atoms: C_16  and  C_19
REMARK    9  A    between atoms: C_16  and  C_20
REMARK                            x       y       z     vdW  Elec       q    Type
REMARK                         _______ _______ _______ _____ _____    ______ ____
ROOT
ATOM      1  O   UNL     1      -4.131 -12.151  15.769  0.00  0.00    -0.371 OA
ATOM      8  C   UNL     1      -2.320 -11.078  14.684  0.00  0.00    +0.111 C 
ATOM      9  C   UNL     1      -2.403 -10.537  16.100  0.00  0.00    +0.164 C 
ATOM     10  C   UNL     1      -3.709 -11.100  16.659  0.00  0.00    +0.165 C 
ATOM     11  C   UNL     1      -3.099 -12.379  14.802  0.00  0.00    +0.181 C 
ENDROOT
BRANCH   9   2
ATOM      2  O   UNL     1      -1.306 -11.080  16.840  0.00  0.00    -0.388 OA
ATOM     24  H   UNL     1      -1.547 -11.988  17.090  0.00  0.00    +0.210 HD
ENDBRANCH   9   2
BRANCH   8   4
ATOM      4  N   UNL     1      -2.957 -10.179  13.725  0.00  0.00    -0.305 NA
ATOM     23  H   UNL     1      -3.958 -10.134  13.917  0.00  0.00    +0.123 HD
BRANCH   4  13
ATOM     13  C   UNL     1      -2.767 -10.651  12.358  0.00  0.00    +0.118 C 
BRANCH  13  14
ATOM      7  N   UNL     1      -5.906  -9.142  10.876  0.00  0.00    -0.263 NA
ATOM     14  C   UNL     1      -3.689  -9.956  11.392  0.00  0.00    -0.015 A 
ATOM     17  C   UNL     1      -3.226  -9.495  10.165  0.00  0.00    +0.008 A 
ATOM     18  C   UNL     1      -5.026  -9.756  11.698  0.00  0.00    +0.115 A 
ATOM     21  C   UNL     1      -4.101  -8.857   9.293  0.00  0.00    +0.020 A 
ATOM     22  C   UNL     1      -5.419  -8.706   9.692  0.00  0.00    +0.111 A 
ENDBRANCH  13  14
ENDBRANCH   4  13
ENDBRANCH   8   4
BRANCH  10  12
ATOM     12  C   UNL     1      -4.826 -10.071  16.746  0.00  0.00    +0.140 C 
BRANCH  12   5
ATOM      3  O   UNL     1      -5.944 -10.402  19.385  0.00  0.00    -0.253 OA
ATOM      5  N   UNL     1      -6.078 -10.685  17.083  0.00  0.00    -0.297 N 
ATOM      6  N   UNL     1      -7.787 -11.442  18.434  0.00  0.00    -0.297 N 
ATOM     15  C   UNL     1      -6.550 -10.806  18.393  0.00  0.00    +0.300 C 
ATOM     25  H   UNL     1      -6.646 -11.060  16.330  0.00  0.00    +0.150 HD
ATOM     26  H   UNL     1      -8.174 -11.804  17.568  0.00  0.00    +0.150 HD
BRANCH   6  16
ATOM     16  C   UNL     1      -8.498 -11.694  19.667  0.00  0.00    +0.068 C 
ATOM     19  C   UNL     1      -9.857 -11.006  19.651  0.00  0.00    +0.027 C 
ATOM     20  C   UNL     1      -8.638 -13.192  19.901  0.00  0.00    +0.027 C 
ENDBRANCH   6  16
ENDBRANCH  12   5
ENDBRANCH  10  12
TORSDOF 7
ENDMDL
MODEL 10
REMARK VINA RESULT:      -5.7     25.942     27.300
REMARK  Name = 75536735
REMARK  9 active torsions:
REMARK  status: ('A' for Active; 'I' for Inactive)
REMARK    1  A    between atoms: O_2  and  C_9
REMARK    2  A    between atoms: N_4  and  C_8
REMARK    3  A    between atoms: N_4  and  C_13
REMARK    4  A    between atoms: N_5  and  C_12
REMARK    5  A    between atoms: N_6  and  C_16
REMARK    6  A    between atoms: C_10  and  C_12
REMARK    7  A    between atoms: C_13  and  C_14
REMARK    8  A    between atoms: C_16  and  C_19
REMARK    9  A    between atoms: C_16  and  C_20
REMARK                            x       y       z     vdW  Elec       q    Type
REMARK                         _______ _______ _______ _____ _____    ______ ____
ROOT
ATOM      1  O   UNL     1      -4.745 -12.029  15.095  0.00  0.00    -0.371 OA
ATOM      8  C   UNL     1      -2.498 -11.298  15.252  0.00  0.00    +0.111 C 
ATOM      9  C   UNL     1      -3.252 -10.753  16.453  0.00  0.00    +0.164 C 
ATOM     10  C   UNL     1      -4.719 -11.073  16.172  0.00  0.00    +0.165 C 
ATOM     11  C   UNL     1      -3.401 -12.438  14.809  0.00  0.00    +0.181 C 
ENDROOT
BRANCH   9   2
ATOM      2  O   UNL     1      -2.826 -11.486  17.604  0.00  0.00    -0.388 OA
ATOM     24  H   UNL     1      -1.861 -11.388  17.670  0.00  0.00    +0.210 HD
ENDBRANCH   9   2
BRANCH   8   4
ATOM      4  N   UNL     1      -2.371 -10.297  14.196  0.00  0.00    -0.305 NA
ATOM     23  H   UNL     1      -3.172  -9.666  14.230  0.00  0.00    +0.123 HD
BRANCH   4  13
ATOM     13  C   UNL     1      -2.330 -10.925  12.880  0.00  0.00    +0.118 C 
BRANCH  13  14
ATOM      7  N   UNL     1      -5.398  -9.410  11.261  0.00  0.00    -0.263 NA
ATOM     14  C   UNL     1      -3.202 -10.204  11.887  0.00  0.00    -0.015 A 
ATOM     17  C   UNL     1      -2.670  -9.677  10.716  0.00  0.00    +0.008 A 
ATOM     18  C   UNL     1      -4.560 -10.045  12.111  0.00  0.00    +0.115 A 
ATOM     21  C   UNL     1      -3.499  -9.016   9.817  0.00  0.00    +0.020 A 
ATOM     22  C   UNL     1      -4.845  -8.910  10.133  0.00  0.00    +0.111 A 
ENDBRANCH  13  14
ENDBRANCH   4  13
ENDBRANCH   8   4
BRANCH  10  12
ATOM     12  C   UNL     1      -5.536  -9.860  15.753  0.00  0.00    +0.140 C 
BRANCH  12   5
ATOM      3  O   UNL     1      -8.375  -9.679  15.275  0.00  0.00    -0.253 OA
ATOM      5  N   UNL     1      -6.557  -9.559  16.715  0.00  0.00    -0.297 N 
ATOM      6  N   UNL     1      -8.685  -9.180  17.520  0.00  0.00    -0.297 N 
ATOM     15  C   UNL     1      -7.917  -9.490  16.401  0.00  0.00    +0.300 C 
ATOM     25  H   UNL     1      -6.274  -9.377  17.673  0.00  0.00    +0.150 HD
ATOM     26  H   UNL     1      -8.208  -8.971  18.391  0.00  0.00    +0.150 HD
BRANCH   6  16
ATOM     16  C   UNL     1     -10.123  -9.047  17.470  0.00  0.00    +0.068 C 
ATOM     19  C   UNL     1     -10.755  -9.599  18.741  0.00  0.00    +0.027 C 
ATOM     20  C   UNL     1     -10.513  -7.592  17.245  0.00  0.00    +0.027 C 
ENDBRANCH   6  16
ENDBRANCH  12   5
ENDBRANCH  10  12
TORSDOF 7
ENDMDL
