MODEL 1
REMARK VINA RESULT:      -8.6      0.000      0.000
REMARK  Name = 11885877
REMARK  3 active torsions:
REMARK  status: ('A' for Active; 'I' for Inactive)
REMARK    1  A    between atoms: N_8  and  C_19
REMARK    2  A    between atoms: C_18  and  C_21
REMARK    3  A    between atoms: C_24  and  C_28
REMARK                            x       y       z     vdW  Elec       q    Type
REMARK                         _______ _______ _______ _____ _____    ______ ____
ROOT
ATOM      2  O   UNL     1      13.680  11.734  18.074  0.00  0.00    -0.266 OA
ATOM      3  O   UNL     1      15.643   9.339  22.219  0.00  0.00    -0.270 OA
ATOM      6  N   UNL     1      13.773   8.121  21.514  0.00  0.00    -0.297 N 
ATOM      7  N   UNL     1      12.900   9.692  18.900  0.00  0.00    -0.310 N 
ATOM      9  C   UNL     1      11.715   9.475  21.161  0.00  0.00    +0.027 C 
ATOM     10  C   UNL     1      12.109   7.470  19.789  0.00  0.00    +0.054 C 
ATOM     11  C   UNL     1      11.036   8.266  20.530  0.00  0.00    +0.018 C 
ATOM     12  C   UNL     1      12.810   9.024  22.144  0.00  0.00    +0.113 C 
ATOM     13  C   UNL     1      12.273  10.367  20.046  0.00  0.00    +0.130 C 
ATOM     14  C   UNL     1      13.177   6.986  20.790  0.00  0.00    +0.117 C 
ATOM     15  C   UNL     1      12.765   8.313  18.710  0.00  0.00    +0.027 A 
ATOM     16  C   UNL     1      13.246   7.733  17.598  0.00  0.00    +0.024 A 
ATOM     17  C   UNL     1      13.551  10.514  17.959  0.00  0.00    +0.273 A 
ATOM     18  C   UNL     1      15.139   8.393  21.615  0.00  0.00    +0.247 C 
ATOM     19  C   UNL     1      14.097   9.825  16.746  0.00  0.00    +0.099 A 
ATOM     20  C   UNL     1      13.926   8.508  16.599  0.00  0.00    +0.030 A 
ENDROOT
BRANCH  18  21
ATOM      1  F   UNL     1      18.694   4.949  19.013  0.00  0.00    -0.205 F 
ATOM     21  C   UNL     1      16.072   7.489  20.932  0.00  0.00    +0.037 A 
ATOM     22  C   UNL     1      17.284   7.162  21.533  0.00  0.00    +0.016 A 
ATOM     23  C   UNL     1      15.739   6.962  19.687  0.00  0.00    +0.016 A 
ATOM     25  C   UNL     1      18.171   6.303  20.884  0.00  0.00    +0.039 A 
ATOM     26  C   UNL     1      16.626   6.104  19.038  0.00  0.00    +0.039 A 
ATOM     27  C   UNL     1      17.841   5.774  19.636  0.00  0.00    +0.123 A 
ENDBRANCH  18  21
BRANCH  19   8
ATOM      4  O   UNL     1      12.958  10.949  14.383  0.00  0.00    -0.266 OA
ATOM      8  N   UNL     1      14.750  10.583  15.820  0.00  0.00    -0.275 N 
ATOM     24  C   UNL     1      14.139  11.103  14.687  0.00  0.00    +0.284 C 
ATOM     32  H   UNL     1      15.765  10.608  15.872  0.00  0.00    +0.155 HD
BRANCH  24  28
ATOM      5  O   UNL     1      15.374  11.346  12.665  0.00  0.00    -0.458 OA
ATOM     28  C   UNL     1      15.008  11.924  13.805  0.00  0.00    +0.189 A 
ATOM     29  C   UNL     1      15.477  13.160  13.986  0.00  0.00    +0.054 A 
ATOM     30  C   UNL     1      16.241  13.414  12.822  0.00  0.00    +0.042 A 
ATOM     31  C   UNL     1      16.147  12.280  12.050  0.00  0.00    +0.196 A 
ENDBRANCH  24  28
ENDBRANCH  19   8
TORSDOF 3
ENDMDL
MODEL 2
REMARK VINA RESULT:      -7.7     27.480     29.944
REMARK  Name = 11885877
REMARK  3 active torsions:
REMARK  status: ('A' for Active; 'I' for Inactive)
REMARK    1  A    between atoms: N_8  and  C_19
REMARK    2  A    between atoms: C_18  and  C_21
REMARK    3  A    between atoms: C_24  and  C_28
REMARK                            x       y       z     vdW  Elec       q    Type
REMARK                         _______ _______ _______ _____ _____    ______ ____
ROOT
ATOM      2  O   UNL     1      -6.730  -9.875  14.640  0.00  0.00    -0.266 OA
ATOM      3  O   UNL     1      -4.995 -14.328  12.660  0.00  0.00    -0.270 OA
ATOM      6  N   UNL     1      -3.133 -13.057  13.288  0.00  0.00    -0.297 N 
ATOM      7  N   UNL     1      -4.481 -10.507  14.609  0.00  0.00    -0.310 N 
ATOM      9  C   UNL     1      -3.132 -10.716  12.441  0.00  0.00    +0.027 C 
ATOM     10  C   UNL     1      -2.069 -11.236  14.600  0.00  0.00    +0.054 C 
ATOM     11  C   UNL     1      -1.930 -10.405  13.326  0.00  0.00    +0.018 C 
ATOM     12  C   UNL     1      -3.167 -12.215  12.092  0.00  0.00    +0.113 C 
ATOM     13  C   UNL     1      -4.407 -10.261  13.161  0.00  0.00    +0.130 C 
ATOM     14  C   UNL     1      -2.059 -12.736  14.242  0.00  0.00    +0.117 C 
ATOM     15  C   UNL     1      -3.351 -10.895  15.336  0.00  0.00    +0.027 A 
ATOM     16  C   UNL     1      -3.412 -11.002  16.674  0.00  0.00    +0.024 A 
ATOM     17  C   UNL     1      -5.714 -10.235  15.235  0.00  0.00    +0.273 A 
ATOM     18  C   UNL     1      -4.095 -14.056  13.454  0.00  0.00    +0.247 C 
ATOM     19  C   UNL     1      -5.747 -10.392  16.724  0.00  0.00    +0.099 A 
ATOM     20  C   UNL     1      -4.636 -10.746  17.378  0.00  0.00    +0.030 A 
ENDROOT
BRANCH  18  21
ATOM      1  F   UNL     1      -3.943 -17.081  18.153  0.00  0.00    -0.205 F 
ATOM     21  C   UNL     1      -4.056 -14.849  14.687  0.00  0.00    +0.037 A 
ATOM     22  C   UNL     1      -3.298 -16.017  14.734  0.00  0.00    +0.016 A 
ATOM     23  C   UNL     1      -4.774 -14.431  15.803  0.00  0.00    +0.016 A 
ATOM     25  C   UNL     1      -3.261 -16.772  15.907  0.00  0.00    +0.039 A 
ATOM     26  C   UNL     1      -4.736 -15.185  16.976  0.00  0.00    +0.039 A 
ATOM     27  C   UNL     1      -3.979 -16.355  17.028  0.00  0.00    +0.123 A 
ENDBRANCH  18  21
BRANCH  19   8
ATOM      4  O   UNL     1      -7.608 -12.367  17.609  0.00  0.00    -0.266 OA
ATOM      8  N   UNL     1      -6.927 -10.156  17.366  0.00  0.00    -0.275 N 
ATOM     24  C   UNL     1      -7.792 -11.162  17.773  0.00  0.00    +0.284 C 
ATOM     32  H   UNL     1      -7.266  -9.197  17.377  0.00  0.00    +0.155 HD
BRANCH  24  28
ATOM      5  O   UNL     1      -9.064 -10.984  19.779  0.00  0.00    -0.458 OA
ATOM     28  C   UNL     1      -9.020 -10.712  18.478  0.00  0.00    +0.189 A 
ATOM     29  C   UNL     1     -10.088 -10.072  17.999  0.00  0.00    +0.054 A 
ATOM     30  C   UNL     1     -10.928  -9.909  19.126  0.00  0.00    +0.042 A 
ATOM     31  C   UNL     1     -10.260 -10.482  20.185  0.00  0.00    +0.196 A 
ENDBRANCH  24  28
ENDBRANCH  19   8
TORSDOF 3
ENDMDL
MODEL 3
REMARK VINA RESULT:      -7.7     10.905     13.296
REMARK  Name = 11885877
REMARK  3 active torsions:
REMARK  status: ('A' for Active; 'I' for Inactive)
REMARK    1  A    between atoms: N_8  and  C_19
REMARK    2  A    between atoms: C_18  and  C_21
REMARK    3  A    between atoms: C_24  and  C_28
REMARK                            x       y       z     vdW  Elec       q    Type
REMARK                         _______ _______ _______ _____ _____    ______ ____
ROOT
ATOM      2  O   UNL     1      12.785   7.449   3.740  0.00  0.00    -0.266 OA
ATOM      3  O   UNL     1       9.314  10.951   5.304  0.00  0.00    -0.270 OA
ATOM      6  N   UNL     1       8.689   8.882   6.200  0.00  0.00    -0.297 N 
ATOM      7  N   UNL     1      11.053   6.998   5.241  0.00  0.00    -0.310 N 
ATOM      9  C   UNL     1       8.585   7.019   4.553  0.00  0.00    +0.027 C 
ATOM     10  C   UNL     1       9.201   6.552   6.891  0.00  0.00    +0.054 C 
ATOM     11  C   UNL     1       8.404   6.027   5.697  0.00  0.00    +0.018 C 
ATOM     12  C   UNL     1       8.069   8.410   4.962  0.00  0.00    +0.113 C 
ATOM     13  C   UNL     1      10.065   7.046   4.153  0.00  0.00    +0.130 C 
ATOM     14  C   UNL     1       8.647   7.926   7.318  0.00  0.00    +0.117 C 
ATOM     15  C   UNL     1      10.674   6.679   6.549  0.00  0.00    +0.027 A 
ATOM     16  C   UNL     1      11.606   6.526   7.505  0.00  0.00    +0.024 A 
ATOM     17  C   UNL     1      12.402   7.185   4.880  0.00  0.00    +0.273 A 
ATOM     18  C   UNL     1       9.276  10.148   6.235  0.00  0.00    +0.247 C 
ATOM     19  C   UNL     1      13.407   7.032   5.980  0.00  0.00    +0.099 A 
ATOM     20  C   UNL     1      12.999   6.708   7.211  0.00  0.00    +0.030 A 
ENDROOT
BRANCH  18  21
ATOM      1  F   UNL     1      11.759  11.751  10.982  0.00  0.00    -0.205 F 
ATOM     21  C   UNL     1       9.927  10.569   7.481  0.00  0.00    +0.037 A 
ATOM     22  C   UNL     1      11.307  10.442   7.618  0.00  0.00    +0.016 A 
ATOM     23  C   UNL     1       9.163  11.094   8.519  0.00  0.00    +0.016 A 
ATOM     25  C   UNL     1      11.927  10.841   8.802  0.00  0.00    +0.039 A 
ATOM     26  C   UNL     1       9.782  11.493   9.703  0.00  0.00    +0.039 A 
ATOM     27  C   UNL     1      11.163  11.368   9.844  0.00  0.00    +0.123 A 
ENDBRANCH  18  21
BRANCH  19   8
ATOM      4  O   UNL     1      14.909   9.418   6.424  0.00  0.00    -0.266 OA
ATOM      8  N   UNL     1      14.723   7.223   5.675  0.00  0.00    -0.275 N 
ATOM     24  C   UNL     1      15.399   8.411   5.917  0.00  0.00    +0.284 C 
ATOM     32  H   UNL     1      15.168   6.530   5.080  0.00  0.00    +0.155 HD
BRANCH  24  28
ATOM      5  O   UNL     1      17.108   7.985   4.312  0.00  0.00    -0.458 OA
ATOM     28  C   UNL     1      16.836   8.424   5.538  0.00  0.00    +0.189 A 
ATOM     29  C   UNL     1      17.898   8.812   6.247  0.00  0.00    +0.054 A 
ATOM     30  C   UNL     1      18.992   8.598   5.375  0.00  0.00    +0.042 A 
ATOM     31  C   UNL     1      18.459   8.094   4.211  0.00  0.00    +0.196 A 
ENDBRANCH  24  28
ENDBRANCH  19   8
TORSDOF 3
ENDMDL
MODEL 4
REMARK VINA RESULT:      -7.7     30.600     32.477
REMARK  Name = 11885877
REMARK  3 active torsions:
REMARK  status: ('A' for Active; 'I' for Inactive)
REMARK    1  A    between atoms: N_8  and  C_19
REMARK    2  A    between atoms: C_18  and  C_21
REMARK    3  A    between atoms: C_24  and  C_28
REMARK                            x       y       z     vdW  Elec       q    Type
REMARK                         _______ _______ _______ _____ _____    ______ ____
ROOT
ATOM      2  O   UNL     1     -12.293  -7.523   9.225  0.00  0.00    -0.266 OA
ATOM      3  O   UNL     1     -16.558  -5.008  10.726  0.00  0.00    -0.270 OA
ATOM      6  N   UNL     1     -14.779  -4.233  12.034  0.00  0.00    -0.297 N 
ATOM      7  N   UNL     1     -12.310  -5.790  10.792  0.00  0.00    -0.310 N 
ATOM      9  C   UNL     1     -13.408  -6.018  13.096  0.00  0.00    +0.027 C 
ATOM     10  C   UNL     1     -12.354  -3.889  12.447  0.00  0.00    +0.054 C 
ATOM     11  C   UNL     1     -12.390  -4.968  13.528  0.00  0.00    +0.018 C 
ATOM     12  C   UNL     1     -14.801  -5.382  12.939  0.00  0.00    +0.113 C 
ATOM     13  C   UNL     1     -12.922  -6.672  11.797  0.00  0.00    +0.130 C 
ATOM     14  C   UNL     1     -13.743  -3.230  12.329  0.00  0.00    +0.117 C 
ATOM     15  C   UNL     1     -11.952  -4.475  11.106  0.00  0.00    +0.027 A 
ATOM     16  C   UNL     1     -11.289  -3.723  10.211  0.00  0.00    +0.024 A 
ATOM     17  C   UNL     1     -12.013  -6.366   9.541  0.00  0.00    +0.273 A 
ATOM     18  C   UNL     1     -15.690  -4.173  10.977  0.00  0.00    +0.247 C 
ATOM     19  C   UNL     1     -11.299  -5.486   8.562  0.00  0.00    +0.099 A 
ATOM     20  C   UNL     1     -10.959  -4.242   8.914  0.00  0.00    +0.030 A 
ENDROOT
BRANCH  18  21
ATOM      1  F   UNL     1     -15.379   0.193   7.499  0.00  0.00    -0.205 F 
ATOM     21  C   UNL     1     -15.609  -3.028  10.064  0.00  0.00    +0.037 A 
ATOM     22  C   UNL     1     -16.355  -1.881  10.324  0.00  0.00    +0.016 A 
ATOM     23  C   UNL     1     -14.784  -3.092   8.944  0.00  0.00    +0.016 A 
ATOM     25  C   UNL     1     -16.278  -0.792   9.456  0.00  0.00    +0.039 A 
ATOM     26  C   UNL     1     -14.707  -2.003   8.076  0.00  0.00    +0.039 A 
ATOM     27  C   UNL     1     -15.453  -0.853   8.332  0.00  0.00    +0.123 A 
ENDBRANCH  18  21
BRANCH  19   8
ATOM      4  O   UNL     1      -8.799  -6.596   7.746  0.00  0.00    -0.266 OA
ATOM      8  N   UNL     1     -11.009  -6.000   7.333  0.00  0.00    -0.275 N 
ATOM     24  C   UNL     1      -9.770  -6.527   6.996  0.00  0.00    +0.284 C 
ATOM     32  H   UNL     1     -11.673  -5.817   6.584  0.00  0.00    +0.155 HD
BRANCH  24  28
ATOM      5  O   UNL     1      -8.468  -7.587   5.305  0.00  0.00    -0.458 OA
ATOM     28  C   UNL     1      -9.650  -7.062   5.614  0.00  0.00    +0.189 A 
ATOM     29  C   UNL     1     -10.556  -7.094   4.635  0.00  0.00    +0.054 A 
ATOM     30  C   UNL     1      -9.879  -7.715   3.559  0.00  0.00    +0.042 A 
ATOM     31  C   UNL     1      -8.612  -7.995   4.016  0.00  0.00    +0.196 A 
ENDBRANCH  24  28
ENDBRANCH  19   8
TORSDOF 3
ENDMDL
MODEL 5
REMARK VINA RESULT:      -7.6     27.739     30.110
REMARK  Name = 11885877
REMARK  3 active torsions:
REMARK  status: ('A' for Active; 'I' for Inactive)
REMARK    1  A    between atoms: N_8  and  C_19
REMARK    2  A    between atoms: C_18  and  C_21
REMARK    3  A    between atoms: C_24  and  C_28
REMARK                            x       y       z     vdW  Elec       q    Type
REMARK                         _______ _______ _______ _____ _____    ______ ____
ROOT
ATOM      2  O   UNL     1      -6.215 -12.822  15.097  0.00  0.00    -0.266 OA
ATOM      3  O   UNL     1     -11.224 -12.002  16.098  0.00  0.00    -0.270 OA
ATOM      6  N   UNL     1     -10.047 -11.744  18.104  0.00  0.00    -0.297 N 
ATOM      7  N   UNL     1      -7.040 -12.120  17.167  0.00  0.00    -0.310 N 
ATOM      9  C   UNL     1      -8.498 -13.613  18.654  0.00  0.00    +0.027 C 
ATOM     10  C   UNL     1      -7.956 -11.322  19.375  0.00  0.00    +0.054 C 
ATOM     11  C   UNL     1      -7.923 -12.789  19.801  0.00  0.00    +0.018 C 
ATOM     12  C   UNL     1      -9.945 -13.182  18.356  0.00  0.00    +0.113 C 
ATOM     13  C   UNL     1      -7.586 -13.460  17.431  0.00  0.00    +0.130 C 
ATOM     14  C   UNL     1      -9.414 -10.890  19.121  0.00  0.00    +0.117 C 
ATOM     15  C   UNL     1      -7.132 -11.101  18.120  0.00  0.00    +0.027 A 
ATOM     16  C   UNL     1      -6.526  -9.921  17.907  0.00  0.00    +0.024 A 
ATOM     17  C   UNL     1      -6.337 -11.950  15.958  0.00  0.00    +0.273 A 
ATOM     18  C   UNL     1     -10.693 -11.293  16.951  0.00  0.00    +0.247 C 
ATOM     19  C   UNL     1      -5.700 -10.611  15.747  0.00  0.00    +0.099 A 
ATOM     20  C   UNL     1      -5.798  -9.674  16.695  0.00  0.00    +0.030 A 
ENDROOT
BRANCH  18  21
ATOM      1  F   UNL     1     -10.858  -5.779  16.035  0.00  0.00    -0.205 F 
ATOM     21  C   UNL     1     -10.736  -9.846  16.710  0.00  0.00    +0.037 A 
ATOM     22  C   UNL     1     -11.858  -9.114  17.090  0.00  0.00    +0.016 A 
ATOM     23  C   UNL     1      -9.654  -9.212  16.106  0.00  0.00    +0.016 A 
ATOM     25  C   UNL     1     -11.899  -7.739  16.861  0.00  0.00    +0.039 A 
ATOM     26  C   UNL     1      -9.695  -7.836  15.877  0.00  0.00    +0.039 A 
ATOM     27  C   UNL     1     -10.817  -7.100  16.255  0.00  0.00    +0.123 A 
ENDBRANCH  18  21
BRANCH  19   8
ATOM      4  O   UNL     1      -2.951 -11.206  15.259  0.00  0.00    -0.266 OA
ATOM      8  N   UNL     1      -5.025 -10.400  14.581  0.00  0.00    -0.275 N 
ATOM     24  C   UNL     1      -3.684 -10.712  14.405  0.00  0.00    +0.284 C 
ATOM     32  H   UNL     1      -5.480  -9.821  13.880  0.00  0.00    +0.155 HD
BRANCH  24  28
ATOM      5  O   UNL     1      -1.814 -10.229  13.010  0.00  0.00    -0.458 OA
ATOM     28  C   UNL     1      -3.128 -10.430  13.056  0.00  0.00    +0.189 A 
ATOM     29  C   UNL     1      -3.753 -10.348  11.880  0.00  0.00    +0.054 A 
ATOM     30  C   UNL     1      -2.718 -10.059  10.959  0.00  0.00    +0.042 A 
ATOM     31  C   UNL     1      -1.558  -9.996  11.695  0.00  0.00    +0.196 A 
ENDBRANCH  24  28
ENDBRANCH  19   8
TORSDOF 3
ENDMDL
MODEL 6
REMARK VINA RESULT:      -7.5     25.257     28.070
REMARK  Name = 11885877
REMARK  3 active torsions:
REMARK  status: ('A' for Active; 'I' for Inactive)
REMARK    1  A    between atoms: N_8  and  C_19
REMARK    2  A    between atoms: C_18  and  C_21
REMARK    3  A    between atoms: C_24  and  C_28
REMARK                            x       y       z     vdW  Elec       q    Type
REMARK                         _______ _______ _______ _____ _____    ______ ____
ROOT
ATOM      2  O   UNL     1     -13.835   9.215  17.902  0.00  0.00    -0.266 OA
ATOM      3  O   UNL     1     -16.496  10.243  22.218  0.00  0.00    -0.270 OA
ATOM      6  N   UNL     1     -15.732   8.036  22.363  0.00  0.00    -0.297 N 
ATOM      7  N   UNL     1     -14.014   7.749  19.712  0.00  0.00    -0.310 N 
ATOM      9  C   UNL     1     -16.221   6.627  20.371  0.00  0.00    +0.027 C 
ATOM     10  C   UNL     1     -14.190   6.206  21.697  0.00  0.00    +0.054 C 
ATOM     11  C   UNL     1     -15.330   5.528  20.938  0.00  0.00    +0.018 C 
ATOM     12  C   UNL     1     -16.788   7.498  21.507  0.00  0.00    +0.113 C 
ATOM     13  C   UNL     1     -15.410   7.450  19.362  0.00  0.00    +0.130 C 
ATOM     14  C   UNL     1     -14.767   7.040  22.858  0.00  0.00    +0.117 C 
ATOM     15  C   UNL     1     -13.380   7.102  20.778  0.00  0.00    +0.027 A 
ATOM     16  C   UNL     1     -12.072   7.303  21.009  0.00  0.00    +0.024 A 
ATOM     17  C   UNL     1     -13.324   8.636  18.862  0.00  0.00    +0.273 A 
ATOM     18  C   UNL     1     -15.693   9.406  22.629  0.00  0.00    +0.247 C 
ATOM     19  C   UNL     1     -11.875   8.853  19.170  0.00  0.00    +0.099 A 
ATOM     20  C   UNL     1     -11.308   8.198  20.188  0.00  0.00    +0.030 A 
ENDROOT
BRANCH  18  21
ATOM      1  F   UNL     1     -11.499  11.346  25.777  0.00  0.00    -0.205 F 
ATOM     21  C   UNL     1     -14.593   9.915  23.455  0.00  0.00    +0.037 A 
ATOM     22  C   UNL     1     -13.399  10.306  22.854  0.00  0.00    +0.016 A 
ATOM     23  C   UNL     1     -14.747  10.005  24.836  0.00  0.00    +0.016 A 
ATOM     25  C   UNL     1     -12.353  10.790  23.640  0.00  0.00    +0.039 A 
ATOM     26  C   UNL     1     -13.701  10.489  25.621  0.00  0.00    +0.039 A 
ATOM     27  C   UNL     1     -12.505  10.881  25.024  0.00  0.00    +0.123 A 
ENDBRANCH  18  21
BRANCH  19   8
ATOM      4  O   UNL     1     -11.615  11.666  19.578  0.00  0.00    -0.266 OA
ATOM      8  N   UNL     1     -11.177   9.719  18.382  0.00  0.00    -0.275 N 
ATOM     24  C   UNL     1     -11.087  11.082  18.634  0.00  0.00    +0.284 C 
ATOM     32  H   UNL     1     -10.867   9.377  17.476  0.00  0.00    +0.155 HD
BRANCH  24  28
ATOM      5  O   UNL     1     -10.070  13.139  17.995  0.00  0.00    -0.458 OA
ATOM     28  C   UNL     1     -10.262  11.862  17.676  0.00  0.00    +0.189 A 
ATOM     29  C   UNL     1      -9.682  11.471  16.539  0.00  0.00    +0.054 A 
ATOM     30  C   UNL     1      -9.036  12.636  16.063  0.00  0.00    +0.042 A 
ATOM     31  C   UNL     1      -9.302  13.624  16.983  0.00  0.00    +0.196 A 
ENDBRANCH  24  28
ENDBRANCH  19   8
TORSDOF 3
ENDMDL
MODEL 7
REMARK VINA RESULT:      -7.4     34.508     36.322
REMARK  Name = 11885877
REMARK  3 active torsions:
REMARK  status: ('A' for Active; 'I' for Inactive)
REMARK    1  A    between atoms: N_8  and  C_19
REMARK    2  A    between atoms: C_18  and  C_21
REMARK    3  A    between atoms: C_24  and  C_28
REMARK                            x       y       z     vdW  Elec       q    Type
REMARK                         _______ _______ _______ _____ _____    ______ ____
ROOT
ATOM      2  O   UNL     1      -6.667  -6.947  38.853  0.00  0.00    -0.266 OA
ATOM      3  O   UNL     1      -7.272 -11.088  35.812  0.00  0.00    -0.270 OA
ATOM      6  N   UNL     1      -7.354 -11.820  38.033  0.00  0.00    -0.297 N 
ATOM      7  N   UNL     1      -7.140  -9.095  39.642  0.00  0.00    -0.310 N 
ATOM      9  C   UNL     1      -5.475 -11.033  39.463  0.00  0.00    +0.027 C 
ATOM     10  C   UNL     1      -7.693 -11.414  40.460  0.00  0.00    +0.054 C 
ATOM     11  C   UNL     1      -6.192 -11.577  40.693  0.00  0.00    +0.018 C 
ATOM     12  C   UNL     1      -5.901 -11.811  38.205  0.00  0.00    +0.113 C 
ATOM     13  C   UNL     1      -5.770  -9.533  39.342  0.00  0.00    +0.130 C 
ATOM     14  C   UNL     1      -8.116 -12.231  39.223  0.00  0.00    +0.117 C 
ATOM     15  C   UNL     1      -8.057  -9.954  40.256  0.00  0.00    +0.027 A 
ATOM     16  C   UNL     1      -9.266  -9.500  40.626  0.00  0.00    +0.024 A 
ATOM     17  C   UNL     1      -7.446  -7.745  39.376  0.00  0.00    +0.273 A 
ATOM     18  C   UNL     1      -7.904 -11.433  36.809  0.00  0.00    +0.247 C 
ATOM     19  C   UNL     1      -8.813  -7.286  39.779  0.00  0.00    +0.099 A 
ATOM     20  C   UNL     1      -9.649  -8.139  40.381  0.00  0.00    +0.030 A 
ENDROOT
BRANCH  18  21
ATOM      1  F   UNL     1     -13.476 -11.350  36.353  0.00  0.00    -0.205 F 
ATOM     21  C   UNL     1      -9.366 -11.412  36.690  0.00  0.00    +0.037 A 
ATOM     22  C   UNL     1     -10.077 -10.285  37.094  0.00  0.00    +0.016 A 
ATOM     23  C   UNL     1     -10.035 -12.517  36.172  0.00  0.00    +0.016 A 
ATOM     25  C   UNL     1     -11.467 -10.264  36.980  0.00  0.00    +0.039 A 
ATOM     26  C   UNL     1     -11.425 -12.497  36.058  0.00  0.00    +0.039 A 
ATOM     27  C   UNL     1     -12.141 -11.371  36.462  0.00  0.00    +0.123 A 
ENDBRANCH  18  21
BRANCH  19   8
ATOM      4  O   UNL     1      -8.401  -5.058  41.515  0.00  0.00    -0.266 OA
ATOM      8  N   UNL     1      -9.155  -5.991  39.522  0.00  0.00    -0.275 N 
ATOM     24  C   UNL     1      -8.927  -4.948  40.410  0.00  0.00    +0.284 C 
ATOM     32  H   UNL     1      -9.766  -5.821  38.728  0.00  0.00    +0.155 HD
BRANCH  24  28
ATOM      5  O   UNL     1     -10.316  -3.588  39.032  0.00  0.00    -0.458 OA
ATOM     28  C   UNL     1      -9.348  -3.601  39.944  0.00  0.00    +0.189 A 
ATOM     29  C   UNL     1      -8.898  -2.398  40.306  0.00  0.00    +0.054 A 
ATOM     30  C   UNL     1      -9.667  -1.495  39.535  0.00  0.00    +0.042 A 
ATOM     31  C   UNL     1     -10.515  -2.268  38.775  0.00  0.00    +0.196 A 
ENDBRANCH  24  28
ENDBRANCH  19   8
TORSDOF 3
ENDMDL
MODEL 8
REMARK VINA RESULT:      -7.3     12.353     14.655
REMARK  Name = 11885877
REMARK  3 active torsions:
REMARK  status: ('A' for Active; 'I' for Inactive)
REMARK    1  A    between atoms: N_8  and  C_19
REMARK    2  A    between atoms: C_18  and  C_21
REMARK    3  A    between atoms: C_24  and  C_28
REMARK                            x       y       z     vdW  Elec       q    Type
REMARK                         _______ _______ _______ _____ _____    ______ ____
ROOT
ATOM      2  O   UNL     1      13.834   6.385   7.255  0.00  0.00    -0.266 OA
ATOM      3  O   UNL     1      10.246   5.045   3.778  0.00  0.00    -0.270 OA
ATOM      6  N   UNL     1       9.283   6.613   5.223  0.00  0.00    -0.297 N 
ATOM      7  N   UNL     1      11.723   7.374   7.103  0.00  0.00    -0.310 N 
ATOM      9  C   UNL     1       9.561   6.111   7.645  0.00  0.00    +0.027 C 
ATOM     10  C   UNL     1       9.455   8.450   6.886  0.00  0.00    +0.054 C 
ATOM     11  C   UNL     1       9.008   7.490   7.987  0.00  0.00    +0.018 C 
ATOM     12  C   UNL     1       9.021   5.639   6.282  0.00  0.00    +0.113 C 
ATOM     13  C   UNL     1      11.093   6.173   7.670  0.00  0.00    +0.130 C 
ATOM     14  C   UNL     1       8.873   7.992   5.534  0.00  0.00    +0.117 C 
ATOM     15  C   UNL     1      10.968   8.511   6.796  0.00  0.00    +0.027 A 
ATOM     16  C   UNL     1      11.578   9.637   6.389  0.00  0.00    +0.024 A 
ATOM     17  C   UNL     1      13.127   7.355   6.982  0.00  0.00    +0.273 A 
ATOM     18  C   UNL     1       9.901   6.196   4.042  0.00  0.00    +0.247 C 
ATOM     19  C   UNL     1      13.765   8.621   6.499  0.00  0.00    +0.099 A 
ATOM     20  C   UNL     1      13.004   9.689   6.237  0.00  0.00    +0.030 A 
ENDROOT
BRANCH  18  21
ATOM      1  F   UNL     1      10.992  10.061   0.152  0.00  0.00    -0.205 F 
ATOM     21  C   UNL     1      10.188   7.210   3.022  0.00  0.00    +0.037 A 
ATOM     22  C   UNL     1       9.258   7.462   2.016  0.00  0.00    +0.016 A 
ATOM     23  C   UNL     1      11.387   7.916   3.064  0.00  0.00    +0.016 A 
ATOM     25  C   UNL     1       9.530   8.426   1.045  0.00  0.00    +0.039 A 
ATOM     26  C   UNL     1      11.659   8.880   2.094  0.00  0.00    +0.039 A 
ATOM     27  C   UNL     1      10.731   9.135   1.085  0.00  0.00    +0.123 A 
ENDBRANCH  18  21
BRANCH  19   8
ATOM      4  O   UNL     1      15.206   7.999   4.115  0.00  0.00    -0.266 OA
ATOM      8  N   UNL     1      15.120   8.638   6.350  0.00  0.00    -0.275 N 
ATOM     24  C   UNL     1      15.764   8.324   5.161  0.00  0.00    +0.284 C 
ATOM     32  H   UNL     1      15.679   8.703   7.197  0.00  0.00    +0.155 HD
BRANCH  24  28
ATOM      5  O   UNL     1      17.868   7.959   4.104  0.00  0.00    -0.458 OA
ATOM     28  C   UNL     1      17.247   8.421   5.186  0.00  0.00    +0.189 A 
ATOM     29  C   UNL     1      18.051   8.903   6.135  0.00  0.00    +0.054 A 
ATOM     30  C   UNL     1      19.352   8.734   5.604  0.00  0.00    +0.042 A 
ATOM     31  C   UNL     1      19.187   8.155   4.367  0.00  0.00    +0.196 A 
ENDBRANCH  24  28
ENDBRANCH  19   8
TORSDOF 3
ENDMDL
MODEL 9
REMARK VINA RESULT:      -7.3     31.812     33.814
REMARK  Name = 11885877
REMARK  3 active torsions:
REMARK  status: ('A' for Active; 'I' for Inactive)
REMARK    1  A    between atoms: N_8  and  C_19
REMARK    2  A    between atoms: C_18  and  C_21
REMARK    3  A    between atoms: C_24  and  C_28
REMARK                            x       y       z     vdW  Elec       q    Type
REMARK                         _______ _______ _______ _____ _____    ______ ____
ROOT
ATOM      2  O   UNL     1     -16.915   6.966  28.573  0.00  0.00    -0.266 OA
ATOM      3  O   UNL     1     -14.011   5.508  32.598  0.00  0.00    -0.270 OA
ATOM      6  N   UNL     1     -16.251   5.408  33.266  0.00  0.00    -0.297 N 
ATOM      7  N   UNL     1     -17.779   6.167  30.592  0.00  0.00    -0.310 N 
ATOM      9  C   UNL     1     -17.575   7.462  32.793  0.00  0.00    +0.027 C 
ATOM     10  C   UNL     1     -18.680   5.262  32.764  0.00  0.00    +0.054 C 
ATOM     11  C   UNL     1     -18.850   6.721  33.182  0.00  0.00    +0.018 C 
ATOM     12  C   UNL     1     -16.358   6.847  33.507  0.00  0.00    +0.113 C 
ATOM     13  C   UNL     1     -17.429   7.425  31.267  0.00  0.00    +0.130 C 
ATOM     14  C   UNL     1     -17.484   4.644  33.518  0.00  0.00    +0.117 C 
ATOM     15  C   UNL     1     -18.455   5.146  31.268  0.00  0.00    +0.027 A 
ATOM     16  C   UNL     1     -18.867   4.054  30.604  0.00  0.00    +0.024 A 
ATOM     17  C   UNL     1     -17.492   6.087  29.215  0.00  0.00    +0.273 A 
ATOM     18  C   UNL     1     -15.044   4.874  32.810  0.00  0.00    +0.247 C 
ATOM     19  C   UNL     1     -17.945   4.842  28.517  0.00  0.00    +0.099 A 
ATOM     20  C   UNL     1     -18.604   3.901  29.201  0.00  0.00    +0.030 A 
ENDROOT
BRANCH  18  21
ATOM      1  F   UNL     1     -14.835  -0.615  31.768  0.00  0.00    -0.205 F 
ATOM     21  C   UNL     1     -14.989   3.434  32.537  0.00  0.00    +0.037 A 
ATOM     22  C   UNL     1     -15.260   2.962  31.255  0.00  0.00    +0.016 A 
ATOM     23  C   UNL     1     -14.666   2.547  33.560  0.00  0.00    +0.016 A 
ATOM     25  C   UNL     1     -15.208   1.593  30.995  0.00  0.00    +0.039 A 
ATOM     26  C   UNL     1     -14.614   1.177  33.300  0.00  0.00    +0.039 A 
ATOM     27  C   UNL     1     -14.884   0.701  32.018  0.00  0.00    +0.123 A 
ENDBRANCH  18  21
BRANCH  19   8
ATOM      4  O   UNL     1     -15.835   3.299  27.371  0.00  0.00    -0.266 OA
ATOM      8  N   UNL     1     -17.670   4.717  27.187  0.00  0.00    -0.275 N 
ATOM     24  C   UNL     1     -16.625   3.949  26.691  0.00  0.00    +0.284 C 
ATOM     32  H   UNL     1     -18.135   5.361  26.554  0.00  0.00    +0.155 HD
BRANCH  24  28
ATOM      5  O   UNL     1     -17.624   3.695  24.542  0.00  0.00    -0.458 OA
ATOM     28  C   UNL     1     -16.496   3.916  25.211  0.00  0.00    +0.189 A 
ATOM     29  C   UNL     1     -15.412   4.076  24.449  0.00  0.00    +0.054 A 
ATOM     30  C   UNL     1     -15.896   3.943  23.126  0.00  0.00    +0.042 A 
ATOM     31  C   UNL     1     -17.248   3.712  23.236  0.00  0.00    +0.196 A 
ENDBRANCH  24  28
ENDBRANCH  19   8
TORSDOF 3
ENDMDL
MODEL 10
REMARK VINA RESULT:      -7.3     25.432     28.553
REMARK  Name = 11885877
REMARK  3 active torsions:
REMARK  status: ('A' for Active; 'I' for Inactive)
REMARK    1  A    between atoms: N_8  and  C_19
REMARK    2  A    between atoms: C_18  and  C_21
REMARK    3  A    between atoms: C_24  and  C_28
REMARK                            x       y       z     vdW  Elec       q    Type
REMARK                         _______ _______ _______ _____ _____    ______ ____
ROOT
ATOM      2  O   UNL     1     -12.299  10.101  20.843  0.00  0.00    -0.266 OA
ATOM      3  O   UNL     1     -14.539  12.038  16.600  0.00  0.00    -0.270 OA
ATOM      6  N   UNL     1     -12.290  11.633  16.095  0.00  0.00    -0.297 N 
ATOM      7  N   UNL     1     -11.232  10.306  18.774  0.00  0.00    -0.310 N 
ATOM      9  C   UNL     1     -10.666  12.575  17.728  0.00  0.00    +0.027 C 
ATOM     10  C   UNL     1     -10.121  10.501  16.520  0.00  0.00    +0.054 C 
ATOM     11  C   UNL     1      -9.540  11.816  17.036  0.00  0.00    +0.018 C 
ATOM     12  C   UNL     1     -11.811  12.856  16.740  0.00  0.00    +0.113 C 
ATOM     13  C   UNL     1     -11.136  11.764  18.942  0.00  0.00    +0.130 C 
ATOM     14  C   UNL     1     -11.238  10.794  15.499  0.00  0.00    +0.117 C 
ATOM     15  C   UNL     1     -10.678   9.667  17.660  0.00  0.00    +0.027 A 
ATOM     16  C   UNL     1     -10.674   8.326  17.583  0.00  0.00    +0.024 A 
ATOM     17  C   UNL     1     -11.814   9.584  19.835  0.00  0.00    +0.273 A 
ATOM     18  C   UNL     1     -13.655  11.340  16.104  0.00  0.00    +0.247 C 
ATOM     19  C   UNL     1     -11.814   8.093  19.697  0.00  0.00    +0.099 A 
ATOM     20  C   UNL     1     -11.255   7.526  18.623  0.00  0.00    +0.030 A 
ENDROOT
BRANCH  18  21
ATOM      1  F   UNL     1     -15.317   6.549  13.750  0.00  0.00    -0.205 F 
ATOM     21  C   UNL     1     -14.092  10.083  15.487  0.00  0.00    +0.037 A 
ATOM     22  C   UNL     1     -14.398  10.048  14.129  0.00  0.00    +0.016 A 
ATOM     23  C   UNL     1     -14.196   8.931  16.261  0.00  0.00    +0.016 A 
ATOM     25  C   UNL     1     -14.813   8.853  13.541  0.00  0.00    +0.039 A 
ATOM     26  C   UNL     1     -14.611   7.735  15.674  0.00  0.00    +0.039 A 
ATOM     27  C   UNL     1     -14.919   7.697  14.314  0.00  0.00    +0.123 A 
ENDBRANCH  18  21
BRANCH  19   8
ATOM      4  O   UNL     1     -14.550   7.294  19.844  0.00  0.00    -0.266 OA
ATOM      8  N   UNL     1     -12.385   7.359  20.694  0.00  0.00    -0.275 N 
ATOM     24  C   UNL     1     -13.726   7.000  20.708  0.00  0.00    +0.284 C 
ATOM     32  H   UNL     1     -11.845   7.231  21.546  0.00  0.00    +0.155 HD
BRANCH  24  28
ATOM      5  O   UNL     1     -15.282   6.579  22.463  0.00  0.00    -0.458 OA
ATOM     28  C   UNL     1     -14.162   6.179  21.867  0.00  0.00    +0.189 A 
ATOM     29  C   UNL     1     -13.595   5.095  22.401  0.00  0.00    +0.054 A 
ATOM     30  C   UNL     1     -14.451   4.750  23.474  0.00  0.00    +0.042 A 
ATOM     31  C   UNL     1     -15.463   5.683  23.470  0.00  0.00    +0.196 A 
ENDBRANCH  24  28
ENDBRANCH  19   8
TORSDOF 3
ENDMDL
