MODEL 1
REMARK VINA RESULT:      -5.2      0.000      0.000
REMARK  Name = 75537110
REMARK  3 active torsions:
REMARK  status: ('A' for Active; 'I' for Inactive)
REMARK    1  A    between atoms: N_3  and  C_13
REMARK    2  A    between atoms: N_4  and  C_14
REMARK    3  A    between atoms: C_13  and  C_15
REMARK                            x       y       z     vdW  Elec       q    Type
REMARK                         _______ _______ _______ _____ _____    ______ ____
ROOT
ATOM      1  O   UNL     1      10.883   8.095  19.609  0.00  0.00    -0.252 OA
ATOM      2  N   UNL     1      13.208   7.845  19.839  0.00  0.00    -0.278 N 
ATOM      3  N   UNL     1      15.772   8.065  20.973  0.00  0.00    -0.292 NA
ATOM      4  N   UNL     1      12.395   8.444  17.833  0.00  0.00    -0.287 N 
ATOM      7  C   UNL     1      14.363   7.853  18.966  0.00  0.00    +0.109 C 
ATOM      8  C   UNL     1      15.520   8.606  19.622  0.00  0.00    +0.109 C 
ATOM      9  C   UNL     1      13.839   8.478  17.676  0.00  0.00    +0.132 C 
ATOM     10  C   UNL     1      13.371   7.472  21.228  0.00  0.00    +0.125 C 
ATOM     11  C   UNL     1      14.575   8.204  21.828  0.00  0.00    +0.104 C 
ATOM     12  C   UNL     1      12.017   8.121  19.151  0.00  0.00    +0.305 C 
ATOM     14  C   UNL     1      11.499   8.851  16.773  0.00  0.00    +0.133 C 
ENDROOT
BRANCH   3  13
ATOM     13  C   UNL     1      16.916   8.738  21.586  0.00  0.00    +0.158 C 
BRANCH  13  15
ATOM      5  N   UNL     1      19.033   7.913  22.642  0.00  0.00    -0.347 N 
ATOM      6  N   UNL     1      18.489   6.973  20.705  0.00  0.00    -0.239 NA
ATOM     15  C   UNL     1      18.137   7.858  21.611  0.00  0.00    +0.121 A 
ATOM     16  C   UNL     1      20.019   7.006  22.377  0.00  0.00    +0.104 A 
ATOM     17  C   UNL     1      19.662   6.437  21.177  0.00  0.00    +0.130 A 
ATOM     18  H   UNL     1      18.977   8.514  23.455  0.00  0.00    +0.167 HD
ENDBRANCH  13  15
ENDBRANCH   3  13
TORSDOF 2
ENDMDL
MODEL 2
REMARK VINA RESULT:      -5.1     13.194     16.553
REMARK  Name = 75537110
REMARK  3 active torsions:
REMARK  status: ('A' for Active; 'I' for Inactive)
REMARK    1  A    between atoms: N_3  and  C_13
REMARK    2  A    between atoms: N_4  and  C_14
REMARK    3  A    between atoms: C_13  and  C_15
REMARK                            x       y       z     vdW  Elec       q    Type
REMARK                         _______ _______ _______ _____ _____    ______ ____
ROOT
ATOM      1  O   UNL     1       8.605   7.659   8.479  0.00  0.00    -0.252 OA
ATOM      2  N   UNL     1       9.849   6.591   6.796  0.00  0.00    -0.278 N 
ATOM      3  N   UNL     1      10.618   5.774   4.218  0.00  0.00    -0.292 NA
ATOM      4  N   UNL     1       9.363   5.433   8.658  0.00  0.00    -0.287 N 
ATOM      7  C   UNL     1      10.555   5.336   6.639  0.00  0.00    +0.109 C 
ATOM      8  C   UNL     1      10.308   4.759   5.245  0.00  0.00    +0.109 C 
ATOM      9  C   UNL     1      10.033   4.480   7.791  0.00  0.00    +0.132 C 
ATOM     10  C   UNL     1       9.965   7.604   5.769  0.00  0.00    +0.125 C 
ATOM     11  C   UNL     1       9.770   6.971   4.388  0.00  0.00    +0.104 C 
ATOM     12  C   UNL     1       9.200   6.686   8.036  0.00  0.00    +0.305 C 
ATOM     14  C   UNL     1       8.812   5.047   9.939  0.00  0.00    +0.133 C 
ENDROOT
BRANCH   3  13
ATOM     13  C   UNL     1      10.442   5.212   2.879  0.00  0.00    +0.158 C 
BRANCH  13  15
ATOM      5  N   UNL     1      12.870   5.299   2.269  0.00  0.00    -0.347 N 
ATOM      6  N   UNL     1      11.866   3.343   1.960  0.00  0.00    -0.239 NA
ATOM     15  C   UNL     1      11.710   4.584   2.364  0.00  0.00    +0.121 A 
ATOM     16  C   UNL     1      13.829   4.461   1.773  0.00  0.00    +0.104 A 
ATOM     17  C   UNL     1      13.185   3.259   1.591  0.00  0.00    +0.130 A 
ATOM     18  H   UNL     1      12.999   6.271   2.520  0.00  0.00    +0.167 HD
ENDBRANCH  13  15
ENDBRANCH   3  13
TORSDOF 2
ENDMDL
MODEL 3
REMARK VINA RESULT:      -5.1     26.225     28.444
REMARK  Name = 75537110
REMARK  3 active torsions:
REMARK  status: ('A' for Active; 'I' for Inactive)
REMARK    1  A    between atoms: N_3  and  C_13
REMARK    2  A    between atoms: N_4  and  C_14
REMARK    3  A    between atoms: C_13  and  C_15
REMARK                            x       y       z     vdW  Elec       q    Type
REMARK                         _______ _______ _______ _____ _____    ______ ____
ROOT
ATOM      1  O   UNL     1      -9.750  -9.395  17.672  0.00  0.00    -0.252 OA
ATOM      2  N   UNL     1      -7.519 -10.126  17.769  0.00  0.00    -0.278 N 
ATOM      3  N   UNL     1      -5.021 -11.061  16.878  0.00  0.00    -0.292 NA
ATOM      4  N   UNL     1      -8.967 -10.923  19.289  0.00  0.00    -0.287 N 
ATOM      7  C   UNL     1      -6.705 -10.918  18.667  0.00  0.00    +0.109 C 
ATOM      8  C   UNL     1      -5.783 -11.843  17.873  0.00  0.00    +0.109 C 
ATOM      9  C   UNL     1      -7.727 -11.633  19.549  0.00  0.00    +0.132 C 
ATOM     10  C   UNL     1      -6.889  -9.434  16.665  0.00  0.00    +0.125 C 
ATOM     11  C   UNL     1      -5.931 -10.380  15.934  0.00  0.00    +0.104 C 
ATOM     12  C   UNL     1      -8.858 -10.060  18.181  0.00  0.00    +0.305 C 
ATOM     14  C   UNL     1     -10.184 -11.217  20.014  0.00  0.00    +0.133 C 
ENDROOT
BRANCH   3  13
ATOM     13  C   UNL     1      -4.092 -11.927  16.153  0.00  0.00    +0.158 C 
BRANCH  13  15
ATOM      5  N   UNL     1      -1.778 -11.034  16.503  0.00  0.00    -0.347 N 
ATOM      6  N   UNL     1      -2.694 -10.596  14.528  0.00  0.00    -0.239 NA
ATOM     15  C   UNL     1      -2.869 -11.178  15.693  0.00  0.00    +0.121 A 
ATOM     16  C   UNL     1      -0.846 -10.314  15.810  0.00  0.00    +0.104 A 
ATOM     17  C   UNL     1      -1.434 -10.055  14.594  0.00  0.00    +0.130 A 
ATOM     18  H   UNL     1      -1.676 -11.395  17.443  0.00  0.00    +0.167 HD
ENDBRANCH  13  15
ENDBRANCH   3  13
TORSDOF 2
ENDMDL
MODEL 4
REMARK VINA RESULT:      -5.1      4.906      6.804
REMARK  Name = 75537110
REMARK  3 active torsions:
REMARK  status: ('A' for Active; 'I' for Inactive)
REMARK    1  A    between atoms: N_3  and  C_13
REMARK    2  A    between atoms: N_4  and  C_14
REMARK    3  A    between atoms: C_13  and  C_15
REMARK                            x       y       z     vdW  Elec       q    Type
REMARK                         _______ _______ _______ _____ _____    ______ ____
ROOT
ATOM      1  O   UNL     1      13.890   9.744  18.924  0.00  0.00    -0.252 OA
ATOM      2  N   UNL     1      12.285  10.004  20.621  0.00  0.00    -0.278 N 
ATOM      3  N   UNL     1      11.186  10.727  23.106  0.00  0.00    -0.292 NA
ATOM      4  N   UNL     1      12.370   8.044  19.527  0.00  0.00    -0.287 N 
ATOM      7  C   UNL     1      11.162   9.250  21.138  0.00  0.00    +0.109 C 
ATOM      8  C   UNL     1      11.133   9.318  22.664  0.00  0.00    +0.109 C 
ATOM      9  C   UNL     1      11.368   7.851  20.560  0.00  0.00    +0.132 C 
ATOM     10  C   UNL     1      12.517  11.350  21.101  0.00  0.00    +0.125 C 
ATOM     11  C   UNL     1      12.421  11.382  22.629  0.00  0.00    +0.104 C 
ATOM     12  C   UNL     1      12.964   9.320  19.602  0.00  0.00    +0.305 C 
ATOM     14  C   UNL     1      12.782   6.971  18.649  0.00  0.00    +0.133 C 
ENDROOT
BRANCH   3  13
ATOM     13  C   UNL     1      11.098  10.806  24.564  0.00  0.00    +0.158 C 
BRANCH  13  15
ATOM      5  N   UNL     1      12.009  12.722  25.895  0.00  0.00    -0.347 N 
ATOM      6  N   UNL     1      10.160  13.142  24.740  0.00  0.00    -0.239 NA
ATOM     15  C   UNL     1      11.057  12.232  25.046  0.00  0.00    +0.121 A 
ATOM     16  C   UNL     1      11.700  14.030  26.146  0.00  0.00    +0.104 A 
ATOM     17  C   UNL     1      10.555  14.266  25.422  0.00  0.00    +0.130 A 
ATOM     18  H   UNL     1      12.800  12.214  26.270  0.00  0.00    +0.167 HD
ENDBRANCH  13  15
ENDBRANCH   3  13
TORSDOF 2
ENDMDL
MODEL 5
REMARK VINA RESULT:      -5.0      4.079      6.465
REMARK  Name = 75537110
REMARK  3 active torsions:
REMARK  status: ('A' for Active; 'I' for Inactive)
REMARK    1  A    between atoms: N_3  and  C_13
REMARK    2  A    between atoms: N_4  and  C_14
REMARK    3  A    between atoms: C_13  and  C_15
REMARK                            x       y       z     vdW  Elec       q    Type
REMARK                         _______ _______ _______ _____ _____    ______ ____
ROOT
ATOM      1  O   UNL     1      16.938   8.838  20.684  0.00  0.00    -0.252 OA
ATOM      2  N   UNL     1      14.616   9.140  20.874  0.00  0.00    -0.278 N 
ATOM      3  N   UNL     1      12.133   9.729  22.056  0.00  0.00    -0.292 NA
ATOM      4  N   UNL     1      15.368   7.328  19.781  0.00  0.00    -0.287 N 
ATOM      7  C   UNL     1      13.421   8.508  20.351  0.00  0.00    +0.109 C 
ATOM      8  C   UNL     1      12.354   8.405  21.440  0.00  0.00    +0.109 C 
ATOM      9  C   UNL     1      13.924   7.170  19.815  0.00  0.00    +0.132 C 
ATOM     10  C   UNL     1      14.496  10.371  21.625  0.00  0.00    +0.125 C 
ATOM     11  C   UNL     1      13.377  10.243  22.664  0.00  0.00    +0.104 C 
ATOM     12  C   UNL     1      15.787   8.483  20.470  0.00  0.00    +0.305 C 
ATOM     14  C   UNL     1      16.236   6.312  19.227  0.00  0.00    +0.133 C 
ENDROOT
BRANCH   3  13
ATOM     13  C   UNL     1      11.070   9.653  23.058  0.00  0.00    +0.158 C 
BRANCH  13  15
ATOM      5  N   UNL     1      10.459  12.077  23.208  0.00  0.00    -0.347 N 
ATOM      6  N   UNL     1      11.200  11.151  25.085  0.00  0.00    -0.239 NA
ATOM     15  C   UNL     1      10.922  10.945  23.817  0.00  0.00    +0.121 A 
ATOM     16  C   UNL     1      10.439  13.069  24.148  0.00  0.00    +0.104 A 
ATOM     17  C   UNL     1      10.900  12.473  25.298  0.00  0.00    +0.130 A 
ATOM     18  H   UNL     1      10.180  12.168  22.239  0.00  0.00    +0.167 HD
ENDBRANCH  13  15
ENDBRANCH   3  13
TORSDOF 2
ENDMDL
MODEL 6
REMARK VINA RESULT:      -5.0      3.046      6.586
REMARK  Name = 75537110
REMARK  3 active torsions:
REMARK  status: ('A' for Active; 'I' for Inactive)
REMARK    1  A    between atoms: N_3  and  C_13
REMARK    2  A    between atoms: N_4  and  C_14
REMARK    3  A    between atoms: C_13  and  C_15
REMARK                            x       y       z     vdW  Elec       q    Type
REMARK                         _______ _______ _______ _____ _____    ______ ____
ROOT
ATOM      1  O   UNL     1      21.224   7.700  21.101  0.00  0.00    -0.252 OA
ATOM      2  N   UNL     1      18.885   7.490  21.035  0.00  0.00    -0.278 N 
ATOM      3  N   UNL     1      16.332   6.874  20.029  0.00  0.00    -0.292 NA
ATOM      4  N   UNL     1      19.761   9.391  21.851  0.00  0.00    -0.287 N 
ATOM      7  C   UNL     1      17.742   8.242  21.511  0.00  0.00    +0.109 C 
ATOM      8  C   UNL     1      16.637   8.255  20.456  0.00  0.00    +0.109 C 
ATOM      9  C   UNL     1      18.325   9.613  21.848  0.00  0.00    +0.132 C 
ATOM     10  C   UNL     1      18.680   6.179  20.457  0.00  0.00    +0.125 C 
ATOM     11  C   UNL     1      17.527   6.226  19.451  0.00  0.00    +0.104 C 
ATOM     12  C   UNL     1      20.099   8.136  21.306  0.00  0.00    +0.305 C 
ATOM     14  C   UNL     1      20.695  10.426  22.235  0.00  0.00    +0.133 C 
ENDROOT
BRANCH   3  13
ATOM     13  C   UNL     1      15.233   6.871  19.063  0.00  0.00    +0.158 C 
BRANCH  13  15
ATOM      5  N   UNL     1      13.655   6.407  20.952  0.00  0.00    -0.347 N 
ATOM      6  N   UNL     1      12.835   7.623  19.284  0.00  0.00    -0.239 NA
ATOM     15  C   UNL     1      13.893   6.989  19.738  0.00  0.00    +0.121 A 
ATOM     16  C   UNL     1      12.362   6.689  21.295  0.00  0.00    +0.104 A 
ATOM     17  C   UNL     1      11.877   7.441  20.250  0.00  0.00    +0.130 A 
ATOM     18  H   UNL     1      14.313   5.867  21.499  0.00  0.00    +0.167 HD
ENDBRANCH  13  15
ENDBRANCH   3  13
TORSDOF 2
ENDMDL
MODEL 7
REMARK VINA RESULT:      -5.0      3.858      5.454
REMARK  Name = 75537110
REMARK  3 active torsions:
REMARK  status: ('A' for Active; 'I' for Inactive)
REMARK    1  A    between atoms: N_3  and  C_13
REMARK    2  A    between atoms: N_4  and  C_14
REMARK    3  A    between atoms: C_13  and  C_15
REMARK                            x       y       z     vdW  Elec       q    Type
REMARK                         _______ _______ _______ _____ _____    ______ ____
ROOT
ATOM      1  O   UNL     1      16.103  12.417  16.753  0.00  0.00    -0.252 OA
ATOM      2  N   UNL     1      14.706  10.741  17.627  0.00  0.00    -0.278 N 
ATOM      3  N   UNL     1      13.808   8.706  19.347  0.00  0.00    -0.292 NA
ATOM      4  N   UNL     1      15.046  10.793  15.407  0.00  0.00    -0.287 N 
ATOM      7  C   UNL     1      13.833   9.712  17.101  0.00  0.00    +0.109 C 
ATOM      8  C   UNL     1      13.984   8.423  17.908  0.00  0.00    +0.109 C 
ATOM      9  C   UNL     1      14.243   9.604  15.634  0.00  0.00    +0.132 C 
ATOM     10  C   UNL     1      14.721  10.999  19.051  0.00  0.00    +0.125 C 
ATOM     11  C   UNL     1      14.814   9.678  19.820  0.00  0.00    +0.104 C 
ATOM     12  C   UNL     1      15.375  11.443  16.614  0.00  0.00    +0.305 C 
ATOM     14  C   UNL     1      15.552  11.137  14.097  0.00  0.00    +0.133 C 
ENDROOT
BRANCH   3  13
ATOM     13  C   UNL     1      13.891   7.469  20.123  0.00  0.00    +0.158 C 
BRANCH  13  15
ATOM      5  N   UNL     1      12.260   5.856  21.131  0.00  0.00    -0.347 N 
ATOM      6  N   UNL     1      11.638   7.988  21.133  0.00  0.00    -0.239 NA
ATOM     15  C   UNL     1      12.585   7.141  20.797  0.00  0.00    +0.121 A 
ATOM     16  C   UNL     1      11.027   5.885  21.719  0.00  0.00    +0.104 A 
ATOM     17  C   UNL     1      10.664   7.211  21.710  0.00  0.00    +0.130 A 
ATOM     18  H   UNL     1      12.828   5.033  20.974  0.00  0.00    +0.167 HD
ENDBRANCH  13  15
ENDBRANCH   3  13
TORSDOF 2
ENDMDL
MODEL 8
REMARK VINA RESULT:      -5.0     26.335     28.017
REMARK  Name = 75537110
REMARK  3 active torsions:
REMARK  status: ('A' for Active; 'I' for Inactive)
REMARK    1  A    between atoms: N_3  and  C_13
REMARK    2  A    between atoms: N_4  and  C_14
REMARK    3  A    between atoms: C_13  and  C_15
REMARK                            x       y       z     vdW  Elec       q    Type
REMARK                         _______ _______ _______ _____ _____    ______ ____
ROOT
ATOM      1  O   UNL     1      -7.753 -10.889  19.851  0.00  0.00    -0.252 OA
ATOM      2  N   UNL     1      -6.223 -11.210  18.097  0.00  0.00    -0.278 N 
ATOM      3  N   UNL     1      -3.751 -11.347  16.762  0.00  0.00    -0.292 NA
ATOM      4  N   UNL     1      -8.097 -10.046  17.675  0.00  0.00    -0.287 N 
ATOM      7  C   UNL     1      -6.179 -10.954  16.672  0.00  0.00    +0.109 C 
ATOM      8  C   UNL     1      -4.801 -10.434  16.266  0.00  0.00    +0.109 C 
ATOM      9  C   UNL     1      -7.329  -9.976  16.444  0.00  0.00    +0.132 C 
ATOM     10  C   UNL     1      -5.159 -11.973  18.713  0.00  0.00    +0.125 C 
ATOM     11  C   UNL     1      -3.799 -11.456  18.234  0.00  0.00    +0.104 C 
ATOM     12  C   UNL     1      -7.403 -10.738  18.688  0.00  0.00    +0.305 C 
ATOM     14  C   UNL     1      -9.349  -9.341  17.838  0.00  0.00    +0.133 C 
ENDROOT
BRANCH   3  13
ATOM     13  C   UNL     1      -2.432 -10.890  16.328  0.00  0.00    +0.158 C 
BRANCH  13  15
ATOM      5  N   UNL     1      -1.901 -10.001  14.047  0.00  0.00    -0.347 N 
ATOM      6  N   UNL     1      -2.365 -12.170  14.155  0.00  0.00    -0.239 NA
ATOM     15  C   UNL     1      -2.240 -11.058  14.844  0.00  0.00    +0.121 A 
ATOM     16  C   UNL     1      -1.803 -10.468  12.767  0.00  0.00    +0.104 A 
ATOM     17  C   UNL     1      -2.093 -11.810  12.858  0.00  0.00    +0.130 A 
ATOM     18  H   UNL     1      -1.748  -9.046  14.347  0.00  0.00    +0.167 HD
ENDBRANCH  13  15
ENDBRANCH   3  13
TORSDOF 2
ENDMDL
MODEL 9
REMARK VINA RESULT:      -4.8      4.819      7.032
REMARK  Name = 75537110
REMARK  3 active torsions:
REMARK  status: ('A' for Active; 'I' for Inactive)
REMARK    1  A    between atoms: N_3  and  C_13
REMARK    2  A    between atoms: N_4  and  C_14
REMARK    3  A    between atoms: C_13  and  C_15
REMARK                            x       y       z     vdW  Elec       q    Type
REMARK                         _______ _______ _______ _____ _____    ______ ____
ROOT
ATOM      1  O   UNL     1      12.525  14.664  23.417  0.00  0.00    -0.252 OA
ATOM      2  N   UNL     1      12.235  12.341  23.218  0.00  0.00    -0.278 N 
ATOM      3  N   UNL     1      11.651   9.861  22.026  0.00  0.00    -0.292 NA
ATOM      4  N   UNL     1      11.413  13.364  25.041  0.00  0.00    -0.287 N 
ATOM      7  C   UNL     1      11.740  11.262  24.048  0.00  0.00    +0.109 C 
ATOM      8  C   UNL     1      10.894  10.297  23.218  0.00  0.00    +0.109 C 
ATOM      9  C   UNL     1      10.985  11.981  25.164  0.00  0.00    +0.132 C 
ATOM     10  C   UNL     1      12.864  12.030  21.952  0.00  0.00    +0.125 C 
ATOM     11  C   UNL     1      12.014  11.017  21.181  0.00  0.00    +0.104 C 
ATOM     12  C   UNL     1      12.113  13.592  23.840  0.00  0.00    +0.305 C 
ATOM     14  C   UNL     1      11.009  14.378  25.989  0.00  0.00    +0.133 C 
ENDROOT
BRANCH   3  13
ATOM     13  C   UNL     1      10.874   8.891  21.256  0.00  0.00    +0.158 C 
BRANCH  13  15
ATOM      5  N   UNL     1      12.849   7.500  20.593  0.00  0.00    -0.347 N 
ATOM      6  N   UNL     1      11.505   8.122  18.938  0.00  0.00    -0.239 NA
ATOM     15  C   UNL     1      11.720   8.181  20.233  0.00  0.00    +0.121 A 
ATOM     16  C   UNL     1      13.389   6.972  19.454  0.00  0.00    +0.104 A 
ATOM     17  C   UNL     1      12.542   7.369  18.445  0.00  0.00    +0.130 A 
ATOM     18  H   UNL     1      13.219   7.402  21.530  0.00  0.00    +0.167 HD
ENDBRANCH  13  15
ENDBRANCH   3  13
TORSDOF 2
ENDMDL
MODEL 10
REMARK VINA RESULT:      -4.8     26.903     28.582
REMARK  Name = 75537110
REMARK  3 active torsions:
REMARK  status: ('A' for Active; 'I' for Inactive)
REMARK    1  A    between atoms: N_3  and  C_13
REMARK    2  A    between atoms: N_4  and  C_14
REMARK    3  A    between atoms: C_13  and  C_15
REMARK                            x       y       z     vdW  Elec       q    Type
REMARK                         _______ _______ _______ _____ _____    ______ ____
ROOT
ATOM      1  O   UNL     1      -2.120 -10.932  15.685  0.00  0.00    -0.252 OA
ATOM      2  N   UNL     1      -3.097 -10.868  13.550  0.00  0.00    -0.278 N 
ATOM      3  N   UNL     1      -3.442 -10.200  10.840  0.00  0.00    -0.292 NA
ATOM      4  N   UNL     1      -4.433 -10.627  15.339  0.00  0.00    -0.287 N 
ATOM      7  C   UNL     1      -4.437 -10.830  13.001  0.00  0.00    +0.109 C 
ATOM      8  C   UNL     1      -4.499  -9.867  11.816  0.00  0.00    +0.109 C 
ATOM      9  C   UNL     1      -5.306 -10.438  14.194  0.00  0.00    +0.132 C 
ATOM     10  C   UNL     1      -1.970 -11.042  12.658  0.00  0.00    +0.125 C 
ATOM     11  C   UNL     1      -2.104 -10.101  11.457  0.00  0.00    +0.104 C 
ATOM     12  C   UNL     1      -3.093 -10.827  14.951  0.00  0.00    +0.305 C 
ATOM     14  C   UNL     1      -4.905 -10.467  16.697  0.00  0.00    +0.133 C 
ENDROOT
BRANCH   3  13
ATOM     13  C   UNL     1      -3.531  -9.323   9.673  0.00  0.00    +0.158 C 
BRANCH  13  15
ATOM      5  N   UNL     1      -5.498  -8.946   8.169  0.00  0.00    -0.347 N 
ATOM      6  N   UNL     1      -4.710 -11.022   8.229  0.00  0.00    -0.239 NA
ATOM     15  C   UNL     1      -4.567  -9.800   8.690  0.00  0.00    +0.121 A 
ATOM     16  C   UNL     1      -6.286  -9.670   7.319  0.00  0.00    +0.104 A 
ATOM     17  C   UNL     1      -5.781 -10.948   7.372  0.00  0.00    +0.130 A 
ATOM     18  H   UNL     1      -5.589  -7.959   8.372  0.00  0.00    +0.167 HD
ENDBRANCH  13  15
ENDBRANCH   3  13
TORSDOF 2
ENDMDL
