MODEL 1
REMARK VINA RESULT:      -6.8      0.000      0.000
REMARK  Name = 25338204
REMARK  4 active torsions:
REMARK  status: ('A' for Active; 'I' for Inactive)
REMARK    1  A    between atoms: O_3  and  C_9
REMARK    2  A    between atoms: N_5  and  C_8
REMARK    3  A    between atoms: N_6  and  C_10
REMARK    4  A    between atoms: N_7  and  C_20
REMARK                            x       y       z     vdW  Elec       q    Type
REMARK                         _______ _______ _______ _____ _____    ______ ____
ROOT
ATOM      1  O   UNL     1      12.240   6.976  19.220  0.00  0.00    -0.342 OA
ATOM      2  O   UNL     1      10.568   7.995  20.465  0.00  0.00    -0.347 OA
ATOM      8  C   UNL     1      12.177   9.385  19.313  0.00  0.00    +0.143 C 
ATOM      9  C   UNL     1      13.101   9.381  20.553  0.00  0.00    +0.159 C 
ATOM     10  C   UNL     1      13.611   7.975  20.934  0.00  0.00    +0.136 C 
ATOM     11  C   UNL     1      11.341   8.094  19.258  0.00  0.00    +0.270 C 
ATOM     12  C   UNL     1      12.607   6.853  20.598  0.00  0.00    +0.170 C 
ATOM     13  C   UNL     1      11.251   7.013  21.260  0.00  0.00    +0.196 C 
ENDROOT
BRANCH  10   6
ATOM      4  O   UNL     1      15.950   6.846  22.143  0.00  0.00    -0.252 OA
ATOM      6  N   UNL     1      14.877   7.710  20.286  0.00  0.00    -0.291 N 
ATOM      7  N   UNL     1      17.051   7.016  20.076  0.00  0.00    -0.269 N 
ATOM     19  C   UNL     1      15.972   7.154  20.953  0.00  0.00    +0.304 C 
ATOM     26  H   UNL     1      14.997   8.013  19.324  0.00  0.00    +0.151 HD
ATOM     28  H   UNL     1      16.903   7.321  19.118  0.00  0.00    +0.156 HD
BRANCH   7  20
ATOM     20  C   UNL     1      18.336   6.498  20.359  0.00  0.00    +0.035 A 
ATOM     21  C   UNL     1      18.734   5.280  19.803  0.00  0.00    +0.023 A 
ATOM     22  C   UNL     1      19.206   7.201  21.191  0.00  0.00    +0.023 A 
ATOM     23  C   UNL     1      20.001   4.768  20.081  0.00  0.00    +0.002 A 
ATOM     24  C   UNL     1      20.474   6.690  21.469  0.00  0.00    +0.002 A 
ATOM     25  C   UNL     1      20.871   5.473  20.914  0.00  0.00    +0.000 A 
ENDBRANCH   7  20
ENDBRANCH  10   6
BRANCH   8   5
ATOM      5  N   UNL     1      12.973   9.513  18.093  0.00  0.00    -0.293 NA
ATOM     14  C   UNL     1      13.661  10.812  18.060  0.00  0.00    +0.085 C 
ATOM     15  C   UNL     1      12.126   9.331  16.905  0.00  0.00    +0.085 C 
ATOM     16  C   UNL     1      14.537  10.941  16.813  0.00  0.00    +0.015 C 
ATOM     17  C   UNL     1      12.951   9.413  15.621  0.00  0.00    +0.015 C 
ATOM     18  C   UNL     1      13.726  10.723  15.541  0.00  0.00    +0.002 C 
ENDBRANCH   8   5
BRANCH   9   3
ATOM      3  O   UNL     1      12.356   9.917  21.655  0.00  0.00    -0.388 OA
ATOM     27  H   UNL     1      12.929   9.885  22.439  0.00  0.00    +0.210 HD
ENDBRANCH   9   3
TORSDOF 4
ENDMDL
MODEL 2
REMARK VINA RESULT:      -6.7      1.845      6.497
REMARK  Name = 25338204
REMARK  4 active torsions:
REMARK  status: ('A' for Active; 'I' for Inactive)
REMARK    1  A    between atoms: O_3  and  C_9
REMARK    2  A    between atoms: N_5  and  C_8
REMARK    3  A    between atoms: N_6  and  C_10
REMARK    4  A    between atoms: N_7  and  C_20
REMARK                            x       y       z     vdW  Elec       q    Type
REMARK                         _______ _______ _______ _____ _____    ______ ____
ROOT
ATOM      1  O   UNL     1      13.172   9.196  21.214  0.00  0.00    -0.342 OA
ATOM      2  O   UNL     1      11.779   7.413  21.727  0.00  0.00    -0.347 OA
ATOM      8  C   UNL     1      13.844   6.978  20.545  0.00  0.00    +0.143 C 
ATOM      9  C   UNL     1      13.128   7.150  19.186  0.00  0.00    +0.159 C 
ATOM     10  C   UNL     1      12.541   8.562  18.974  0.00  0.00    +0.136 C 
ATOM     11  C   UNL     1      13.153   7.823  21.631  0.00  0.00    +0.270 C 
ATOM     12  C   UNL     1      12.083   9.232  20.286  0.00  0.00    +0.170 C 
ATOM     13  C   UNL     1      11.039   8.443  21.055  0.00  0.00    +0.196 C 
ENDROOT
BRANCH  10   6
ATOM      4  O   UNL     1      12.354   9.588  16.306  0.00  0.00    -0.252 OA
ATOM      6  N   UNL     1      13.504   9.408  18.303  0.00  0.00    -0.291 N 
ATOM      7  N   UNL     1      14.420  10.657  16.615  0.00  0.00    -0.269 N 
ATOM     19  C   UNL     1      13.334   9.865  16.994  0.00  0.00    +0.304 C 
ATOM     26  H   UNL     1      14.378   9.613  18.779  0.00  0.00    +0.151 HD
ATOM     28  H   UNL     1      15.153  10.789  17.306  0.00  0.00    +0.156 HD
BRANCH   7  20
ATOM     20  C   UNL     1      14.630  11.305  15.375  0.00  0.00    +0.035 A 
ATOM     21  C   UNL     1      15.540  10.776  14.458  0.00  0.00    +0.023 A 
ATOM     22  C   UNL     1      13.930  12.471  15.068  0.00  0.00    +0.023 A 
ATOM     23  C   UNL     1      15.749  11.415  13.236  0.00  0.00    +0.002 A 
ATOM     24  C   UNL     1      14.138  13.110  13.846  0.00  0.00    +0.002 A 
ATOM     25  C   UNL     1      15.048  12.581  12.929  0.00  0.00    +0.000 A 
ENDBRANCH   7  20
ENDBRANCH  10   6
BRANCH   8   5
ATOM      5  N   UNL     1      15.247   7.374  20.427  0.00  0.00    -0.293 NA
ATOM     14  C   UNL     1      16.062   6.247  19.951  0.00  0.00    +0.085 C 
ATOM     15  C   UNL     1      15.746   7.883  21.713  0.00  0.00    +0.085 C 
ATOM     16  C   UNL     1      17.524   6.659  19.776  0.00  0.00    +0.015 C 
ATOM     17  C   UNL     1      17.199   8.347  21.596  0.00  0.00    +0.015 C 
ATOM     18  C   UNL     1      18.096   7.235  21.065  0.00  0.00    +0.002 C 
ENDBRANCH   8   5
BRANCH   9   3
ATOM      3  O   UNL     1      12.060   6.194  19.130  0.00  0.00    -0.388 OA
ATOM     27  H   UNL     1      11.325   6.604  18.645  0.00  0.00    +0.210 HD
ENDBRANCH   9   3
TORSDOF 4
ENDMDL
MODEL 3
REMARK VINA RESULT:      -6.7      3.451      6.798
REMARK  Name = 25338204
REMARK  4 active torsions:
REMARK  status: ('A' for Active; 'I' for Inactive)
REMARK    1  A    between atoms: O_3  and  C_9
REMARK    2  A    between atoms: N_5  and  C_8
REMARK    3  A    between atoms: N_6  and  C_10
REMARK    4  A    between atoms: N_7  and  C_20
REMARK                            x       y       z     vdW  Elec       q    Type
REMARK                         _______ _______ _______ _____ _____    ______ ____
ROOT
ATOM      1  O   UNL     1      12.098   7.361  19.339  0.00  0.00    -0.342 OA
ATOM      2  O   UNL     1      12.289   7.793  17.068  0.00  0.00    -0.347 OA
ATOM      8  C   UNL     1      14.116   8.404  18.530  0.00  0.00    +0.143 C 
ATOM      9  C   UNL     1      13.502   9.806  18.747  0.00  0.00    +0.159 C 
ATOM     10  C   UNL     1      12.113   9.771  19.420  0.00  0.00    +0.136 C 
ATOM     11  C   UNL     1      13.013   7.371  18.235  0.00  0.00    +0.270 C 
ATOM     12  C   UNL     1      11.296   8.512  19.061  0.00  0.00    +0.170 C 
ATOM     13  C   UNL     1      11.057   8.331  17.574  0.00  0.00    +0.196 C 
ENDROOT
BRANCH  10   6
ATOM      4  O   UNL     1      11.633  12.091  21.029  0.00  0.00    -0.252 OA
ATOM      6  N   UNL     1      12.252   9.871  20.857  0.00  0.00    -0.291 N 
ATOM      7  N   UNL     1      12.214  10.844  22.931  0.00  0.00    -0.269 N 
ATOM     19  C   UNL     1      11.996  11.047  21.566  0.00  0.00    +0.304 C 
ATOM     26  H   UNL     1      12.625   9.072  21.361  0.00  0.00    +0.151 HD
ATOM     28  H   UNL     1      12.515   9.915  23.213  0.00  0.00    +0.156 HD
BRANCH   7  20
ATOM     20  C   UNL     1      12.068  11.781  23.981  0.00  0.00    +0.035 A 
ATOM     21  C   UNL     1      10.796  12.226  24.346  0.00  0.00    +0.023 A 
ATOM     22  C   UNL     1      13.193  12.260  24.651  0.00  0.00    +0.023 A 
ATOM     23  C   UNL     1      10.651  13.150  25.381  0.00  0.00    +0.002 A 
ATOM     24  C   UNL     1      13.048  13.184  25.687  0.00  0.00    +0.002 A 
ATOM     25  C   UNL     1      11.777  13.629  26.051  0.00  0.00    +0.000 A 
ENDBRANCH   7  20
ENDBRANCH  10   6
BRANCH   8   5
ATOM      5  N   UNL     1      14.872   7.997  19.714  0.00  0.00    -0.293 NA
ATOM     14  C   UNL     1      15.764   9.080  20.152  0.00  0.00    +0.085 C 
ATOM     15  C   UNL     1      15.628   6.765  19.442  0.00  0.00    +0.085 C 
ATOM     16  C   UNL     1      16.527   8.689  21.419  0.00  0.00    +0.015 C 
ATOM     17  C   UNL     1      16.386   6.298  20.686  0.00  0.00    +0.015 C 
ATOM     18  C   UNL     1      17.303   7.393  21.220  0.00  0.00    +0.002 C 
ENDBRANCH   8   5
BRANCH   9   3
ATOM      3  O   UNL     1      13.377  10.432  17.463  0.00  0.00    -0.388 OA
ATOM     27  H   UNL     1      12.909   9.812  16.879  0.00  0.00    +0.210 HD
ENDBRANCH   9   3
TORSDOF 4
ENDMDL
MODEL 4
REMARK VINA RESULT:      -6.4      3.903      6.880
REMARK  Name = 25338204
REMARK  4 active torsions:
REMARK  status: ('A' for Active; 'I' for Inactive)
REMARK    1  A    between atoms: O_3  and  C_9
REMARK    2  A    between atoms: N_5  and  C_8
REMARK    3  A    between atoms: N_6  and  C_10
REMARK    4  A    between atoms: N_7  and  C_20
REMARK                            x       y       z     vdW  Elec       q    Type
REMARK                         _______ _______ _______ _____ _____    ______ ____
ROOT
ATOM      1  O   UNL     1      13.199   6.939  21.707  0.00  0.00    -0.342 OA
ATOM      2  O   UNL     1      12.199   6.252  19.729  0.00  0.00    -0.347 OA
ATOM      8  C   UNL     1      12.954   8.541  19.921  0.00  0.00    +0.143 C 
ATOM      9  C   UNL     1      11.575   8.973  20.471  0.00  0.00    +0.159 C 
ATOM     10  C   UNL     1      11.207   8.294  21.808  0.00  0.00    +0.136 C 
ATOM     11  C   UNL     1      13.243   7.072  20.279  0.00  0.00    +0.270 C 
ATOM     12  C   UNL     1      11.791   6.872  21.948  0.00  0.00    +0.170 C 
ATOM     13  C   UNL     1      11.366   5.916  20.849  0.00  0.00    +0.196 C 
ENDROOT
BRANCH  10   6
ATOM      4  O   UNL     1      10.728  11.096  22.159  0.00  0.00    -0.252 OA
ATOM      6  N   UNL     1      11.640   9.113  22.920  0.00  0.00    -0.291 N 
ATOM      7  N   UNL     1      11.904  11.002  24.189  0.00  0.00    -0.269 N 
ATOM     19  C   UNL     1      11.362  10.478  23.013  0.00  0.00    +0.304 C 
ATOM     26  H   UNL     1      12.238   8.690  23.624  0.00  0.00    +0.151 HD
ATOM     28  H   UNL     1      12.404  10.353  24.791  0.00  0.00    +0.156 HD
BRANCH   7  20
ATOM     20  C   UNL     1      11.845  12.338  24.652  0.00  0.00    +0.035 A 
ATOM     21  C   UNL     1      12.848  13.242  24.300  0.00  0.00    +0.023 A 
ATOM     22  C   UNL     1      10.786  12.751  25.459  0.00  0.00    +0.023 A 
ATOM     23  C   UNL     1      12.791  14.559  24.757  0.00  0.00    +0.002 A 
ATOM     24  C   UNL     1      10.728  14.068  25.916  0.00  0.00    +0.002 A 
ATOM     25  C   UNL     1      11.732  14.972  25.565  0.00  0.00    +0.000 A 
ENDBRANCH   7  20
ENDBRANCH  10   6
BRANCH   8   5
ATOM      5  N   UNL     1      14.004   9.400  20.468  0.00  0.00    -0.293 NA
ATOM     14  C   UNL     1      13.698  10.815  20.212  0.00  0.00    +0.085 C 
ATOM     15  C   UNL     1      15.313   9.032  19.907  0.00  0.00    +0.085 C 
ATOM     16  C   UNL     1      14.762  11.729  20.820  0.00  0.00    +0.015 C 
ATOM     17  C   UNL     1      16.430   9.888  20.505  0.00  0.00    +0.015 C 
ATOM     18  C   UNL     1      16.154  11.375  20.311  0.00  0.00    +0.002 C 
ENDBRANCH   8   5
BRANCH   9   3
ATOM      3  O   UNL     1      10.587   8.628  19.492  0.00  0.00    -0.388 OA
ATOM     27  H   UNL     1      10.713   7.692  19.264  0.00  0.00    +0.210 HD
ENDBRANCH   9   3
TORSDOF 4
ENDMDL
MODEL 5
REMARK VINA RESULT:      -6.2     13.138     16.400
REMARK  Name = 25338204
REMARK  4 active torsions:
REMARK  status: ('A' for Active; 'I' for Inactive)
REMARK    1  A    between atoms: O_3  and  C_9
REMARK    2  A    between atoms: N_5  and  C_8
REMARK    3  A    between atoms: N_6  and  C_10
REMARK    4  A    between atoms: N_7  and  C_20
REMARK                            x       y       z     vdW  Elec       q    Type
REMARK                         _______ _______ _______ _____ _____    ______ ____
ROOT
ATOM      1  O   UNL     1      10.245   8.281   5.660  0.00  0.00    -0.342 OA
ATOM      2  O   UNL     1       9.535   7.870   7.830  0.00  0.00    -0.347 OA
ATOM      8  C   UNL     1      11.893   7.692   7.320  0.00  0.00    +0.143 C 
ATOM      9  C   UNL     1      11.728   6.193   6.979  0.00  0.00    +0.159 C 
ATOM     10  C   UNL     1      10.782   5.934   5.787  0.00  0.00    +0.136 C 
ATOM     11  C   UNL     1      10.585   8.456   7.043  0.00  0.00    +0.270 C 
ATOM     12  C   UNL     1       9.653   6.979   5.670  0.00  0.00    +0.170 C 
ATOM     13  C   UNL     1       8.774   7.084   6.901  0.00  0.00    +0.196 C 
ENDROOT
BRANCH  10   6
ATOM      4  O   UNL     1      10.163   4.380   3.462  0.00  0.00    -0.252 OA
ATOM      6  N   UNL     1      11.536   5.886   4.553  0.00  0.00    -0.291 N 
ATOM      7  N   UNL     1      12.076   5.254   2.418  0.00  0.00    -0.269 N 
ATOM     19  C   UNL     1      11.161   5.097   3.463  0.00  0.00    +0.304 C 
ATOM     26  H   UNL     1      12.417   6.389   4.508  0.00  0.00    +0.151 HD
ATOM     28  H   UNL     1      12.852   5.889   2.581  0.00  0.00    +0.156 HD
BRANCH   7  20
ATOM     20  C   UNL     1      12.055   4.632   1.147  0.00  0.00    +0.035 A 
ATOM     21  C   UNL     1      11.029   4.922   0.247  0.00  0.00    +0.023 A 
ATOM     22  C   UNL     1      13.058   3.731   0.795  0.00  0.00    +0.023 A 
ATOM     23  C   UNL     1      11.008   4.308  -1.006  0.00  0.00    +0.002 A 
ATOM     24  C   UNL     1      13.038   3.117  -0.458  0.00  0.00    +0.002 A 
ATOM     25  C   UNL     1      12.011   3.406  -1.358  0.00  0.00    +0.000 A 
ENDBRANCH   7  20
ENDBRANCH  10   6
BRANCH   8   5
ATOM      5  N   UNL     1      12.981   8.270   6.531  0.00  0.00    -0.293 NA
ATOM     14  C   UNL     1      14.188   7.437   6.632  0.00  0.00    +0.085 C 
ATOM     15  C   UNL     1      13.251   9.649   6.963  0.00  0.00    +0.085 C 
ATOM     16  C   UNL     1      15.321   8.002   5.774  0.00  0.00    +0.015 C 
ATOM     17  C   UNL     1      14.353  10.287   6.116  0.00  0.00    +0.015 C 
ATOM     18  C   UNL     1      15.627   9.449   6.142  0.00  0.00    +0.002 C 
ENDBRANCH   8   5
BRANCH   9   3
ATOM      3  O   UNL     1      11.199   5.537   8.139  0.00  0.00    -0.388 OA
ATOM     27  H   UNL     1      10.765   4.720   7.842  0.00  0.00    +0.210 HD
ENDBRANCH   9   3
TORSDOF 4
ENDMDL
MODEL 6
REMARK VINA RESULT:      -6.1      3.965      5.536
REMARK  Name = 25338204
REMARK  4 active torsions:
REMARK  status: ('A' for Active; 'I' for Inactive)
REMARK    1  A    between atoms: O_3  and  C_9
REMARK    2  A    between atoms: N_5  and  C_8
REMARK    3  A    between atoms: N_6  and  C_10
REMARK    4  A    between atoms: N_7  and  C_20
REMARK                            x       y       z     vdW  Elec       q    Type
REMARK                         _______ _______ _______ _____ _____    ______ ____
ROOT
ATOM      1  O   UNL     1      10.448   8.913  20.674  0.00  0.00    -0.342 OA
ATOM      2  O   UNL     1      10.992   7.851  22.664  0.00  0.00    -0.347 OA
ATOM      8  C   UNL     1      12.045   9.965  22.142  0.00  0.00    +0.143 C 
ATOM      9  C   UNL     1      13.209   9.235  21.432  0.00  0.00    +0.159 C 
ATOM     10  C   UNL     1      12.760   8.411  20.206  0.00  0.00    +0.136 C 
ATOM     11  C   UNL     1      10.753   9.133  22.058  0.00  0.00    +0.270 C 
ATOM     12  C   UNL     1      11.334   7.838  20.349  0.00  0.00    +0.170 C 
ATOM     13  C   UNL     1      11.143   6.945  21.560  0.00  0.00    +0.196 C 
ENDROOT
BRANCH  10   6
ATOM      4  O   UNL     1      15.155   9.250  18.878  0.00  0.00    -0.252 OA
ATOM      6  N   UNL     1      12.847   9.214  19.006  0.00  0.00    -0.291 N 
ATOM      7  N   UNL     1      13.835  10.351  17.279  0.00  0.00    -0.269 N 
ATOM     19  C   UNL     1      14.062   9.579  18.421  0.00  0.00    +0.304 C 
ATOM     26  H   UNL     1      11.988   9.592  18.616  0.00  0.00    +0.151 HD
ATOM     28  H   UNL     1      12.865  10.535  17.037  0.00  0.00    +0.156 HD
BRANCH   7  20
ATOM     20  C   UNL     1      14.797  10.915  16.408  0.00  0.00    +0.035 A 
ATOM     21  C   UNL     1      15.590  11.979  16.842  0.00  0.00    +0.023 A 
ATOM     22  C   UNL     1      14.952  10.411  15.118  0.00  0.00    +0.023 A 
ATOM     23  C   UNL     1      16.537  12.537  15.984  0.00  0.00    +0.002 A 
ATOM     24  C   UNL     1      15.901  10.967  14.260  0.00  0.00    +0.002 A 
ATOM     25  C   UNL     1      16.693  12.031  14.693  0.00  0.00    +0.000 A 
ENDBRANCH   7  20
ENDBRANCH  10   6
BRANCH   8   5
ATOM      5  N   UNL     1      11.830  11.277  21.534  0.00  0.00    -0.293 NA
ATOM     14  C   UNL     1      13.115  11.935  21.258  0.00  0.00    +0.085 C 
ATOM     15  C   UNL     1      10.983  12.112  22.399  0.00  0.00    +0.085 C 
ATOM     16  C   UNL     1      12.908  13.288  20.576  0.00  0.00    +0.015 C 
ATOM     17  C   UNL     1      10.707  13.471  21.756  0.00  0.00    +0.015 C 
ATOM     18  C   UNL     1      12.003  14.192  21.404  0.00  0.00    +0.002 C 
ENDBRANCH   8   5
BRANCH   9   3
ATOM      3  O   UNL     1      13.816   8.352  22.384  0.00  0.00    -0.388 OA
ATOM     27  H   UNL     1      13.102   7.932  22.892  0.00  0.00    +0.210 HD
ENDBRANCH   9   3
TORSDOF 4
ENDMDL
MODEL 7
REMARK VINA RESULT:      -6.0      3.007      6.259
REMARK  Name = 25338204
REMARK  4 active torsions:
REMARK  status: ('A' for Active; 'I' for Inactive)
REMARK    1  A    between atoms: O_3  and  C_9
REMARK    2  A    between atoms: N_5  and  C_8
REMARK    3  A    between atoms: N_6  and  C_10
REMARK    4  A    between atoms: N_7  and  C_20
REMARK                            x       y       z     vdW  Elec       q    Type
REMARK                         _______ _______ _______ _____ _____    ______ ____
ROOT
ATOM      1  O   UNL     1      11.785   9.705  21.161  0.00  0.00    -0.342 OA
ATOM      2  O   UNL     1      11.688   7.527  21.953  0.00  0.00    -0.347 OA
ATOM      8  C   UNL     1      13.833   8.439  21.307  0.00  0.00    +0.143 C 
ATOM      9  C   UNL     1      13.642   7.925  19.862  0.00  0.00    +0.159 C 
ATOM     10  C   UNL     1      12.426   8.548  19.144  0.00  0.00    +0.136 C 
ATOM     11  C   UNL     1      12.471   8.732  21.962  0.00  0.00    +0.270 C 
ATOM     12  C   UNL     1      11.267   8.895  20.102  0.00  0.00    +0.170 C 
ATOM     13  C   UNL     1      10.739   7.712  20.892  0.00  0.00    +0.196 C 
ENDROOT
BRANCH  10   6
ATOM      4  O   UNL     1      13.635   8.631  16.549  0.00  0.00    -0.252 OA
ATOM      6  N   UNL     1      12.829   9.731  18.415  0.00  0.00    -0.291 N 
ATOM      7  N   UNL     1      13.696  10.973  16.696  0.00  0.00    -0.269 N 
ATOM     19  C   UNL     1      13.415   9.681  17.148  0.00  0.00    +0.304 C 
ATOM     26  H   UNL     1      12.753  10.632  18.879  0.00  0.00    +0.151 HD
ATOM     28  H   UNL     1      13.450  11.739  17.317  0.00  0.00    +0.156 HD
BRANCH   7  20
ATOM     20  C   UNL     1      14.289  11.352  15.468  0.00  0.00    +0.035 A 
ATOM     21  C   UNL     1      15.661  11.186  15.276  0.00  0.00    +0.023 A 
ATOM     22  C   UNL     1      13.503  11.892  14.451  0.00  0.00    +0.023 A 
ATOM     23  C   UNL     1      16.246  11.561  14.067  0.00  0.00    +0.002 A 
ATOM     24  C   UNL     1      14.088  12.266  13.241  0.00  0.00    +0.002 A 
ATOM     25  C   UNL     1      15.460  12.101  13.049  0.00  0.00    +0.000 A 
ENDBRANCH   7  20
ENDBRANCH  10   6
BRANCH   8   5
ATOM      5  N   UNL     1      14.652   9.651  21.305  0.00  0.00    -0.293 NA
ATOM     14  C   UNL     1      15.887   9.436  20.538  0.00  0.00    +0.085 C 
ATOM     15  C   UNL     1      14.950  10.072  22.682  0.00  0.00    +0.085 C 
ATOM     16  C   UNL     1      16.733  10.710  20.485  0.00  0.00    +0.015 C 
ATOM     17  C   UNL     1      15.765  11.366  22.700  0.00  0.00    +0.015 C 
ATOM     18  C   UNL     1      17.046  11.226  21.884  0.00  0.00    +0.002 C 
ENDBRANCH   8   5
BRANCH   9   3
ATOM      3  O   UNL     1      13.462   6.504  19.925  0.00  0.00    -0.388 OA
ATOM     27  H   UNL     1      14.104   6.100  19.317  0.00  0.00    +0.210 HD
ENDBRANCH   9   3
TORSDOF 4
ENDMDL
MODEL 8
REMARK VINA RESULT:      -6.0     27.883     29.430
REMARK  Name = 25338204
REMARK  4 active torsions:
REMARK  status: ('A' for Active; 'I' for Inactive)
REMARK    1  A    between atoms: O_3  and  C_9
REMARK    2  A    between atoms: N_5  and  C_8
REMARK    3  A    between atoms: N_6  and  C_10
REMARK    4  A    between atoms: N_7  and  C_20
REMARK                            x       y       z     vdW  Elec       q    Type
REMARK                         _______ _______ _______ _____ _____    ______ ____
ROOT
ATOM      1  O   UNL     1      -9.248  -8.248  16.870  0.00  0.00    -0.342 OA
ATOM      2  O   UNL     1     -11.198  -9.428  17.304  0.00  0.00    -0.347 OA
ATOM      8  C   UNL     1      -9.102 -10.631  17.206  0.00  0.00    +0.143 C 
ATOM      9  C   UNL     1      -9.287 -10.876  15.691  0.00  0.00    +0.159 C 
ATOM     10  C   UNL     1      -9.331  -9.576  14.860  0.00  0.00    +0.136 C 
ATOM     11  C   UNL     1      -9.802  -9.328  17.634  0.00  0.00    +0.270 C 
ATOM     12  C   UNL     1      -9.942  -8.385  15.627  0.00  0.00    +0.170 C 
ATOM     13  C   UNL     1     -11.355  -8.625  16.124  0.00  0.00    +0.196 C 
ENDROOT
BRANCH  10   6
ATOM      4  O   UNL     1      -8.168 -10.254  12.332  0.00  0.00    -0.252 OA
ATOM      6  N   UNL     1      -8.003  -9.233  14.399  0.00  0.00    -0.291 N 
ATOM      7  N   UNL     1      -6.207  -9.137  12.979  0.00  0.00    -0.269 N 
ATOM     19  C   UNL     1      -7.513  -9.606  13.145  0.00  0.00    +0.304 C 
ATOM     26  H   UNL     1      -7.374  -8.768  15.047  0.00  0.00    +0.151 HD
ATOM     28  H   UNL     1      -5.807  -8.614  13.754  0.00  0.00    +0.156 HD
BRANCH   7  20
ATOM     20  C   UNL     1      -5.362  -9.303  11.857  0.00  0.00    +0.035 A 
ATOM     21  C   UNL     1      -5.536  -8.496  10.730  0.00  0.00    +0.023 A 
ATOM     22  C   UNL     1      -4.358 -10.269  11.874  0.00  0.00    +0.023 A 
ATOM     23  C   UNL     1      -4.704  -8.659   9.622  0.00  0.00    +0.002 A 
ATOM     24  C   UNL     1      -3.526 -10.432  10.766  0.00  0.00    +0.002 A 
ATOM     25  C   UNL     1      -3.699  -9.626   9.640  0.00  0.00    +0.000 A 
ENDBRANCH   7  20
ENDBRANCH  10   6
BRANCH   8   5
ATOM      5  N   UNL     1      -7.678 -10.558  17.533  0.00  0.00    -0.293 NA
ATOM     14  C   UNL     1      -6.930 -11.598  16.812  0.00  0.00    +0.085 C 
ATOM     15  C   UNL     1      -7.478 -10.673  18.985  0.00  0.00    +0.085 C 
ATOM     16  C   UNL     1      -5.432 -11.504  17.105  0.00  0.00    +0.015 C 
ATOM     17  C   UNL     1      -5.998 -10.550  19.350  0.00  0.00    +0.015 C 
ATOM     18  C   UNL     1      -5.155 -11.576  18.601  0.00  0.00    +0.002 C 
ENDBRANCH   8   5
BRANCH   9   3
ATOM      3  O   UNL     1     -10.523 -11.581  15.511  0.00  0.00    -0.388 OA
ATOM     27  H   UNL     1     -10.346 -12.338  14.928  0.00  0.00    +0.210 HD
ENDBRANCH   9   3
TORSDOF 4
ENDMDL
MODEL 9
REMARK VINA RESULT:      -6.0      1.740      2.258
REMARK  Name = 25338204
REMARK  4 active torsions:
REMARK  status: ('A' for Active; 'I' for Inactive)
REMARK    1  A    between atoms: O_3  and  C_9
REMARK    2  A    between atoms: N_5  and  C_8
REMARK    3  A    between atoms: N_6  and  C_10
REMARK    4  A    between atoms: N_7  and  C_20
REMARK                            x       y       z     vdW  Elec       q    Type
REMARK                         _______ _______ _______ _____ _____    ______ ____
ROOT
ATOM      1  O   UNL     1      12.523   6.863  19.726  0.00  0.00    -0.342 OA
ATOM      2  O   UNL     1      10.543   7.703  20.596  0.00  0.00    -0.347 OA
ATOM      8  C   UNL     1      12.085   9.226  19.522  0.00  0.00    +0.143 C 
ATOM      9  C   UNL     1      12.793   9.494  20.869  0.00  0.00    +0.159 C 
ATOM     10  C   UNL     1      13.442   8.235  21.483  0.00  0.00    +0.136 C 
ATOM     11  C   UNL     1      11.471   7.814  19.504  0.00  0.00    +0.270 C 
ATOM     12  C   UNL     1      12.684   6.935  21.146  0.00  0.00    +0.170 C 
ATOM     13  C   UNL     1      11.233   6.930  21.589  0.00  0.00    +0.196 C 
ENDROOT
BRANCH  10   6
ATOM      4  O   UNL     1      15.661   9.778  22.431  0.00  0.00    -0.252 OA
ATOM      6  N   UNL     1      14.820   8.124  21.054  0.00  0.00    -0.291 N 
ATOM      7  N   UNL     1      17.062   8.590  20.970  0.00  0.00    -0.269 N 
ATOM     19  C   UNL     1      15.844   8.920  21.571  0.00  0.00    +0.304 C 
ATOM     26  H   UNL     1      15.035   7.493  20.288  0.00  0.00    +0.151 HD
ATOM     28  H   UNL     1      17.041   7.852  20.271  0.00  0.00    +0.156 HD
BRANCH   7  20
ATOM     20  C   UNL     1      18.333   9.161  21.214  0.00  0.00    +0.035 A 
ATOM     21  C   UNL     1      18.586  10.482  20.839  0.00  0.00    +0.023 A 
ATOM     22  C   UNL     1      19.331   8.407  21.827  0.00  0.00    +0.023 A 
ATOM     23  C   UNL     1      19.840  11.046  21.078  0.00  0.00    +0.002 A 
ATOM     24  C   UNL     1      20.585   8.971  22.067  0.00  0.00    +0.002 A 
ATOM     25  C   UNL     1      20.839  10.290  21.692  0.00  0.00    +0.000 A 
ENDBRANCH   7  20
ENDBRANCH  10   6
BRANCH   8   5
ATOM      5  N   UNL     1      13.034   9.367  18.418  0.00  0.00    -0.293 NA
ATOM     14  C   UNL     1      13.714  10.668  18.487  0.00  0.00    +0.085 C 
ATOM     15  C   UNL     1      12.350   9.195  17.127  0.00  0.00    +0.085 C 
ATOM     16  C   UNL     1      14.746  10.812  17.367  0.00  0.00    +0.015 C 
ATOM     17  C   UNL     1      13.337   9.291  15.963  0.00  0.00    +0.015 C 
ATOM     18  C   UNL     1      14.111  10.604  15.998  0.00  0.00    +0.002 C 
ENDBRANCH   8   5
BRANCH   9   3
ATOM      3  O   UNL     1      11.813  10.001  21.785  0.00  0.00    -0.388 OA
ATOM     27  H   UNL     1      11.271   9.250  22.079  0.00  0.00    +0.210 HD
ENDBRANCH   9   3
TORSDOF 4
ENDMDL
MODEL 10
REMARK VINA RESULT:      -5.9     26.203     29.648
REMARK  Name = 25338204
REMARK  4 active torsions:
REMARK  status: ('A' for Active; 'I' for Inactive)
REMARK    1  A    between atoms: O_3  and  C_9
REMARK    2  A    between atoms: N_5  and  C_8
REMARK    3  A    between atoms: N_6  and  C_10
REMARK    4  A    between atoms: N_7  and  C_20
REMARK                            x       y       z     vdW  Elec       q    Type
REMARK                         _______ _______ _______ _____ _____    ______ ____
ROOT
ATOM      1  O   UNL     1     -15.646   3.815  22.512  0.00  0.00    -0.342 OA
ATOM      2  O   UNL     1     -17.133   4.548  24.134  0.00  0.00    -0.347 OA
ATOM      8  C   UNL     1     -16.915   5.821  22.089  0.00  0.00    +0.143 C 
ATOM      9  C   UNL     1     -15.799   6.684  22.719  0.00  0.00    +0.159 C 
ATOM     10  C   UNL     1     -14.547   5.874  23.119  0.00  0.00    +0.136 C 
ATOM     11  C   UNL     1     -16.932   4.415  22.718  0.00  0.00    +0.270 C 
ATOM     12  C   UNL     1     -14.871   4.428  23.548  0.00  0.00    +0.170 C 
ATOM     13  C   UNL     1     -15.838   4.328  24.712  0.00  0.00    +0.196 C 
ENDROOT
BRANCH  10   6
ATOM      4  O   UNL     1     -13.428   8.153  21.794  0.00  0.00    -0.252 OA
ATOM      6  N   UNL     1     -13.593   5.860  22.031  0.00  0.00    -0.291 N 
ATOM      7  N   UNL     1     -12.198   6.702  20.420  0.00  0.00    -0.269 N 
ATOM     19  C   UNL     1     -13.097   7.024  21.439  0.00  0.00    +0.304 C 
ATOM     26  H   UNL     1     -13.333   4.963  21.630  0.00  0.00    +0.151 HD
ATOM     28  H   UNL     1     -12.032   5.713  20.252  0.00  0.00    +0.156 HD
BRANCH   7  20
ATOM     20  C   UNL     1     -11.481   7.588  19.582  0.00  0.00    +0.035 A 
ATOM     21  C   UNL     1     -11.376   7.323  18.215  0.00  0.00    +0.023 A 
ATOM     22  C   UNL     1     -10.880   8.725  20.119  0.00  0.00    +0.023 A 
ATOM     23  C   UNL     1     -10.669   8.196  17.389  0.00  0.00    +0.002 A 
ATOM     24  C   UNL     1     -10.174   9.599  19.293  0.00  0.00    +0.002 A 
ATOM     25  C   UNL     1     -10.068   9.334  17.927  0.00  0.00    +0.000 A 
ENDBRANCH   7  20
ENDBRANCH  10   6
BRANCH   8   5
ATOM      5  N   UNL     1     -16.714   5.715  20.644  0.00  0.00    -0.293 NA
ATOM     14  C   UNL     1     -16.648   7.050  20.034  0.00  0.00    +0.085 C 
ATOM     15  C   UNL     1     -17.781   4.906  20.035  0.00  0.00    +0.085 C 
ATOM     16  C   UNL     1     -16.389   6.958  18.530  0.00  0.00    +0.015 C 
ATOM     17  C   UNL     1     -17.559   4.744  18.530  0.00  0.00    +0.015 C 
ATOM     18  C   UNL     1     -17.438   6.097  17.838  0.00  0.00    +0.002 C 
ENDBRANCH   8   5
BRANCH   9   3
ATOM      3  O   UNL     1     -16.338   7.308  23.892  0.00  0.00    -0.388 OA
ATOM     27  H   UNL     1     -15.998   6.825  24.664  0.00  0.00    +0.210 HD
ENDBRANCH   9   3
TORSDOF 4
ENDMDL
