MODEL 1
REMARK VINA RESULT:      -7.0      0.000      0.000
REMARK  Name = 25314446
REMARK  6 active torsions:
REMARK  status: ('A' for Active; 'I' for Inactive)
REMARK    1  A    between atoms: S_1  and  C_11
REMARK    2  A    between atoms: S_1  and  C_15
REMARK    3  A    between atoms: O_4  and  C_10
REMARK    4  A    between atoms: N_6  and  C_8
REMARK    5  A    between atoms: N_7  and  C_18
REMARK    6  A    between atoms: C_18  and  C_22
REMARK                            x       y       z     vdW  Elec       q    Type
REMARK                         _______ _______ _______ _____ _____    ______ ____
ROOT
ATOM      2  O   UNL     1      12.267   9.356  21.351  0.00  0.00    -0.343 OA
ATOM      3  O   UNL     1      11.670   7.196  21.959  0.00  0.00    -0.347 OA
ATOM      8  C   UNL     1      11.862   8.433  19.159  0.00  0.00    +0.135 C 
ATOM      9  C   UNL     1      11.221   8.937  20.470  0.00  0.00    +0.170 C 
ATOM     10  C   UNL     1      12.991   7.397  19.378  0.00  0.00    +0.155 C 
ATOM     11  C   UNL     1      13.717   7.526  20.734  0.00  0.00    +0.138 C 
ATOM     12  C   UNL     1      12.781   8.099  21.809  0.00  0.00    +0.266 C 
ATOM     13  C   UNL     1      10.574   7.852  21.306  0.00  0.00    +0.196 C 
ENDROOT
BRANCH   8   6
ATOM      5  O   UNL     1      12.654   8.449  16.386  0.00  0.00    -0.253 OA
ATOM      6  N   UNL     1      12.363   9.563  18.401  0.00  0.00    -0.291 N 
ATOM      7  N   UNL     1      13.168  10.703  16.584  0.00  0.00    -0.296 N 
ATOM     14  C   UNL     1      12.721   9.474  17.063  0.00  0.00    +0.300 C 
ATOM     24  H   UNL     1      12.532  10.435  18.891  0.00  0.00    +0.151 HD
ATOM     26  H   UNL     1      13.208  11.491  17.222  0.00  0.00    +0.151 HD
BRANCH   7  18
ATOM     18  C   UNL     1      13.605  10.900  15.222  0.00  0.00    +0.132 C 
BRANCH  18  22
ATOM     22  C   UNL     1      15.096  10.965  15.192  0.00  0.00    -0.016 C 
ATOM     23  C   UNL     1      15.819  11.818  15.927  0.00  0.00    +0.005 C 
ENDBRANCH  18  22
ENDBRANCH   7  18
ENDBRANCH   8   6
BRANCH  10   4
ATOM      4  O   UNL     1      12.419   6.082  19.289  0.00  0.00    -0.389 OA
ATOM     25  H   UNL     1      11.594   6.085  19.804  0.00  0.00    +0.210 HD
ENDBRANCH  10   4
BRANCH  11   1
ATOM      1  S   UNL     1      15.197   8.589  20.569  0.00  0.00    -0.114 S 
BRANCH   1  15
ATOM     15  C   UNL     1      16.455   7.367  20.236  0.00  0.00    +0.008 A 
ATOM     16  C   UNL     1      17.590   7.295  21.043  0.00  0.00    +0.015 A 
ATOM     17  C   UNL     1      16.303   6.484  19.167  0.00  0.00    +0.015 A 
ATOM     19  C   UNL     1      18.572   6.340  20.783  0.00  0.00    +0.001 A 
ATOM     20  C   UNL     1      17.285   5.528  18.906  0.00  0.00    +0.001 A 
ATOM     21  C   UNL     1      18.420   5.457  19.714  0.00  0.00    +0.000 A 
ENDBRANCH   1  15
ENDBRANCH  11   1
TORSDOF 6
ENDMDL
MODEL 2
REMARK VINA RESULT:      -6.7      2.940      4.940
REMARK  Name = 25314446
REMARK  6 active torsions:
REMARK  status: ('A' for Active; 'I' for Inactive)
REMARK    1  A    between atoms: S_1  and  C_11
REMARK    2  A    between atoms: S_1  and  C_15
REMARK    3  A    between atoms: O_4  and  C_10
REMARK    4  A    between atoms: N_6  and  C_8
REMARK    5  A    between atoms: N_7  and  C_18
REMARK    6  A    between atoms: C_18  and  C_22
REMARK                            x       y       z     vdW  Elec       q    Type
REMARK                         _______ _______ _______ _____ _____    ______ ____
ROOT
ATOM      2  O   UNL     1      11.514   7.333  20.406  0.00  0.00    -0.343 OA
ATOM      3  O   UNL     1      12.000   7.765  18.177  0.00  0.00    -0.347 OA
ATOM      8  C   UNL     1      11.944   9.702  20.554  0.00  0.00    +0.135 C 
ATOM      9  C   UNL     1      10.957   8.611  20.086  0.00  0.00    +0.170 C 
ATOM     10  C   UNL     1      13.395   9.478  20.066  0.00  0.00    +0.155 C 
ATOM     11  C   UNL     1      13.757   7.999  19.808  0.00  0.00    +0.138 C 
ATOM     12  C   UNL     1      12.518   7.192  19.392  0.00  0.00    +0.266 C 
ATOM     13  C   UNL     1      10.829   8.488  18.582  0.00  0.00    +0.196 C 
ENDROOT
BRANCH   8   6
ATOM      5  O   UNL     1      12.277  12.080  22.152  0.00  0.00    -0.253 OA
ATOM      6  N   UNL     1      11.914   9.793  22.001  0.00  0.00    -0.291 N 
ATOM      7  N   UNL     1      12.010  10.789  24.062  0.00  0.00    -0.296 N 
ATOM     14  C   UNL     1      12.085  10.988  22.685  0.00  0.00    +0.300 C 
ATOM     24  H   UNL     1      11.842   8.933  22.536  0.00  0.00    +0.151 HD
ATOM     26  H   UNL     1      11.869   9.847  24.412  0.00  0.00    +0.151 HD
BRANCH   7  18
ATOM     18  C   UNL     1      12.154  11.863  25.016  0.00  0.00    +0.132 C 
BRANCH  18  22
ATOM     22  C   UNL     1      10.803  12.403  25.350  0.00  0.00    -0.016 C 
ATOM     23  C   UNL     1      10.474  13.697  25.260  0.00  0.00    +0.005 C 
ENDBRANCH  18  22
ENDBRANCH   7  18
ENDBRANCH   8   6
BRANCH  10   4
ATOM      4  O   UNL     1      13.579  10.213  18.845  0.00  0.00    -0.389 OA
ATOM     25  H   UNL     1      12.704  10.327  18.437  0.00  0.00    +0.210 HD
ENDBRANCH  10   4
BRANCH  11   1
ATOM      1  S   UNL     1      14.511   7.255  21.299  0.00  0.00    -0.114 S 
BRANCH   1  15
ATOM     15  C   UNL     1      16.075   6.695  20.644  0.00  0.00    +0.008 A 
ATOM     16  C   UNL     1      17.223   6.755  21.432  0.00  0.00    +0.015 A 
ATOM     17  C   UNL     1      16.147   6.197  19.343  0.00  0.00    +0.015 A 
ATOM     19  C   UNL     1      18.445   6.317  20.921  0.00  0.00    +0.001 A 
ATOM     20  C   UNL     1      17.368   5.758  18.831  0.00  0.00    +0.001 A 
ATOM     21  C   UNL     1      18.517   5.819  19.620  0.00  0.00    +0.000 A 
ENDBRANCH   1  15
ENDBRANCH  11   1
TORSDOF 6
ENDMDL
MODEL 3
REMARK VINA RESULT:      -6.6      2.955      4.773
REMARK  Name = 25314446
REMARK  6 active torsions:
REMARK  status: ('A' for Active; 'I' for Inactive)
REMARK    1  A    between atoms: S_1  and  C_11
REMARK    2  A    between atoms: S_1  and  C_15
REMARK    3  A    between atoms: O_4  and  C_10
REMARK    4  A    between atoms: N_6  and  C_8
REMARK    5  A    between atoms: N_7  and  C_18
REMARK    6  A    between atoms: C_18  and  C_22
REMARK                            x       y       z     vdW  Elec       q    Type
REMARK                         _______ _______ _______ _____ _____    ______ ____
ROOT
ATOM      2  O   UNL     1      12.942   7.836  21.941  0.00  0.00    -0.343 OA
ATOM      3  O   UNL     1      11.804   6.306  20.617  0.00  0.00    -0.347 OA
ATOM      8  C   UNL     1      11.152   9.252  21.161  0.00  0.00    +0.135 C 
ATOM      9  C   UNL     1      11.543   8.090  22.098  0.00  0.00    +0.170 C 
ATOM     10  C   UNL     1      11.623   9.058  19.700  0.00  0.00    +0.155 C 
ATOM     11  C   UNL     1      12.883   8.177  19.551  0.00  0.00    +0.138 C 
ATOM     12  C   UNL     1      12.972   7.145  20.685  0.00  0.00    +0.266 C 
ATOM     13  C   UNL     1      10.971   6.746  21.699  0.00  0.00    +0.196 C 
ENDROOT
BRANCH   8   6
ATOM      5  O   UNL     1      10.448  10.507  23.661  0.00  0.00    -0.253 OA
ATOM      6  N   UNL     1      11.674  10.497  21.691  0.00  0.00    -0.291 N 
ATOM      7  N   UNL     1      11.929  12.225  23.175  0.00  0.00    -0.296 N 
ATOM     14  C   UNL     1      11.273  11.025  22.911  0.00  0.00    +0.300 C 
ATOM     24  H   UNL     1      12.301  11.043  21.108  0.00  0.00    +0.151 HD
ATOM     26  H   UNL     1      12.581  12.587  22.485  0.00  0.00    +0.151 HD
BRANCH   7  18
ATOM     18  C   UNL     1      11.703  12.992  24.376  0.00  0.00    +0.132 C 
BRANCH  18  22
ATOM     22  C   UNL     1      10.988  14.254  24.022  0.00  0.00    -0.016 C 
ATOM     23  C   UNL     1       9.757  14.292  23.500  0.00  0.00    +0.005 C 
ENDBRANCH  18  22
ENDBRANCH   7  18
ENDBRANCH   8   6
BRANCH  10   4
ATOM      4  O   UNL     1      10.552   8.453  18.958  0.00  0.00    -0.389 OA
ATOM     25  H   UNL     1      10.896   8.226  18.078  0.00  0.00    +0.210 HD
ENDBRANCH  10   4
BRANCH  11   1
ATOM      1  S   UNL     1      14.390   9.213  19.535  0.00  0.00    -0.114 S 
BRANCH   1  15
ATOM     15  C   UNL     1      15.659   7.966  19.695  0.00  0.00    +0.008 A 
ATOM     16  C   UNL     1      15.702   6.895  18.803  0.00  0.00    +0.015 A 
ATOM     17  C   UNL     1      16.608   8.064  20.713  0.00  0.00    +0.015 A 
ATOM     19  C   UNL     1      16.694   5.922  18.928  0.00  0.00    +0.001 A 
ATOM     20  C   UNL     1      17.600   7.092  20.839  0.00  0.00    +0.001 A 
ATOM     21  C   UNL     1      17.642   6.020  19.946  0.00  0.00    +0.000 A 
ENDBRANCH   1  15
ENDBRANCH  11   1
TORSDOF 6
ENDMDL
MODEL 4
REMARK VINA RESULT:      -6.2      3.071      6.230
REMARK  Name = 25314446
REMARK  6 active torsions:
REMARK  status: ('A' for Active; 'I' for Inactive)
REMARK    1  A    between atoms: S_1  and  C_11
REMARK    2  A    between atoms: S_1  and  C_15
REMARK    3  A    between atoms: O_4  and  C_10
REMARK    4  A    between atoms: N_6  and  C_8
REMARK    5  A    between atoms: N_7  and  C_18
REMARK    6  A    between atoms: C_18  and  C_22
REMARK                            x       y       z     vdW  Elec       q    Type
REMARK                         _______ _______ _______ _____ _____    ______ ____
ROOT
ATOM      2  O   UNL     1      14.332   9.352  18.938  0.00  0.00    -0.343 OA
ATOM      3  O   UNL     1      12.209   8.804  18.174  0.00  0.00    -0.347 OA
ATOM      8  C   UNL     1      14.443   6.954  19.169  0.00  0.00    +0.135 C 
ATOM      9  C   UNL     1      14.447   8.142  18.185  0.00  0.00    +0.170 C 
ATOM     10  C   UNL     1      13.271   6.988  20.179  0.00  0.00    +0.155 C 
ATOM     11  C   UNL     1      12.741   8.406  20.488  0.00  0.00    +0.138 C 
ATOM     12  C   UNL     1      12.942   9.344  19.289  0.00  0.00    +0.266 C 
ATOM     13  C   UNL     1      13.210   8.239  17.316  0.00  0.00    +0.196 C 
ENDROOT
BRANCH   8   6
ATOM      5  O   UNL     1      16.793   5.456  18.426  0.00  0.00    -0.253 OA
ATOM      6  N   UNL     1      15.708   6.907  19.876  0.00  0.00    -0.291 N 
ATOM      7  N   UNL     1      17.873   6.289  20.303  0.00  0.00    -0.296 N 
ATOM     14  C   UNL     1      16.789   6.153  19.439  0.00  0.00    +0.300 C 
ATOM     24  H   UNL     1      15.779   7.384  20.769  0.00  0.00    +0.151 HD
ATOM     26  H   UNL     1      17.770   6.872  21.128  0.00  0.00    +0.151 HD
BRANCH   7  18
ATOM     18  C   UNL     1      19.131   5.614  20.091  0.00  0.00    +0.132 C 
BRANCH  18  22
ATOM     22  C   UNL     1      20.190   6.289  20.899  0.00  0.00    -0.016 C 
ATOM     23  C   UNL     1      21.501   6.144  20.679  0.00  0.00    +0.005 C 
ENDBRANCH  18  22
ENDBRANCH   7  18
ENDBRANCH   8   6
BRANCH  10   4
ATOM      4  O   UNL     1      12.193   6.204  19.645  0.00  0.00    -0.389 OA
ATOM     25  H   UNL     1      11.360   6.625  19.917  0.00  0.00    +0.210 HD
ENDBRANCH  10   4
BRANCH  11   1
ATOM      1  S   UNL     1      13.577   9.094  21.963  0.00  0.00    -0.114 S 
BRANCH   1  15
ATOM     15  C   UNL     1      12.852  10.725  22.032  0.00  0.00    +0.008 A 
ATOM     16  C   UNL     1      11.488  10.872  22.281  0.00  0.00    +0.015 A 
ATOM     17  C   UNL     1      13.651  11.851  21.837  0.00  0.00    +0.015 A 
ATOM     19  C   UNL     1      10.922  12.146  22.336  0.00  0.00    +0.001 A 
ATOM     20  C   UNL     1      13.086  13.126  21.892  0.00  0.00    +0.001 A 
ATOM     21  C   UNL     1      11.721  13.273  22.141  0.00  0.00    +0.000 A 
ENDBRANCH   1  15
ENDBRANCH  11   1
TORSDOF 6
ENDMDL
MODEL 5
REMARK VINA RESULT:      -6.1      3.026      5.937
REMARK  Name = 25314446
REMARK  6 active torsions:
REMARK  status: ('A' for Active; 'I' for Inactive)
REMARK    1  A    between atoms: S_1  and  C_11
REMARK    2  A    between atoms: S_1  and  C_15
REMARK    3  A    between atoms: O_4  and  C_10
REMARK    4  A    between atoms: N_6  and  C_8
REMARK    5  A    between atoms: N_7  and  C_18
REMARK    6  A    between atoms: C_18  and  C_22
REMARK                            x       y       z     vdW  Elec       q    Type
REMARK                         _______ _______ _______ _____ _____    ______ ____
ROOT
ATOM      2  O   UNL     1      13.390   7.037  21.431  0.00  0.00    -0.343 OA
ATOM      3  O   UNL     1      11.922   6.075  19.911  0.00  0.00    -0.347 OA
ATOM      8  C   UNL     1      11.602   8.653  21.540  0.00  0.00    +0.135 C 
ATOM      9  C   UNL     1      12.065   7.233  21.932  0.00  0.00    +0.170 C 
ATOM     10  C   UNL     1      11.790   8.975  20.038  0.00  0.00    +0.155 C 
ATOM     11  C   UNL     1      12.933   8.190  19.359  0.00  0.00    +0.138 C 
ATOM     12  C   UNL     1      13.144   6.827  20.034  0.00  0.00    +0.266 C 
ATOM     13  C   UNL     1      11.331   6.117  21.217  0.00  0.00    +0.196 C 
ENDROOT
BRANCH   8   6
ATOM      5  O   UNL     1      10.463  10.374  23.555  0.00  0.00    -0.253 OA
ATOM      6  N   UNL     1      12.302   9.630  22.351  0.00  0.00    -0.291 N 
ATOM      7  N   UNL     1      12.571  11.267  23.931  0.00  0.00    -0.296 N 
ATOM     14  C   UNL     1      11.665  10.417  23.301  0.00  0.00    +0.300 C 
ATOM     24  H   UNL     1      13.284   9.800  22.160  0.00  0.00    +0.151 HD
ATOM     26  H   UNL     1      13.543  11.248  23.641  0.00  0.00    +0.151 HD
BRANCH   7  18
ATOM     18  C   UNL     1      12.181  12.198  24.964  0.00  0.00    +0.132 C 
BRANCH  18  22
ATOM     22  C   UNL     1      11.560  13.398  24.330  0.00  0.00    -0.016 C 
ATOM     23  C   UNL     1      10.435  13.974  24.769  0.00  0.00    +0.005 C 
ENDBRANCH  18  22
ENDBRANCH   7  18
ENDBRANCH   8   6
BRANCH  10   4
ATOM      4  O   UNL     1      10.562   8.676  19.356  0.00  0.00    -0.389 OA
ATOM     25  H   UNL     1      10.583   9.133  18.499  0.00  0.00    +0.210 HD
ENDBRANCH  10   4
BRANCH  11   1
ATOM      1  S   UNL     1      14.487   9.153  19.405  0.00  0.00    -0.114 S 
BRANCH   1  15
ATOM     15  C   UNL     1      14.368  10.061  17.872  0.00  0.00    +0.008 A 
ATOM     16  C   UNL     1      13.635   9.540  16.807  0.00  0.00    +0.015 A 
ATOM     17  C   UNL     1      15.009  11.293  17.741  0.00  0.00    +0.015 A 
ATOM     19  C   UNL     1      13.542  10.249  15.610  0.00  0.00    +0.001 A 
ATOM     20  C   UNL     1      14.916  12.004  16.544  0.00  0.00    +0.001 A 
ATOM     21  C   UNL     1      14.183  11.482  15.478  0.00  0.00    +0.000 A 
ENDBRANCH   1  15
ENDBRANCH  11   1
TORSDOF 6
ENDMDL
MODEL 6
REMARK VINA RESULT:      -6.0     22.829     25.646
REMARK  Name = 25314446
REMARK  6 active torsions:
REMARK  status: ('A' for Active; 'I' for Inactive)
REMARK    1  A    between atoms: S_1  and  C_11
REMARK    2  A    between atoms: S_1  and  C_15
REMARK    3  A    between atoms: O_4  and  C_10
REMARK    4  A    between atoms: N_6  and  C_8
REMARK    5  A    between atoms: N_7  and  C_18
REMARK    6  A    between atoms: C_18  and  C_22
REMARK                            x       y       z     vdW  Elec       q    Type
REMARK                         _______ _______ _______ _____ _____    ______ ____
ROOT
ATOM      2  O   UNL     1     -12.603  10.197  17.587  0.00  0.00    -0.343 OA
ATOM      3  O   UNL     1     -13.208   8.295  16.400  0.00  0.00    -0.347 OA
ATOM      8  C   UNL     1     -10.550   9.824  16.378  0.00  0.00    +0.135 C 
ATOM      9  C   UNL     1     -12.016  10.299  16.287  0.00  0.00    +0.170 C 
ATOM     10  C   UNL     1     -10.384   8.449  17.067  0.00  0.00    +0.155 C 
ATOM     11  C   UNL     1     -11.496   8.109  18.083  0.00  0.00    +0.138 C 
ATOM     12  C   UNL     1     -12.821   8.784  17.698  0.00  0.00    +0.266 C 
ATOM     13  C   UNL     1     -12.924   9.376  15.501  0.00  0.00    +0.196 C 
ENDROOT
BRANCH   8   6
ATOM      5  O   UNL     1      -9.665  12.362  15.331  0.00  0.00    -0.253 OA
ATOM      6  N   UNL     1      -9.760  10.825  17.067  0.00  0.00    -0.291 N 
ATOM      7  N   UNL     1      -8.629  12.797  17.361  0.00  0.00    -0.296 N 
ATOM     14  C   UNL     1      -9.380  12.024  16.478  0.00  0.00    +0.300 C 
ATOM     24  H   UNL     1      -9.404  10.605  17.992  0.00  0.00    +0.151 HD
ATOM     26  H   UNL     1      -8.425  12.426  18.284  0.00  0.00    +0.151 HD
BRANCH   7  18
ATOM     18  C   UNL     1      -8.102  14.094  17.010  0.00  0.00    +0.132 C 
BRANCH  18  22
ATOM     22  C   UNL     1      -6.635  13.974  16.760  0.00  0.00    -0.016 C 
ATOM     23  C   UNL     1      -5.711  14.726  17.369  0.00  0.00    +0.005 C 
ENDBRANCH  18  22
ENDBRANCH   7  18
ENDBRANCH   8   6
BRANCH  10   4
ATOM      4  O   UNL     1     -10.368   7.434  16.051  0.00  0.00    -0.389 OA
ATOM     25  H   UNL     1      -9.583   7.584  15.498  0.00  0.00    +0.210 HD
ENDBRANCH  10   4
BRANCH  11   1
ATOM      1  S   UNL     1     -11.004   8.626  19.768  0.00  0.00    -0.114 S 
BRANCH   1  15
ATOM     15  C   UNL     1     -12.233   7.784  20.753  0.00  0.00    +0.008 A 
ATOM     16  C   UNL     1     -13.305   8.495  21.288  0.00  0.00    +0.015 A 
ATOM     17  C   UNL     1     -12.120   6.413  20.985  0.00  0.00    +0.015 A 
ATOM     19  C   UNL     1     -14.265   7.838  22.057  0.00  0.00    +0.001 A 
ATOM     20  C   UNL     1     -13.080   5.754  21.753  0.00  0.00    +0.001 A 
ATOM     21  C   UNL     1     -14.152   6.467  22.290  0.00  0.00    +0.000 A 
ENDBRANCH   1  15
ENDBRANCH  11   1
TORSDOF 6
ENDMDL
MODEL 7
REMARK VINA RESULT:      -5.9     30.234     31.508
REMARK  Name = 25314446
REMARK  6 active torsions:
REMARK  status: ('A' for Active; 'I' for Inactive)
REMARK    1  A    between atoms: S_1  and  C_11
REMARK    2  A    between atoms: S_1  and  C_15
REMARK    3  A    between atoms: O_4  and  C_10
REMARK    4  A    between atoms: N_6  and  C_8
REMARK    5  A    between atoms: N_7  and  C_18
REMARK    6  A    between atoms: C_18  and  C_22
REMARK                            x       y       z     vdW  Elec       q    Type
REMARK                         _______ _______ _______ _____ _____    ______ ____
ROOT
ATOM      2  O   UNL     1     -16.065   3.060  32.010  0.00  0.00    -0.343 OA
ATOM      3  O   UNL     1     -14.619   2.182  33.600  0.00  0.00    -0.347 OA
ATOM      8  C   UNL     1     -14.116   2.734  30.626  0.00  0.00    +0.135 C 
ATOM      9  C   UNL     1     -15.284   2.049  31.367  0.00  0.00    +0.170 C 
ATOM     10  C   UNL     1     -13.315   3.721  31.508  0.00  0.00    +0.155 C 
ATOM     11  C   UNL     1     -14.128   4.345  32.663  0.00  0.00    +0.138 C 
ATOM     12  C   UNL     1     -15.239   3.394  33.133  0.00  0.00    +0.266 C 
ATOM     13  C   UNL     1     -14.864   1.221  32.564  0.00  0.00    +0.196 C 
ENDROOT
BRANCH   8   6
ATOM      5  O   UNL     1     -15.747   1.606  28.531  0.00  0.00    -0.253 OA
ATOM      6  N   UNL     1     -14.623   3.416  29.451  0.00  0.00    -0.291 N 
ATOM      7  N   UNL     1     -15.753   3.671  27.474  0.00  0.00    -0.296 N 
ATOM     14  C   UNL     1     -15.405   2.786  28.492  0.00  0.00    +0.300 C 
ATOM     24  H   UNL     1     -14.329   4.373  29.285  0.00  0.00    +0.151 HD
ATOM     26  H   UNL     1     -15.407   4.625  27.515  0.00  0.00    +0.151 HD
BRANCH   7  18
ATOM     18  C   UNL     1     -16.563   3.283  26.344  0.00  0.00    +0.132 C 
BRANCH  18  22
ATOM     22  C   UNL     1     -15.776   3.473  25.090  0.00  0.00    -0.016 C 
ATOM     23  C   UNL     1     -16.253   3.223  23.865  0.00  0.00    +0.005 C 
ENDBRANCH  18  22
ENDBRANCH   7  18
ENDBRANCH   8   6
BRANCH  10   4
ATOM      4  O   UNL     1     -12.194   3.017  32.067  0.00  0.00    -0.389 OA
ATOM     25  H   UNL     1     -11.475   3.043  31.414  0.00  0.00    +0.210 HD
ENDBRANCH  10   4
BRANCH  11   1
ATOM      1  S   UNL     1     -14.856   5.941  32.143  0.00  0.00    -0.114 S 
BRANCH   1  15
ATOM     15  C   UNL     1     -13.815   7.091  33.028  0.00  0.00    +0.008 A 
ATOM     16  C   UNL     1     -13.122   8.083  32.334  0.00  0.00    +0.015 A 
ATOM     17  C   UNL     1     -13.695   6.997  34.415  0.00  0.00    +0.015 A 
ATOM     19  C   UNL     1     -12.310   8.981  33.026  0.00  0.00    +0.001 A 
ATOM     20  C   UNL     1     -12.883   7.896  35.107  0.00  0.00    +0.001 A 
ATOM     21  C   UNL     1     -12.190   8.887  34.412  0.00  0.00    +0.000 A 
ENDBRANCH   1  15
ENDBRANCH  11   1
TORSDOF 6
ENDMDL
MODEL 8
REMARK VINA RESULT:      -5.8     28.257     31.437
REMARK  Name = 25314446
REMARK  6 active torsions:
REMARK  status: ('A' for Active; 'I' for Inactive)
REMARK    1  A    between atoms: S_1  and  C_11
REMARK    2  A    between atoms: S_1  and  C_15
REMARK    3  A    between atoms: O_4  and  C_10
REMARK    4  A    between atoms: N_6  and  C_8
REMARK    5  A    between atoms: N_7  and  C_18
REMARK    6  A    between atoms: C_18  and  C_22
REMARK                            x       y       z     vdW  Elec       q    Type
REMARK                         _______ _______ _______ _____ _____    ______ ____
ROOT
ATOM      2  O   UNL     1     -18.324   3.916  25.870  0.00  0.00    -0.343 OA
ATOM      3  O   UNL     1     -19.188   1.761  25.917  0.00  0.00    -0.347 OA
ATOM      8  C   UNL     1     -16.705   2.817  24.460  0.00  0.00    +0.135 C 
ATOM      9  C   UNL     1     -18.147   3.354  24.566  0.00  0.00    +0.170 C 
ATOM     10  C   UNL     1     -16.298   1.893  25.633  0.00  0.00    +0.155 C 
ATOM     11  C   UNL     1     -17.052   2.172  26.952  0.00  0.00    +0.138 C 
ATOM     12  C   UNL     1     -18.453   2.738  26.678  0.00  0.00    +0.266 C 
ATOM     13  C   UNL     1     -19.215   2.280  24.580  0.00  0.00    +0.196 C 
ENDROOT
BRANCH   8   6
ATOM      5  O   UNL     1     -16.115   4.378  22.108  0.00  0.00    -0.253 OA
ATOM      6  N   UNL     1     -15.780   3.929  24.360  0.00  0.00    -0.291 N 
ATOM      7  N   UNL     1     -14.627   5.641  23.363  0.00  0.00    -0.296 N 
ATOM     14  C   UNL     1     -15.561   4.624  23.178  0.00  0.00    +0.300 C 
ATOM     24  H   UNL     1     -15.213   4.159  25.170  0.00  0.00    +0.151 HD
ATOM     26  H   UNL     1     -14.206   5.756  24.280  0.00  0.00    +0.151 HD
BRANCH   7  18
ATOM     18  C   UNL     1     -14.209   6.522  22.299  0.00  0.00    +0.132 C 
BRANCH  18  22
ATOM     22  C   UNL     1     -13.032   5.924  21.604  0.00  0.00    -0.016 C 
ATOM     23  C   UNL     1     -12.042   6.643  21.061  0.00  0.00    +0.005 C 
ENDBRANCH  18  22
ENDBRANCH   7  18
ENDBRANCH   8   6
BRANCH  10   4
ATOM      4  O   UNL     1     -16.548   0.533  25.243  0.00  0.00    -0.389 OA
ATOM     25  H   UNL     1     -17.390   0.262  25.645  0.00  0.00    +0.210 HD
ENDBRANCH  10   4
BRANCH  11   1
ATOM      1  S   UNL     1     -16.105   3.337  27.996  0.00  0.00    -0.114 S 
BRANCH   1  15
ATOM     15  C   UNL     1     -15.484   2.234  29.256  0.00  0.00    +0.008 A 
ATOM     16  C   UNL     1     -16.040   0.965  29.408  0.00  0.00    +0.015 A 
ATOM     17  C   UNL     1     -14.443   2.644  30.089  0.00  0.00    +0.015 A 
ATOM     19  C   UNL     1     -15.555   0.103  30.392  0.00  0.00    +0.001 A 
ATOM     20  C   UNL     1     -13.957   1.783  31.073  0.00  0.00    +0.001 A 
ATOM     21  C   UNL     1     -14.513   0.513  31.225  0.00  0.00    +0.000 A 
ENDBRANCH   1  15
ENDBRANCH  11   1
TORSDOF 6
ENDMDL
MODEL 9
REMARK VINA RESULT:      -5.7      3.340      5.511
REMARK  Name = 25314446
REMARK  6 active torsions:
REMARK  status: ('A' for Active; 'I' for Inactive)
REMARK    1  A    between atoms: S_1  and  C_11
REMARK    2  A    between atoms: S_1  and  C_15
REMARK    3  A    between atoms: O_4  and  C_10
REMARK    4  A    between atoms: N_6  and  C_8
REMARK    5  A    between atoms: N_7  and  C_18
REMARK    6  A    between atoms: C_18  and  C_22
REMARK                            x       y       z     vdW  Elec       q    Type
REMARK                         _______ _______ _______ _____ _____    ______ ____
ROOT
ATOM      2  O   UNL     1      10.594   8.794  20.509  0.00  0.00    -0.343 OA
ATOM      3  O   UNL     1      11.232   7.510  22.334  0.00  0.00    -0.347 OA
ATOM      8  C   UNL     1      12.980   8.779  20.158  0.00  0.00    +0.135 C 
ATOM      9  C   UNL     1      11.675   7.959  20.087  0.00  0.00    +0.170 C 
ATOM     10  C   UNL     1      13.192   9.492  21.515  0.00  0.00    +0.155 C 
ATOM     11  C   UNL     1      11.886   9.826  22.268  0.00  0.00    +0.138 C 
ATOM     12  C   UNL     1      10.780   8.816  21.930  0.00  0.00    +0.266 C 
ATOM     13  C   UNL     1      11.580   6.846  21.111  0.00  0.00    +0.196 C 
ENDROOT
BRANCH   8   6
ATOM      5  O   UNL     1      13.737   8.305  17.416  0.00  0.00    -0.253 OA
ATOM      6  N   UNL     1      13.002   9.747  19.078  0.00  0.00    -0.291 N 
ATOM      7  N   UNL     1      13.313  10.537  16.950  0.00  0.00    -0.296 N 
ATOM     14  C   UNL     1      13.383   9.423  17.783  0.00  0.00    +0.300 C 
ATOM     24  H   UNL     1      12.805  10.718  19.298  0.00  0.00    +0.151 HD
ATOM     26  H   UNL     1      13.029  11.428  17.348  0.00  0.00    +0.151 HD
BRANCH   7  18
ATOM     18  C   UNL     1      13.654  10.488  15.548  0.00  0.00    +0.132 C 
BRANCH  18  22
ATOM     22  C   UNL     1      14.754  11.461  15.279  0.00  0.00    -0.016 C 
ATOM     23  C   UNL     1      15.674  11.814  16.184  0.00  0.00    +0.005 C 
ENDBRANCH  18  22
ENDBRANCH   7  18
ENDBRANCH   8   6
BRANCH  10   4
ATOM      4  O   UNL     1      13.996   8.643  22.349  0.00  0.00    -0.389 OA
ATOM     25  H   UNL     1      14.880   9.044  22.412  0.00  0.00    +0.210 HD
ENDBRANCH  10   4
BRANCH  11   1
ATOM      1  S   UNL     1      11.326  11.519  21.858  0.00  0.00    -0.114 S 
BRANCH   1  15
ATOM     15  C   UNL     1      11.576  12.345  23.422  0.00  0.00    +0.008 A 
ATOM     16  C   UNL     1      10.493  12.583  24.267  0.00  0.00    +0.015 A 
ATOM     17  C   UNL     1      12.856  12.752  23.798  0.00  0.00    +0.015 A 
ATOM     19  C   UNL     1      10.688  13.228  25.488  0.00  0.00    +0.001 A 
ATOM     20  C   UNL     1      13.053  13.397  25.020  0.00  0.00    +0.001 A 
ATOM     21  C   UNL     1      11.968  13.635  25.864  0.00  0.00    +0.000 A 
ENDBRANCH   1  15
ENDBRANCH  11   1
TORSDOF 6
ENDMDL
MODEL 10
REMARK VINA RESULT:      -5.6     28.030     30.706
REMARK  Name = 25314446
REMARK  6 active torsions:
REMARK  status: ('A' for Active; 'I' for Inactive)
REMARK    1  A    between atoms: S_1  and  C_11
REMARK    2  A    between atoms: S_1  and  C_15
REMARK    3  A    between atoms: O_4  and  C_10
REMARK    4  A    between atoms: N_6  and  C_8
REMARK    5  A    between atoms: N_7  and  C_18
REMARK    6  A    between atoms: C_18  and  C_22
REMARK                            x       y       z     vdW  Elec       q    Type
REMARK                         _______ _______ _______ _____ _____    ______ ____
ROOT
ATOM      2  O   UNL     1     -10.930 -12.777  18.251  0.00  0.00    -0.343 OA
ATOM      3  O   UNL     1     -12.347 -11.825  19.825  0.00  0.00    -0.347 OA
ATOM      8  C   UNL     1      -9.286 -12.008  19.840  0.00  0.00    +0.135 C 
ATOM      9  C   UNL     1     -10.382 -13.053  19.544  0.00  0.00    +0.170 C 
ATOM     10  C   UNL     1      -9.745 -10.546  19.620  0.00  0.00    +0.155 C 
ATOM     11  C   UNL     1     -10.873 -10.385  18.578  0.00  0.00    +0.138 C 
ATOM     12  C   UNL     1     -11.758 -11.639  18.524  0.00  0.00    +0.266 C 
ATOM     13  C   UNL     1     -11.622 -12.919  20.404  0.00  0.00    +0.196 C 
ENDROOT
BRANCH   8   6
ATOM      5  O   UNL     1      -6.537 -11.426  20.493  0.00  0.00    -0.253 OA
ATOM      6  N   UNL     1      -8.117 -12.290  19.029  0.00  0.00    -0.291 N 
ATOM      7  N   UNL     1      -5.898 -12.351  18.464  0.00  0.00    -0.296 N 
ATOM     14  C   UNL     1      -6.827 -11.972  19.429  0.00  0.00    +0.300 C 
ATOM     24  H   UNL     1      -8.257 -12.665  18.097  0.00  0.00    +0.151 HD
ATOM     26  H   UNL     1      -6.232 -12.778  17.605  0.00  0.00    +0.151 HD
BRANCH   7  18
ATOM     18  C   UNL     1      -4.478 -12.139  18.618  0.00  0.00    +0.132 C 
BRANCH  18  22
ATOM     22  C   UNL     1      -3.981 -11.311  17.479  0.00  0.00    -0.016 C 
ATOM     23  C   UNL     1      -4.659 -10.284  16.954  0.00  0.00    +0.005 C 
ENDBRANCH  18  22
ENDBRANCH   7  18
ENDBRANCH   8   6
BRANCH  10   4
ATOM      4  O   UNL     1     -10.206 -10.025  20.877  0.00  0.00    -0.389 OA
ATOM     25  H   UNL     1     -11.168  -9.906  20.811  0.00  0.00    +0.210 HD
ENDBRANCH  10   4
BRANCH  11   1
ATOM      1  S   UNL     1     -10.171 -10.049  16.923  0.00  0.00    -0.114 S 
BRANCH   1  15
ATOM     15  C   UNL     1     -11.028  -8.542  16.492  0.00  0.00    +0.008 A 
ATOM     16  C   UNL     1     -10.314  -7.357  16.322  0.00  0.00    +0.015 A 
ATOM     17  C   UNL     1     -12.413  -8.552  16.325  0.00  0.00    +0.015 A 
ATOM     19  C   UNL     1     -10.983  -6.181  15.985  0.00  0.00    +0.001 A 
ATOM     20  C   UNL     1     -13.083  -7.376  15.988  0.00  0.00    +0.001 A 
ATOM     21  C   UNL     1     -12.368  -6.190  15.818  0.00  0.00    +0.000 A 
ENDBRANCH   1  15
ENDBRANCH  11   1
TORSDOF 6
ENDMDL
