REMARK  Name = 38029331
REMARK  14 active torsions:
REMARK  status: ('A' for Active; 'I' for Inactive)
REMARK    1  A    between atoms: N_3  and  C_14
REMARK    2  A    between atoms: N_4  and  C_21
REMARK    3  A    between atoms: N_5  and  C_22
REMARK    4  A    between atoms: C_7  and  C_11
REMARK    5  A    between atoms: C_8  and  C_14
REMARK    6  A    between atoms: C_10  and  C_15
REMARK    7  A    between atoms: C_11  and  C_16
REMARK    8  A    between atoms: C_11  and  C_17
REMARK    9  A    between atoms: C_12  and  C_18
REMARK   10  A    between atoms: C_15  and  C_19
REMARK   11  A    between atoms: C_21  and  C_23
REMARK   12  A    between atoms: C_22  and  C_24
REMARK   13  A    between atoms: C_22  and  C_25
REMARK   14  A    between atoms: C_30  and  C_31
REMARK                            x       y       z     vdW  Elec       q    Type
REMARK                         _______ _______ _______ _____ _____    ______ ____
ROOT
ATOM      7  C   UNL     1       1.361   0.996  -1.361  0.00  0.00    +0.000 C 
ATOM      8  C   UNL     1       2.867   0.960  -1.723  0.00  0.00    +0.032 C 
ATOM      9  C   UNL     1       0.998   2.341  -0.712  0.00  0.00    +0.012 C 
ATOM     10  C   UNL     1       1.814   2.610   0.566  0.00  0.00    +0.023 C 
ATOM     12  C   UNL     1       3.289   2.334   0.361  0.00  0.00    -0.073 C 
ATOM     13  C   UNL     1       3.742   1.606  -0.675  0.00  0.00    -0.022 C 
ATOM     18  C   UNL     1       4.238   2.954   1.349  0.00  0.00    +0.039 C 
ENDROOT
BRANCH   7  11
ATOM     11  C   UNL     1       0.475   0.756  -2.588  0.00  0.00    -0.013 C 
ATOM     16  C   UNL     1      -0.884   0.208  -2.164  0.00  0.00    +0.007 C 
ATOM     17  C   UNL     1       0.313   2.045  -3.387  0.00  0.00    +0.007 C 
ENDBRANCH   7  11
BRANCH   8  14
ATOM     14  C   UNL     1       3.342  -0.476  -1.970  0.00  0.00    +0.113 C 
BRANCH  14   3
ATOM      2  O   UNL     1       1.796  -2.872  -1.527  0.00  0.00    -0.253 OA
ATOM      3  N   UNL     1       3.274  -1.247  -0.769  0.00  0.00    -0.299 N 
ATOM      5  N   UNL     1       2.614  -2.957   0.642  0.00  0.00    -0.297 N 
ATOM     20  C   UNL     1       2.496  -2.404  -0.630  0.00  0.00    +0.300 C 
ATOM     32  H   UNL     1       3.870  -0.985   0.010  0.00  0.00    +0.150 HD
ATOM     34  H   UNL     1       3.156  -2.453   1.338  0.00  0.00    +0.150 HD
BRANCH   5  22
ATOM     22  C   UNL     1       1.914  -4.154   1.044  0.00  0.00    +0.068 C 
ATOM     24  C   UNL     1       0.540  -3.803   1.599  0.00  0.00    +0.027 C 
ATOM     25  C   UNL     1       2.735  -4.939   2.059  0.00  0.00    +0.027 C 
ENDBRANCH   5  22
ENDBRANCH  14   3
ENDBRANCH   8  14
BRANCH  10  15
ATOM     15  C   UNL     1       1.265   1.806   1.751  0.00  0.00    +0.103 C 
BRANCH  15  19
ATOM      1  O   UNL     1      -0.775   3.106   1.702  0.00  0.00    -0.276 OA
ATOM      4  N   UNL     1      -0.828   0.923   2.496  0.00  0.00    -0.311 N 
ATOM     19  C   UNL     1      -0.212   2.047   1.966  0.00  0.00    +0.214 C 
ATOM     33  H   UNL     1      -0.277   0.089   2.678  0.00  0.00    +0.149 HD
BRANCH   4  21
ATOM     21  C   UNL     1      -2.238   0.867   2.806  0.00  0.00    +0.139 C 
BRANCH  21  23
ATOM     23  C   UNL     1      -3.051   0.384   1.640  0.00  0.00    -0.030 A 
ATOM     26  C   UNL     1      -4.050   1.196   1.103  0.00  0.00    +0.006 A 
ATOM     27  C   UNL     1      -2.807  -0.876   1.095  0.00  0.00    +0.006 A 
ATOM     28  C   UNL     1      -4.805   0.747   0.019  0.00  0.00    +0.019 A 
ATOM     29  C   UNL     1      -3.563  -1.325   0.011  0.00  0.00    +0.019 A 
ATOM     30  C   UNL     1      -4.562  -0.513  -0.526  0.00  0.00    +0.052 A 
BRANCH  30  31
ATOM      6  N   UNL     1      -5.964  -1.347  -2.537  0.00  0.00    -0.191 NA
ATOM     31  C   UNL     1      -5.336  -0.973  -1.636  0.00  0.00    +0.099 C 
ENDBRANCH  30  31
ENDBRANCH  21  23
ENDBRANCH   4  21
ENDBRANCH  15  19
ENDBRANCH  10  15
TORSDOF 9
