MODEL 1
REMARK VINA RESULT:      -8.3      0.000      0.000
REMARK  Name = 7155600
REMARK  5 active torsions:
REMARK  status: ('A' for Active; 'I' for Inactive)
REMARK    1  A    between atoms: O_4  and  C_29
REMARK    2  A    between atoms: O_4  and  C_34
REMARK    3  A    between atoms: N_7  and  C_22
REMARK    4  A    between atoms: N_8  and  C_20
REMARK    5  A    between atoms: C_23  and  C_26
REMARK                            x       y       z     vdW  Elec       q    Type
REMARK                         _______ _______ _______ _____ _____    ______ ____
ROOT
ATOM      1  O   UNL     1      13.775  11.476  18.233  0.00  0.00    -0.266 OA
ATOM      2  O   UNL     1      15.090   9.344  22.817  0.00  0.00    -0.252 OA
ATOM      5  N   UNL     1      13.319   8.140  21.942  0.00  0.00    -0.284 N 
ATOM      6  N   UNL     1      12.808   9.545  19.124  0.00  0.00    -0.310 N 
ATOM      7  N   UNL     1      15.527   7.326  21.760  0.00  0.00    -0.269 N 
ATOM     10  C   UNL     1      11.386   9.565  21.251  0.00  0.00    +0.027 C 
ATOM     11  C   UNL     1      11.809   7.442  20.088  0.00  0.00    +0.054 C 
ATOM     12  C   UNL     1      10.709   8.340  20.646  0.00  0.00    +0.018 C 
ATOM     13  C   UNL     1      12.344   9.144  22.378  0.00  0.00    +0.114 C 
ATOM     14  C   UNL     1      12.103  10.338  20.140  0.00  0.00    +0.130 C 
ATOM     15  C   UNL     1      12.742   6.985  21.231  0.00  0.00    +0.119 C 
ATOM     16  C   UNL     1      12.619   8.163  19.027  0.00  0.00    +0.027 A 
ATOM     17  C   UNL     1      13.181   7.474  18.018  0.00  0.00    +0.024 A 
ATOM     18  C   UNL     1      13.594  10.259  18.196  0.00  0.00    +0.273 A 
ATOM     19  C   UNL     1      14.690   8.345  22.213  0.00  0.00    +0.306 C 
ATOM     20  C   UNL     1      14.223   9.451  17.104  0.00  0.00    +0.099 A 
ATOM     21  C   UNL     1      14.000   8.134  17.041  0.00  0.00    +0.030 A 
ATOM     35  H   UNL     1      15.147   6.389  21.686  0.00  0.00    +0.156 HD
ENDROOT
BRANCH   7  22
ATOM     22  C   UNL     1      16.900   7.430  21.429  0.00  0.00    +0.035 A 
ATOM     24  C   UNL     1      17.580   8.623  21.660  0.00  0.00    +0.027 A 
ATOM     25  C   UNL     1      17.563   6.339  20.874  0.00  0.00    +0.027 A 
ATOM     27  C   UNL     1      18.932   8.726  21.334  0.00  0.00    +0.047 A 
ATOM     28  C   UNL     1      18.915   6.442  20.547  0.00  0.00    +0.047 A 
ATOM     29  C   UNL     1      19.599   7.635  20.778  0.00  0.00    +0.120 A 
BRANCH  29   4
ATOM      4  O   UNL     1      20.919   7.734  20.460  0.00  0.00    -0.495 OA
ATOM     34  C   UNL     1      21.695   6.539  20.523  0.00  0.00    +0.277 C 
ENDBRANCH  29   4
ENDBRANCH   7  22
BRANCH  20   8
ATOM      3  O   UNL     1      13.339  10.655  14.673  0.00  0.00    -0.268 OA
ATOM      8  N   UNL     1      15.006  10.101  16.196  0.00  0.00    -0.276 N 
ATOM     23  C   UNL     1      14.514  10.668  15.029  0.00  0.00    +0.267 C 
ATOM     36  H   UNL     1      16.013  10.002  16.297  0.00  0.00    +0.155 HD
BRANCH  23  26
ATOM      9  N   UNL     1      15.180  11.436  12.882  0.00  0.00    -0.250 NA
ATOM     26  C   UNL     1      15.517  11.356  14.174  0.00  0.00    +0.126 A 
ATOM     30  C   UNL     1      16.664  11.835  14.749  0.00  0.00    +0.033 A 
ATOM     31  C   UNL     1      17.568  12.469  13.904  0.00  0.00    +0.004 A 
ATOM     32  C   UNL     1      16.084  12.058  12.092  0.00  0.00    +0.111 A 
ATOM     33  C   UNL     1      17.280  12.587  12.550  0.00  0.00    +0.020 A 
ENDBRANCH  23  26
ENDBRANCH  20   8
TORSDOF 4
ENDMDL
MODEL 2
REMARK VINA RESULT:      -7.8      2.757      6.760
REMARK  Name = 7155600
REMARK  5 active torsions:
REMARK  status: ('A' for Active; 'I' for Inactive)
REMARK    1  A    between atoms: O_4  and  C_29
REMARK    2  A    between atoms: O_4  and  C_34
REMARK    3  A    between atoms: N_7  and  C_22
REMARK    4  A    between atoms: N_8  and  C_20
REMARK    5  A    between atoms: C_23  and  C_26
REMARK                            x       y       z     vdW  Elec       q    Type
REMARK                         _______ _______ _______ _____ _____    ______ ____
ROOT
ATOM      1  O   UNL     1      15.803   6.188  19.019  0.00  0.00    -0.266 OA
ATOM      2  O   UNL     1      14.875  10.786  16.719  0.00  0.00    -0.252 OA
ATOM      5  N   UNL     1      13.233  10.430  18.310  0.00  0.00    -0.284 N 
ATOM      6  N   UNL     1      14.099   7.661  19.638  0.00  0.00    -0.310 N 
ATOM      7  N   UNL     1      15.057  11.855  18.769  0.00  0.00    -0.269 N 
ATOM     10  C   UNL     1      12.116   8.202  18.113  0.00  0.00    +0.027 C 
ATOM     11  C   UNL     1      12.293   9.284  20.313  0.00  0.00    +0.054 C 
ATOM     12  C   UNL     1      11.366   8.471  19.413  0.00  0.00    +0.018 C 
ATOM     13  C   UNL     1      12.489   9.527  17.427  0.00  0.00    +0.114 C 
ATOM     14  C   UNL     1      13.347   7.342  18.417  0.00  0.00    +0.130 C 
ATOM     15  C   UNL     1      12.627  10.633  19.639  0.00  0.00    +0.119 C 
ATOM     16  C   UNL     1      13.576   8.528  20.603  0.00  0.00    +0.027 A 
ATOM     17  C   UNL     1      14.225   8.715  21.765  0.00  0.00    +0.024 A 
ATOM     18  C   UNL     1      15.313   6.972  19.832  0.00  0.00    +0.273 A 
ATOM     19  C   UNL     1      14.436  11.009  17.850  0.00  0.00    +0.306 C 
ATOM     20  C   UNL     1      16.018   7.229  21.128  0.00  0.00    +0.099 A 
ATOM     21  C   UNL     1      15.472   8.052  22.029  0.00  0.00    +0.030 A 
ATOM     35  H   UNL     1      14.478  12.331  19.452  0.00  0.00    +0.156 HD
ENDROOT
BRANCH   7  22
ATOM     22  C   UNL     1      16.433  12.182  18.837  0.00  0.00    +0.035 A 
ATOM     24  C   UNL     1      16.991  13.032  17.886  0.00  0.00    +0.027 A 
ATOM     25  C   UNL     1      17.222  11.650  19.854  0.00  0.00    +0.027 A 
ATOM     27  C   UNL     1      18.346  13.354  17.952  0.00  0.00    +0.047 A 
ATOM     28  C   UNL     1      18.577  11.972  19.921  0.00  0.00    +0.047 A 
ATOM     29  C   UNL     1      19.139  12.824  18.971  0.00  0.00    +0.120 A 
BRANCH  29   4
ATOM      4  O   UNL     1      20.462  13.138  19.036  0.00  0.00    -0.495 OA
ATOM     34  C   UNL     1      21.365  12.084  19.368  0.00  0.00    +0.277 C 
ENDBRANCH  29   4
ENDBRANCH   7  22
BRANCH  20   8
ATOM      3  O   UNL     1      18.611   8.410  20.977  0.00  0.00    -0.268 OA
ATOM      8  N   UNL     1      17.206   6.595  21.347  0.00  0.00    -0.276 N 
ATOM     23  C   UNL     1      18.438   7.227  21.258  0.00  0.00    +0.267 C 
ATOM     36  H   UNL     1      17.187   5.579  21.396  0.00  0.00    +0.155 HD
BRANCH  23  26
ATOM      9  N   UNL     1      20.197   6.625  22.737  0.00  0.00    -0.250 NA
ATOM     26  C   UNL     1      19.621   6.378  21.555  0.00  0.00    +0.126 A 
ATOM     30  C   UNL     1      20.017   5.445  20.634  0.00  0.00    +0.033 A 
ATOM     31  C   UNL     1      21.130   4.679  20.961  0.00  0.00    +0.004 A 
ATOM     32  C   UNL     1      21.276   5.861  23.020  0.00  0.00    +0.111 A 
ATOM     33  C   UNL     1      21.777   4.884  22.174  0.00  0.00    +0.020 A 
ENDBRANCH  23  26
ENDBRANCH  20   8
TORSDOF 4
ENDMDL
MODEL 3
REMARK VINA RESULT:      -7.6     12.501     15.646
REMARK  Name = 7155600
REMARK  5 active torsions:
REMARK  status: ('A' for Active; 'I' for Inactive)
REMARK    1  A    between atoms: O_4  and  C_29
REMARK    2  A    between atoms: O_4  and  C_34
REMARK    3  A    between atoms: N_7  and  C_22
REMARK    4  A    between atoms: N_8  and  C_20
REMARK    5  A    between atoms: C_23  and  C_26
REMARK                            x       y       z     vdW  Elec       q    Type
REMARK                         _______ _______ _______ _____ _____    ______ ____
ROOT
ATOM      1  O   UNL     1      14.107   6.544   7.156  0.00  0.00    -0.266 OA
ATOM      2  O   UNL     1      10.194   4.080   4.726  0.00  0.00    -0.252 OA
ATOM      5  N   UNL     1       9.499   6.232   5.215  0.00  0.00    -0.284 N 
ATOM      6  N   UNL     1      12.082   7.541   6.555  0.00  0.00    -0.310 N 
ATOM      7  N   UNL     1      10.228   5.673   3.041  0.00  0.00    -0.269 N 
ATOM     10  C   UNL     1       9.845   6.875   7.605  0.00  0.00    +0.027 C 
ATOM     11  C   UNL     1       9.905   8.604   5.859  0.00  0.00    +0.054 C 
ATOM     12  C   UNL     1       9.421   8.302   7.275  0.00  0.00    +0.018 C 
ATOM     13  C   UNL     1       9.214   5.886   6.611  0.00  0.00    +0.114 C 
ATOM     14  C   UNL     1      11.375   6.797   7.606  0.00  0.00    +0.130 C 
ATOM     15  C   UNL     1       9.233   7.638   4.859  0.00  0.00    +0.119 C 
ATOM     16  C   UNL     1      11.413   8.476   5.756  0.00  0.00    +0.027 A 
ATOM     17  C   UNL     1      12.100   9.229   4.880  0.00  0.00    +0.024 A 
ATOM     18  C   UNL     1      13.474   7.342   6.464  0.00  0.00    +0.273 A 
ATOM     19  C   UNL     1       9.999   5.238   4.346  0.00  0.00    +0.306 C 
ATOM     20  C   UNL     1      14.198   8.183   5.458  0.00  0.00    +0.099 A 
ATOM     21  C   UNL     1      13.519   9.076   4.730  0.00  0.00    +0.030 A 
ATOM     35  H   UNL     1       9.670   6.442   2.686  0.00  0.00    +0.156 HD
ENDROOT
BRANCH   7  22
ATOM     22  C   UNL     1      11.138   5.127   2.103  0.00  0.00    +0.035 A 
ATOM     24  C   UNL     1      12.508   5.232   2.326  0.00  0.00    +0.027 A 
ATOM     25  C   UNL     1      10.657   4.487   0.964  0.00  0.00    +0.027 A 
ATOM     27  C   UNL     1      13.405   4.694   1.402  0.00  0.00    +0.047 A 
ATOM     28  C   UNL     1      11.553   3.949   0.040  0.00  0.00    +0.047 A 
ATOM     29  C   UNL     1      12.927   4.052   0.260  0.00  0.00    +0.120 A 
BRANCH  29   4
ATOM      4  O   UNL     1      13.801   3.526  -0.641  0.00  0.00    -0.495 OA
ATOM     34  C   UNL     1      14.988   4.271  -0.906  0.00  0.00    +0.277 C 
ENDBRANCH  29   4
ENDBRANCH   7  22
BRANCH  20   8
ATOM      3  O   UNL     1      16.227   9.945   6.417  0.00  0.00    -0.268 OA
ATOM      8  N   UNL     1      15.544   8.008   5.327  0.00  0.00    -0.276 N 
ATOM     23  C   UNL     1      16.483   8.904   5.818  0.00  0.00    +0.267 C 
ATOM     36  H   UNL     1      15.857   7.285   4.684  0.00  0.00    +0.155 HD
BRANCH  23  26
ATOM      9  N   UNL     1      18.176   8.082   4.369  0.00  0.00    -0.250 NA
ATOM     26  C   UNL     1      17.905   8.531   5.599  0.00  0.00    +0.126 A 
ATOM     30  C   UNL     1      18.794   8.668   6.632  0.00  0.00    +0.033 A 
ATOM     31  C   UNL     1      20.111   8.304   6.374  0.00  0.00    +0.004 A 
ATOM     32  C   UNL     1      19.466   7.737   4.156  0.00  0.00    +0.111 A 
ATOM     33  C   UNL     1      20.462   7.829   5.116  0.00  0.00    +0.020 A 
ENDBRANCH  23  26
ENDBRANCH  20   8
TORSDOF 4
ENDMDL
MODEL 4
REMARK VINA RESULT:      -7.6     28.272     31.041
REMARK  Name = 7155600
REMARK  5 active torsions:
REMARK  status: ('A' for Active; 'I' for Inactive)
REMARK    1  A    between atoms: O_4  and  C_29
REMARK    2  A    between atoms: O_4  and  C_34
REMARK    3  A    between atoms: N_7  and  C_22
REMARK    4  A    between atoms: N_8  and  C_20
REMARK    5  A    between atoms: C_23  and  C_26
REMARK                            x       y       z     vdW  Elec       q    Type
REMARK                         _______ _______ _______ _____ _____    ______ ____
ROOT
ATOM      1  O   UNL     1      -7.618 -12.173  14.499  0.00  0.00    -0.266 OA
ATOM      2  O   UNL     1     -12.073 -11.005  16.965  0.00  0.00    -0.252 OA
ATOM      5  N   UNL     1     -10.427 -11.323  18.560  0.00  0.00    -0.284 N 
ATOM      6  N   UNL     1      -7.819 -11.883  16.808  0.00  0.00    -0.310 N 
ATOM      7  N   UNL     1     -11.066  -9.144  17.916  0.00  0.00    -0.269 N 
ATOM     10  C   UNL     1      -9.175 -13.469  18.290  0.00  0.00    +0.027 C 
ATOM     11  C   UNL     1      -8.054 -11.525  19.292  0.00  0.00    +0.054 C 
ATOM     12  C   UNL     1      -8.214 -13.040  19.393  0.00  0.00    +0.018 C 
ATOM     13  C   UNL     1     -10.538 -12.782  18.470  0.00  0.00    +0.114 C 
ATOM     14  C   UNL     1      -8.544 -13.155  16.929  0.00  0.00    +0.130 C 
ATOM     15  C   UNL     1      -9.418 -10.838  19.519  0.00  0.00    +0.119 C 
ATOM     16  C   UNL     1      -7.500 -11.122  17.938  0.00  0.00    +0.027 A 
ATOM     17  C   UNL     1      -6.737 -10.022  17.818  0.00  0.00    +0.024 A 
ATOM     18  C   UNL     1      -7.376 -11.526  15.518  0.00  0.00    +0.273 A 
ATOM     19  C   UNL     1     -11.251 -10.516  17.745  0.00  0.00    +0.306 C 
ATOM     20  C   UNL     1      -6.550 -10.281  15.425  0.00  0.00    +0.099 A 
ATOM     21  C   UNL     1      -6.255  -9.595  16.534  0.00  0.00    +0.030 A 
ATOM     35  H   UNL     1     -10.740  -8.812  18.816  0.00  0.00    +0.156 HD
ENDROOT
BRANCH   7  22
ATOM     22  C   UNL     1     -11.334  -8.121  16.974  0.00  0.00    +0.035 A 
ATOM     24  C   UNL     1     -12.637  -7.913  16.529  0.00  0.00    +0.027 A 
ATOM     25  C   UNL     1     -10.293  -7.328  16.498  0.00  0.00    +0.027 A 
ATOM     27  C   UNL     1     -12.901  -6.906  15.602  0.00  0.00    +0.047 A 
ATOM     28  C   UNL     1     -10.557  -6.321  15.571  0.00  0.00    +0.047 A 
ATOM     29  C   UNL     1     -11.861  -6.109  15.124  0.00  0.00    +0.120 A 
BRANCH  29   4
ATOM      4  O   UNL     1     -12.118  -5.125  14.219  0.00  0.00    -0.495 OA
ATOM     34  C   UNL     1     -13.436  -5.070  13.675  0.00  0.00    +0.277 C 
ENDBRANCH  29   4
ENDBRANCH   7  22
BRANCH  20   8
ATOM      3  O   UNL     1      -4.198 -11.203  14.097  0.00  0.00    -0.268 OA
ATOM      8  N   UNL     1      -6.116  -9.892  14.192  0.00  0.00    -0.276 N 
ATOM     23  C   UNL     1      -4.960 -10.379  13.598  0.00  0.00    +0.267 C 
ATOM     36  H   UNL     1      -6.564  -9.078  13.778  0.00  0.00    +0.155 HD
BRANCH  23  26
ATOM      9  N   UNL     1      -5.604  -9.044  11.742  0.00  0.00    -0.250 NA
ATOM     26  C   UNL     1      -4.663  -9.855  12.240  0.00  0.00    +0.126 A 
ATOM     30  C   UNL     1      -3.497 -10.226  11.624  0.00  0.00    +0.033 A 
ATOM     31  C   UNL     1      -3.269  -9.708  10.354  0.00  0.00    +0.004 A 
ATOM     32  C   UNL     1      -5.347  -8.560  10.505  0.00  0.00    +0.111 A 
ATOM     33  C   UNL     1      -4.206  -8.859   9.777  0.00  0.00    +0.020 A 
ENDBRANCH  23  26
ENDBRANCH  20   8
TORSDOF 4
ENDMDL
MODEL 5
REMARK VINA RESULT:      -7.4     27.825     30.204
REMARK  Name = 7155600
REMARK  5 active torsions:
REMARK  status: ('A' for Active; 'I' for Inactive)
REMARK    1  A    between atoms: O_4  and  C_29
REMARK    2  A    between atoms: O_4  and  C_34
REMARK    3  A    between atoms: N_7  and  C_22
REMARK    4  A    between atoms: N_8  and  C_20
REMARK    5  A    between atoms: C_23  and  C_26
REMARK                            x       y       z     vdW  Elec       q    Type
REMARK                         _______ _______ _______ _____ _____    ______ ____
ROOT
ATOM      1  O   UNL     1      -8.195  -8.443  17.020  0.00  0.00    -0.266 OA
ATOM      2  O   UNL     1      -3.287 -10.066  16.267  0.00  0.00    -0.252 OA
ATOM      5  N   UNL     1      -4.532 -11.861  17.026  0.00  0.00    -0.284 N 
ATOM      6  N   UNL     1      -7.473 -10.650  17.275  0.00  0.00    -0.310 N 
ATOM      7  N   UNL     1      -4.034 -11.634  14.730  0.00  0.00    -0.269 N 
ATOM     10  C   UNL     1      -5.833 -11.369  19.103  0.00  0.00    +0.027 C 
ATOM     11  C   UNL     1      -6.679 -13.031  17.503  0.00  0.00    +0.054 C 
ATOM     12  C   UNL     1      -6.515 -12.727  18.990  0.00  0.00    +0.018 C 
ATOM     13  C   UNL     1      -4.457 -11.401  18.417  0.00  0.00    +0.114 C 
ATOM     14  C   UNL     1      -6.752 -10.298  18.505  0.00  0.00    +0.130 C 
ATOM     15  C   UNL     1      -5.293 -13.109  16.828  0.00  0.00    +0.119 C 
ATOM     16  C   UNL     1      -7.521 -11.972  16.818  0.00  0.00    +0.027 A 
ATOM     17  C   UNL     1      -8.282 -12.292  15.756  0.00  0.00    +0.024 A 
ATOM     18  C   UNL     1      -8.194  -9.615  16.644  0.00  0.00    +0.273 A 
ATOM     19  C   UNL     1      -3.906 -11.103  16.014  0.00  0.00    +0.306 C 
ATOM     20  C   UNL     1      -9.008 -10.009  15.451  0.00  0.00    +0.099 A 
ATOM     21  C   UNL     1      -9.037 -11.288  15.061  0.00  0.00    +0.030 A 
ATOM     35  H   UNL     1      -4.145 -12.638  14.635  0.00  0.00    +0.156 HD
ENDROOT
BRANCH   7  22
ATOM     22  C   UNL     1      -3.976 -10.931  13.503  0.00  0.00    +0.035 A 
ATOM     24  C   UNL     1      -5.115 -10.297  13.014  0.00  0.00    +0.027 A 
ATOM     25  C   UNL     1      -2.781 -10.879  12.790  0.00  0.00    +0.027 A 
ATOM     27  C   UNL     1      -5.059  -9.604  11.805  0.00  0.00    +0.047 A 
ATOM     28  C   UNL     1      -2.725 -10.186  11.581  0.00  0.00    +0.047 A 
ATOM     29  C   UNL     1      -3.863  -9.548  11.089  0.00  0.00    +0.120 A 
BRANCH  29   4
ATOM      4  O   UNL     1      -3.808  -8.872   9.909  0.00  0.00    -0.495 OA
ATOM     34  C   UNL     1      -4.603  -9.372   8.835  0.00  0.00    +0.277 C 
ENDBRANCH  29   4
ENDBRANCH   7  22
BRANCH  20   8
ATOM      3  O   UNL     1     -11.665  -9.158  16.046  0.00  0.00    -0.268 OA
ATOM      8  N   UNL     1      -9.705  -9.034  14.802  0.00  0.00    -0.276 N 
ATOM     23  C   UNL     1     -10.999  -8.664  15.140  0.00  0.00    +0.267 C 
ATOM     36  H   UNL     1      -9.323  -8.698  13.921  0.00  0.00    +0.155 HD
BRANCH  23  26
ATOM      9  N   UNL     1     -11.960  -7.922  13.099  0.00  0.00    -0.250 NA
ATOM     26  C   UNL     1     -11.588  -7.564  14.333  0.00  0.00    +0.126 A 
ATOM     30  C   UNL     1     -11.699  -6.317  14.889  0.00  0.00    +0.033 A 
ATOM     31  C   UNL     1     -12.255  -5.325  14.089  0.00  0.00    +0.004 A 
ATOM     32  C   UNL     1     -12.496  -6.930  12.351  0.00  0.00    +0.111 A 
ATOM     33  C   UNL     1     -12.663  -5.628  12.796  0.00  0.00    +0.020 A 
ENDBRANCH  23  26
ENDBRANCH  20   8
TORSDOF 4
ENDMDL
MODEL 6
REMARK VINA RESULT:      -7.4     13.329     16.765
REMARK  Name = 7155600
REMARK  5 active torsions:
REMARK  status: ('A' for Active; 'I' for Inactive)
REMARK    1  A    between atoms: O_4  and  C_29
REMARK    2  A    between atoms: O_4  and  C_34
REMARK    3  A    between atoms: N_7  and  C_22
REMARK    4  A    between atoms: N_8  and  C_20
REMARK    5  A    between atoms: C_23  and  C_26
REMARK                            x       y       z     vdW  Elec       q    Type
REMARK                         _______ _______ _______ _____ _____    ______ ____
ROOT
ATOM      1  O   UNL     1      10.239   7.195   0.989  0.00  0.00    -0.266 OA
ATOM      2  O   UNL     1      11.803   9.645   5.330  0.00  0.00    -0.252 OA
ATOM      5  N   UNL     1      10.474   7.855   5.950  0.00  0.00    -0.284 N 
ATOM      6  N   UNL     1       9.774   6.472   3.161  0.00  0.00    -0.310 N 
ATOM      7  N   UNL     1      12.826   7.699   6.068  0.00  0.00    -0.269 N 
ATOM     10  C   UNL     1       8.274   7.786   4.766  0.00  0.00    +0.027 C 
ATOM     11  C   UNL     1       9.320   5.691   5.514  0.00  0.00    +0.054 C 
ATOM     12  C   UNL     1       7.987   6.426   5.393  0.00  0.00    +0.018 C 
ATOM     13  C   UNL     1       9.241   8.590   5.651  0.00  0.00    +0.114 C 
ATOM     14  C   UNL     1       8.823   7.576   3.351  0.00  0.00    +0.130 C 
ATOM     15  C   UNL     1      10.271   6.480   6.440  0.00  0.00    +0.119 C 
ATOM     16  C   UNL     1       9.968   5.507   4.155  0.00  0.00    +0.027 A 
ATOM     17  C   UNL     1      10.754   4.442   3.917  0.00  0.00    +0.024 A 
ATOM     18  C   UNL     1      10.394   6.380   1.899  0.00  0.00    +0.273 A 
ATOM     19  C   UNL     1      11.721   8.486   5.746  0.00  0.00    +0.306 C 
ATOM     20  C   UNL     1      11.280   5.192   1.684  0.00  0.00    +0.099 A 
ATOM     21  C   UNL     1      11.422   4.286   2.656  0.00  0.00    +0.030 A 
ATOM     35  H   UNL     1      12.716   6.983   6.778  0.00  0.00    +0.156 HD
ENDROOT
BRANCH   7  22
ATOM     22  C   UNL     1      14.138   7.812   5.547  0.00  0.00    +0.035 A 
ATOM     24  C   UNL     1      14.416   7.348   4.264  0.00  0.00    +0.027 A 
ATOM     25  C   UNL     1      15.144   8.385   6.321  0.00  0.00    +0.027 A 
ATOM     27  C   UNL     1      15.708   7.458   3.751  0.00  0.00    +0.047 A 
ATOM     28  C   UNL     1      16.436   8.496   5.808  0.00  0.00    +0.047 A 
ATOM     29  C   UNL     1      16.718   8.033   4.523  0.00  0.00    +0.120 A 
BRANCH  29   4
ATOM      4  O   UNL     1      17.979   8.142   4.023  0.00  0.00    -0.495 OA
ATOM     34  C   UNL     1      19.013   8.499   4.938  0.00  0.00    +0.277 C 
ENDBRANCH  29   4
ENDBRANCH   7  22
BRANCH  20   8
ATOM      3  O   UNL     1      10.260   3.880  -0.636  0.00  0.00    -0.268 OA
ATOM      8  N   UNL     1      11.912   5.075   0.481  0.00  0.00    -0.276 N 
ATOM     23  C   UNL     1      11.362   4.423  -0.613  0.00  0.00    +0.267 C 
ATOM     36  H   UNL     1      12.900   5.317   0.451  0.00  0.00    +0.155 HD
BRANCH  23  26
ATOM      9  N   UNL     1      12.955   5.506  -2.002  0.00  0.00    -0.250 NA
ATOM     26  C   UNL     1      12.192   4.419  -1.846  0.00  0.00    +0.126 A 
ATOM     30  C   UNL     1      12.114   3.347  -2.695  0.00  0.00    +0.033 A 
ATOM     31  C   UNL     1      12.911   3.395  -3.834  0.00  0.00    +0.004 A 
ATOM     32  C   UNL     1      13.715   5.517  -3.121  0.00  0.00    +0.111 A 
ATOM     33  C   UNL     1      13.729   4.497  -4.059  0.00  0.00    +0.020 A 
ENDBRANCH  23  26
ENDBRANCH  20   8
TORSDOF 4
ENDMDL
MODEL 7
REMARK VINA RESULT:      -7.1     28.430     31.707
REMARK  Name = 7155600
REMARK  5 active torsions:
REMARK  status: ('A' for Active; 'I' for Inactive)
REMARK    1  A    between atoms: O_4  and  C_29
REMARK    2  A    between atoms: O_4  and  C_34
REMARK    3  A    between atoms: N_7  and  C_22
REMARK    4  A    between atoms: N_8  and  C_20
REMARK    5  A    between atoms: C_23  and  C_26
REMARK                            x       y       z     vdW  Elec       q    Type
REMARK                         _______ _______ _______ _____ _____    ______ ____
ROOT
ATOM      1  O   UNL     1      -7.230 -13.797  16.252  0.00  0.00    -0.266 OA
ATOM      2  O   UNL     1     -12.147 -12.254  17.107  0.00  0.00    -0.252 OA
ATOM      5  N   UNL     1     -11.275 -13.025  19.106  0.00  0.00    -0.284 N 
ATOM      6  N   UNL     1      -8.267 -13.768  18.346  0.00  0.00    -0.310 N 
ATOM      7  N   UNL     1     -11.399 -10.709  18.666  0.00  0.00    -0.269 N 
ATOM     10  C   UNL     1     -10.236 -15.292  18.936  0.00  0.00    +0.027 C 
ATOM     11  C   UNL     1      -9.394 -13.690  20.598  0.00  0.00    +0.054 C 
ATOM     12  C   UNL     1      -9.732 -15.161  20.368  0.00  0.00    +0.018 C 
ATOM     13  C   UNL     1     -11.489 -14.425  18.728  0.00  0.00    +0.114 C 
ATOM     14  C   UNL     1      -9.106 -14.914  17.972  0.00  0.00    +0.130 C 
ATOM     15  C   UNL     1     -10.666 -12.829  20.434  0.00  0.00    +0.119 C 
ATOM     16  C   UNL     1      -8.328 -13.214  19.629  0.00  0.00    +0.027 A 
ATOM     17  C   UNL     1      -7.471 -12.243  19.987  0.00  0.00    +0.024 A 
ATOM     18  C   UNL     1      -7.331 -13.329  17.387  0.00  0.00    +0.273 A 
ATOM     19  C   UNL     1     -11.641 -12.002  18.203  0.00  0.00    +0.306 C 
ATOM     20  C   UNL     1      -6.412 -12.228  17.817  0.00  0.00    +0.099 A 
ATOM     21  C   UNL     1      -6.496 -11.741  19.060  0.00  0.00    +0.030 A 
ATOM     35  H   UNL     1     -11.409 -10.548  19.667  0.00  0.00    +0.156 HD
ENDROOT
BRANCH   7  22
ATOM     22  C   UNL     1     -11.183  -9.547  17.886  0.00  0.00    +0.035 A 
ATOM     24  C   UNL     1     -12.271  -8.855  17.360  0.00  0.00    +0.027 A 
ATOM     25  C   UNL     1      -9.885  -9.103  17.649  0.00  0.00    +0.027 A 
ATOM     27  C   UNL     1     -12.059  -7.711  16.591  0.00  0.00    +0.047 A 
ATOM     28  C   UNL     1      -9.673  -7.959  16.881  0.00  0.00    +0.047 A 
ATOM     29  C   UNL     1     -10.760  -7.262  16.353  0.00  0.00    +0.120 A 
BRANCH  29   4
ATOM      4  O   UNL     1     -10.552  -6.145  15.603  0.00  0.00    -0.495 OA
ATOM     34  C   UNL     1     -11.596  -5.757  14.712  0.00  0.00    +0.277 C 
ENDBRANCH  29   4
ENDBRANCH   7  22
BRANCH  20   8
ATOM      3  O   UNL     1      -3.628 -11.810  18.286  0.00  0.00    -0.268 OA
ATOM      8  N   UNL     1      -5.504 -11.762  16.913  0.00  0.00    -0.276 N 
ATOM     23  C   UNL     1      -4.159 -11.580  17.202  0.00  0.00    +0.267 C 
ATOM     36  H   UNL     1      -5.870 -11.362  16.052  0.00  0.00    +0.155 HD
BRANCH  23  26
ATOM      9  N   UNL     1      -2.091 -10.696  16.440  0.00  0.00    -0.250 NA
ATOM     26  C   UNL     1      -3.319 -11.086  16.080  0.00  0.00    +0.126 A 
ATOM     30  C   UNL     1      -3.844 -11.066  14.815  0.00  0.00    +0.033 A 
ATOM     31  C   UNL     1      -3.016 -10.593  13.804  0.00  0.00    +0.004 A 
ATOM     32  C   UNL     1      -1.315 -10.242  15.429  0.00  0.00    +0.111 A 
ATOM     33  C   UNL     1      -1.727 -10.171  14.108  0.00  0.00    +0.020 A 
ENDBRANCH  23  26
ENDBRANCH  20   8
TORSDOF 4
ENDMDL
MODEL 8
REMARK VINA RESULT:      -7.1      5.377     10.496
REMARK  Name = 7155600
REMARK  5 active torsions:
REMARK  status: ('A' for Active; 'I' for Inactive)
REMARK    1  A    between atoms: O_4  and  C_29
REMARK    2  A    between atoms: O_4  and  C_34
REMARK    3  A    between atoms: N_7  and  C_22
REMARK    4  A    between atoms: N_8  and  C_20
REMARK    5  A    between atoms: C_23  and  C_26
REMARK                            x       y       z     vdW  Elec       q    Type
REMARK                         _______ _______ _______ _____ _____    ______ ____
ROOT
ATOM      1  O   UNL     1      20.709   3.545  20.464  0.00  0.00    -0.266 OA
ATOM      2  O   UNL     1      22.967   2.152  24.964  0.00  0.00    -0.252 OA
ATOM      5  N   UNL     1      24.628   2.827  23.502  0.00  0.00    -0.284 N 
ATOM      6  N   UNL     1      22.993   3.738  20.918  0.00  0.00    -0.310 N 
ATOM      7  N   UNL     1      23.851   4.285  25.188  0.00  0.00    -0.269 N 
ATOM     10  C   UNL     1      24.511   1.708  21.271  0.00  0.00    +0.027 C 
ATOM     11  C   UNL     1      25.445   3.973  21.447  0.00  0.00    +0.054 C 
ATOM     12  C   UNL     1      25.620   2.621  20.762  0.00  0.00    +0.018 C 
ATOM     13  C   UNL     1      24.611   1.542  22.796  0.00  0.00    +0.114 C 
ATOM     14  C   UNL     1      23.157   2.280  20.839  0.00  0.00    +0.130 C 
ATOM     15  C   UNL     1      25.593   3.809  22.975  0.00  0.00    +0.119 C 
ATOM     16  C   UNL     1      24.091   4.578  21.128  0.00  0.00    +0.027 A 
ATOM     17  C   UNL     1      23.938   5.913  21.081  0.00  0.00    +0.024 A 
ATOM     18  C   UNL     1      21.701   4.245  20.670  0.00  0.00    +0.273 A 
ATOM     19  C   UNL     1      23.746   3.031  24.586  0.00  0.00    +0.306 C 
ATOM     20  C   UNL     1      21.569   5.736  20.651  0.00  0.00    +0.099 A 
ATOM     21  C   UNL     1      22.650   6.500  20.839  0.00  0.00    +0.030 A 
ATOM     35  H   UNL     1      24.743   4.765  25.146  0.00  0.00    +0.156 HD
ENDROOT
BRANCH   7  22
ATOM     22  C   UNL     1      22.849   4.971  25.918  0.00  0.00    +0.035 A 
ATOM     24  C   UNL     1      22.592   4.618  27.239  0.00  0.00    +0.027 A 
ATOM     25  C   UNL     1      22.127   5.993  25.308  0.00  0.00    +0.027 A 
ATOM     27  C   UNL     1      21.605   5.293  27.958  0.00  0.00    +0.047 A 
ATOM     28  C   UNL     1      21.140   6.668  26.027  0.00  0.00    +0.047 A 
ATOM     29  C   UNL     1      20.880   6.319  27.352  0.00  0.00    +0.120 A 
BRANCH  29   4
ATOM      4  O   UNL     1      19.918   6.978  28.053  0.00  0.00    -0.495 OA
ATOM     34  C   UNL     1      19.911   6.805  29.468  0.00  0.00    +0.277 C 
ENDBRANCH  29   4
ENDBRANCH   7  22
BRANCH  20   8
ATOM      3  O   UNL     1      19.642   6.402  22.648  0.00  0.00    -0.268 OA
ATOM      8  N   UNL     1      20.332   6.267  20.432  0.00  0.00    -0.276 N 
ATOM     23  C   UNL     1      19.438   6.570  21.449  0.00  0.00    +0.267 C 
ATOM     36  H   UNL     1      19.991   6.265  19.474  0.00  0.00    +0.155 HD
BRANCH  23  26
ATOM      9  N   UNL     1      17.858   8.338  21.588  0.00  0.00    -0.250 NA
ATOM     26  C   UNL     1      18.146   7.163  21.015  0.00  0.00    +0.126 A 
ATOM     30  C   UNL     1      17.379   6.491  20.101  0.00  0.00    +0.033 A 
ATOM     31  C   UNL     1      16.180   7.091  19.732  0.00  0.00    +0.004 A 
ATOM     32  C   UNL     1      16.685   8.890  21.204  0.00  0.00    +0.111 A 
ATOM     33  C   UNL     1      15.819   8.312  20.289  0.00  0.00    +0.020 A 
ENDBRANCH  23  26
ENDBRANCH  20   8
TORSDOF 4
ENDMDL
MODEL 9
REMARK VINA RESULT:      -7.1     13.607     17.634
REMARK  Name = 7155600
REMARK  5 active torsions:
REMARK  status: ('A' for Active; 'I' for Inactive)
REMARK    1  A    between atoms: O_4  and  C_29
REMARK    2  A    between atoms: O_4  and  C_34
REMARK    3  A    between atoms: N_7  and  C_22
REMARK    4  A    between atoms: N_8  and  C_20
REMARK    5  A    between atoms: C_23  and  C_26
REMARK                            x       y       z     vdW  Elec       q    Type
REMARK                         _______ _______ _______ _____ _____    ______ ____
ROOT
ATOM      1  O   UNL     1       9.418  10.592   3.216  0.00  0.00    -0.266 OA
ATOM      2  O   UNL     1      13.727   7.697   2.629  0.00  0.00    -0.252 OA
ATOM      5  N   UNL     1      13.093   7.605   4.852  0.00  0.00    -0.284 N 
ATOM      6  N   UNL     1      10.403   9.320   4.910  0.00  0.00    -0.310 N 
ATOM      7  N   UNL     1      12.582   5.827   3.386  0.00  0.00    -0.269 N 
ATOM     10  C   UNL     1      12.712   9.852   5.877  0.00  0.00    +0.027 C 
ATOM     11  C   UNL     1      11.461   7.908   6.710  0.00  0.00    +0.054 C 
ATOM     12  C   UNL     1      12.187   9.180   7.140  0.00  0.00    +0.018 C 
ATOM     13  C   UNL     1      13.682   8.917   5.136  0.00  0.00    +0.114 C 
ATOM     14  C   UNL     1      11.524  10.265   5.001  0.00  0.00    +0.130 C 
ATOM     15  C   UNL     1      12.450   6.953   6.008  0.00  0.00    +0.119 C 
ATOM     16  C   UNL     1      10.308   8.225   5.776  0.00  0.00    +0.027 A 
ATOM     17  C   UNL     1       9.217   7.440   5.754  0.00  0.00    +0.024 A 
ATOM     18  C   UNL     1       9.386   9.631   3.985  0.00  0.00    +0.273 A 
ATOM     19  C   UNL     1      13.169   7.083   3.542  0.00  0.00    +0.306 C 
ATOM     20  C   UNL     1       8.200   8.716   3.975  0.00  0.00    +0.099 A 
ATOM     21  C   UNL     1       8.145   7.692   4.833  0.00  0.00    +0.030 A 
ATOM     35  H   UNL     1      12.546   5.211   4.190  0.00  0.00    +0.156 HD
ENDROOT
BRANCH   7  22
ATOM     22  C   UNL     1      12.060   5.269   2.194  0.00  0.00    +0.035 A 
ATOM     24  C   UNL     1      10.702   5.385   1.912  0.00  0.00    +0.027 A 
ATOM     25  C   UNL     1      12.908   4.605   1.311  0.00  0.00    +0.027 A 
ATOM     27  C   UNL     1      10.187   4.835   0.738  0.00  0.00    +0.047 A 
ATOM     28  C   UNL     1      12.393   4.055   0.137  0.00  0.00    +0.047 A 
ATOM     29  C   UNL     1      11.033   4.171  -0.149  0.00  0.00    +0.120 A 
BRANCH  29   4
ATOM      4  O   UNL     1      10.532   3.634  -1.296  0.00  0.00    -0.495 OA
ATOM     34  C   UNL     1      11.434   2.893  -2.115  0.00  0.00    +0.277 C 
ENDBRANCH  29   4
ENDBRANCH   7  22
BRANCH  20   8
ATOM      3  O   UNL     1       5.928  10.385   4.419  0.00  0.00    -0.268 OA
ATOM      8  N   UNL     1       7.202   8.972   3.082  0.00  0.00    -0.276 N 
ATOM     23  C   UNL     1       6.120   9.796   3.358  0.00  0.00    +0.267 C 
ATOM     36  H   UNL     1       7.162   8.387   2.250  0.00  0.00    +0.155 HD
BRANCH  23  26
ATOM      9  N   UNL     1       3.940  10.406   2.639  0.00  0.00    -0.250 NA
ATOM     26  C   UNL     1       5.145   9.973   2.251  0.00  0.00    +0.126 A 
ATOM     30  C   UNL     1       5.536   9.691   0.969  0.00  0.00    +0.033 A 
ATOM     31  C   UNL     1       4.584   9.872  -0.028  0.00  0.00    +0.004 A 
ATOM     32  C   UNL     1       3.041  10.571   1.642  0.00  0.00    +0.111 A 
ATOM     33  C   UNL     1       3.311  10.321   0.306  0.00  0.00    +0.020 A 
ENDBRANCH  23  26
ENDBRANCH  20   8
TORSDOF 4
ENDMDL
MODEL 10
REMARK VINA RESULT:      -7.0     28.034     30.002
REMARK  Name = 7155600
REMARK  5 active torsions:
REMARK  status: ('A' for Active; 'I' for Inactive)
REMARK    1  A    between atoms: O_4  and  C_29
REMARK    2  A    between atoms: O_4  and  C_34
REMARK    3  A    between atoms: N_7  and  C_22
REMARK    4  A    between atoms: N_8  and  C_20
REMARK    5  A    between atoms: C_23  and  C_26
REMARK                            x       y       z     vdW  Elec       q    Type
REMARK                         _______ _______ _______ _____ _____    ______ ____
ROOT
ATOM      1  O   UNL     1      -4.473 -12.889   9.790  0.00  0.00    -0.266 OA
ATOM      2  O   UNL     1      -5.805 -13.664  14.782  0.00  0.00    -0.252 OA
ATOM      5  N   UNL     1      -3.554 -13.135  14.709  0.00  0.00    -0.284 N 
ATOM      6  N   UNL     1      -3.038 -12.588  11.608  0.00  0.00    -0.310 N 
ATOM      7  N   UNL     1      -5.151 -11.500  15.299  0.00  0.00    -0.269 N 
ATOM     10  C   UNL     1      -2.253 -14.523  13.088  0.00  0.00    +0.027 C 
ATOM     11  C   UNL     1      -1.521 -12.231  13.589  0.00  0.00    +0.054 C 
ATOM     12  C   UNL     1      -1.026 -13.653  13.339  0.00  0.00    +0.018 C 
ATOM     13  C   UNL     1      -3.186 -14.497  14.310  0.00  0.00    +0.114 C 
ATOM     14  C   UNL     1      -2.954 -14.040  11.814  0.00  0.00    +0.130 C 
ATOM     15  C   UNL     1      -2.420 -12.202  14.844  0.00  0.00    +0.119 C 
ATOM     16  C   UNL     1      -2.294 -11.702  12.396  0.00  0.00    +0.027 A 
ATOM     17  C   UNL     1      -2.295 -10.387  12.116  0.00  0.00    +0.024 A 
ATOM     18  C   UNL     1      -3.817 -12.146  10.520  0.00  0.00    +0.273 A 
ATOM     19  C   UNL     1      -4.915 -12.821  14.917  0.00  0.00    +0.306 C 
ATOM     20  C   UNL     1      -3.810 -10.672  10.258  0.00  0.00    +0.099 A 
ATOM     21  C   UNL     1      -3.070  -9.865  11.026  0.00  0.00    +0.030 A 
ATOM     35  H   UNL     1      -4.421 -11.008  15.802  0.00  0.00    +0.156 HD
ENDROOT
BRANCH   7  22
ATOM     22  C   UNL     1      -6.340 -10.754  15.111  0.00  0.00    +0.035 A 
ATOM     24  C   UNL     1      -7.042 -10.281  16.216  0.00  0.00    +0.027 A 
ATOM     25  C   UNL     1      -6.799 -10.497  13.822  0.00  0.00    +0.027 A 
ATOM     27  C   UNL     1      -8.213  -9.547  16.032  0.00  0.00    +0.047 A 
ATOM     28  C   UNL     1      -7.970  -9.762  13.638  0.00  0.00    +0.047 A 
ATOM     29  C   UNL     1      -8.676  -9.286  14.742  0.00  0.00    +0.120 A 
BRANCH  29   4
ATOM      4  O   UNL     1      -9.819  -8.569  14.561  0.00  0.00    -0.495 OA
ATOM     34  C   UNL     1     -10.177  -7.647  15.589  0.00  0.00    +0.277 C 
ENDBRANCH  29   4
ENDBRANCH   7  22
BRANCH  20   8
ATOM      3  O   UNL     1      -6.412  -9.516  10.460  0.00  0.00    -0.268 OA
ATOM      8  N   UNL     1      -4.565 -10.201   9.224  0.00  0.00    -0.276 N 
ATOM     23  C   UNL     1      -5.827  -9.649   9.388  0.00  0.00    +0.267 C 
ATOM     36  H   UNL     1      -4.260 -10.438   8.283  0.00  0.00    +0.155 HD
BRANCH  23  26
ATOM      9  N   UNL     1      -7.466  -8.281   8.347  0.00  0.00    -0.250 NA
ATOM     26  C   UNL     1      -6.487  -9.170   8.146  0.00  0.00    +0.126 A 
ATOM     30  C   UNL     1      -6.062  -9.655   6.937  0.00  0.00    +0.033 A 
ATOM     31  C   UNL     1      -6.715  -9.175   5.807  0.00  0.00    +0.004 A 
ATOM     32  C   UNL     1      -8.077  -7.837   7.225  0.00  0.00    +0.111 A 
ATOM     33  C   UNL     1      -7.742  -8.249   5.945  0.00  0.00    +0.020 A 
ENDBRANCH  23  26
ENDBRANCH  20   8
TORSDOF 4
ENDMDL
