REMARK  Name = 28990896
REMARK  6 active torsions:
REMARK  status: ('A' for Active; 'I' for Inactive)
REMARK    1  A    between atoms: N_3  and  C_14
REMARK    2  A    between atoms: N_5  and  C_29
REMARK    3  A    between atoms: N_6  and  C_27
REMARK    4  A    between atoms: C_14  and  C_17
REMARK    5  A    between atoms: C_18  and  C_21
REMARK    6  A    between atoms: C_24  and  C_27
REMARK                            x       y       z     vdW  Elec       q    Type
REMARK                         _______ _______ _______ _____ _____    ______ ____
ROOT
ATOM      1  O   UNL     1      -0.988  -0.017   2.670  0.00  0.00    -0.267 OA
ATOM      3  N   UNL     1       3.055  -2.048   0.507  0.00  0.00    -0.297 NA
ATOM      4  N   UNL     1      -0.020  -1.501   1.155  0.00  0.00    -0.311 N 
ATOM      7  C   UNL     1       1.491  -3.438   1.887  0.00  0.00    +0.024 C 
ATOM      8  C   UNL     1       1.020  -3.097  -0.491  0.00  0.00    +0.050 C 
ATOM      9  C   UNL     1       0.966  -4.127   0.634  0.00  0.00    +0.017 C 
ATOM     10  C   UNL     1       2.938  -2.953   1.657  0.00  0.00    +0.090 C 
ATOM     11  C   UNL     1       2.482  -2.646  -0.708  0.00  0.00    +0.094 C 
ATOM     12  C   UNL     1       0.537  -2.295   2.260  0.00  0.00    +0.130 C 
ATOM     13  C   UNL     1       0.137  -1.904  -0.173  0.00  0.00    +0.026 A 
ATOM     15  C   UNL     1      -0.474  -1.229  -1.159  0.00  0.00    +0.022 A 
ATOM     16  C   UNL     1      -0.799  -0.383   1.508  0.00  0.00    +0.259 A 
ATOM     18  C   UNL     1      -1.444   0.376   0.379  0.00  0.00    +0.047 A 
ATOM     19  C   UNL     1      -1.270  -0.069  -0.875  0.00  0.00    +0.015 A 
ENDROOT
BRANCH  18  21
ATOM     21  C   UNL     1      -2.244   1.587   0.631  0.00  0.00    -0.008 A 
ATOM     24  C   UNL     1      -3.618   1.514   0.855  0.00  0.00    -0.025 A 
ATOM     26  C   UNL     1      -1.600   2.824   0.642  0.00  0.00    +0.009 A 
ATOM     30  C   UNL     1      -4.349   2.679   1.090  0.00  0.00    +0.005 A 
ATOM     32  C   UNL     1      -2.331   3.989   0.876  0.00  0.00    +0.001 A 
ATOM     36  C   UNL     1      -3.705   3.917   1.100  0.00  0.00    +0.000 A 
BRANCH  24  27
ATOM     27  C   UNL     1      -4.342   0.206   0.851  0.00  0.00    +0.120 C 
BRANCH  27   6
ATOM      2  O   UNL     1      -6.111  -1.614  -2.492  0.00  0.00    -0.377 OA
ATOM      6  N   UNL     1      -4.552  -0.306  -0.502  0.00  0.00    -0.294 NA
ATOM     33  C   UNL     1      -5.699   0.357  -1.139  0.00  0.00    +0.113 C 
ATOM     34  C   UNL     1      -4.758  -1.760  -0.483  0.00  0.00    +0.113 C 
ATOM     37  C   UNL     1      -5.906  -0.202  -2.543  0.00  0.00    +0.175 C 
ATOM     38  C   UNL     1      -4.986  -2.269  -1.904  0.00  0.00    +0.175 C 
ENDBRANCH  27   6
ENDBRANCH  24  27
ENDBRANCH  18  21
BRANCH   3  14
ATOM     14  C   UNL     1       4.445  -1.653   0.290  0.00  0.00    +0.121 C 
BRANCH  14  17
ATOM      5  N   UNL     1       5.055   1.191  -1.963  0.00  0.00    -0.349 N 
ATOM     17  C   UNL     1       4.548  -0.339  -0.437  0.00  0.00    -0.008 A 
ATOM     20  C   UNL     1       4.012   0.908  -0.011  0.00  0.00    +0.004 A 
ATOM     22  C   UNL     1       5.184  -0.133  -1.640  0.00  0.00    +0.091 A 
ATOM     23  C   UNL     1       4.344   1.852  -0.986  0.00  0.00    +0.049 A 
ATOM     25  C   UNL     1       3.274   1.327   1.114  0.00  0.00    +0.010 A 
ATOM     28  C   UNL     1       3.973   3.198  -0.892  0.00  0.00    +0.026 A 
ATOM     29  C   UNL     1       5.597   1.795  -3.161  0.00  0.00    +0.149 C 
ATOM     31  C   UNL     1       2.896   2.671   1.221  0.00  0.00    +0.001 A 
ATOM     35  C   UNL     1       3.242   3.590   0.233  0.00  0.00    +0.002 A 
ENDBRANCH  14  17
ENDBRANCH   3  14
TORSDOF 5
