MODEL 1
REMARK VINA RESULT:      -7.5      0.000      0.000
REMARK  Name = 11941671
REMARK  5 active torsions:
REMARK  status: ('A' for Active; 'I' for Inactive)
REMARK    1  A    between atoms: N_5  and  C_12
REMARK    2  A    between atoms: N_6  and  C_13
REMARK    3  A    between atoms: C_17  and  C_18
REMARK    4  A    between atoms: C_19  and  C_23
REMARK    5  A    between atoms: C_28  and  C_31
REMARK                            x       y       z     vdW  Elec       q    Type
REMARK                         _______ _______ _______ _____ _____    ______ ____
ROOT
ATOM      1  O   UNL     1      -4.888  -8.743  10.394  0.00  0.00    -0.370 OA
ATOM      2  O   UNL     1      -6.269 -11.535  10.201  0.00  0.00    -0.370 OA
ATOM     10  C   UNL     1      -4.922 -11.120  10.486  0.00  0.00    +0.171 C 
ATOM     11  C   UNL     1      -4.626  -9.918   9.609  0.00  0.00    +0.171 C 
ATOM     12  C   UNL     1      -4.825 -10.583  11.894  0.00  0.00    +0.130 C 
ATOM     13  C   UNL     1      -5.626 -10.032   8.481  0.00  0.00    +0.130 C 
ATOM     14  C   UNL     1      -5.245  -9.134  11.728  0.00  0.00    +0.185 C 
ATOM     15  C   UNL     1      -6.805 -10.708   9.158  0.00  0.00    +0.185 C 
ENDROOT
BRANCH  12   5
ATOM      5  N   UNL     1      -3.457 -10.658  12.360  0.00  0.00    -0.306 N 
ATOM      7  N   UNL     1      -4.105 -10.583  14.614  0.00  0.00    -0.214 NA
ATOM      8  N   UNL     1      -1.780 -10.736  13.998  0.00  0.00    -0.223 NA
ATOM     16  C   UNL     1      -3.103 -10.659  13.697  0.00  0.00    +0.216 A 
ATOM     19  C   UNL     1      -3.724 -10.586  15.908  0.00  0.00    +0.076 A 
ATOM     21  C   UNL     1      -1.471 -10.735  15.311  0.00  0.00    +0.116 A 
ATOM     22  C   UNL     1      -2.409 -10.662  16.320  0.00  0.00    +0.048 A 
ATOM     32  H   UNL     1      -2.707 -10.767  11.687  0.00  0.00    +0.149 HD
BRANCH  19  23
ATOM     23  C   UNL     1      -4.802 -10.507  16.865  0.00  0.00    +0.002 A 
ATOM     26  C   UNL     1      -5.982  -9.834  16.538  0.00  0.00    +0.029 A 
ATOM     27  C   UNL     1      -4.668 -11.100  18.121  0.00  0.00    +0.010 A 
ATOM     28  C   UNL     1      -7.023  -9.757  17.463  0.00  0.00    +0.052 A 
ATOM     29  C   UNL     1      -5.709 -11.024  19.047  0.00  0.00    +0.002 A 
ATOM     30  C   UNL     1      -6.886 -10.352  18.718  0.00  0.00    +0.019 A 
BRANCH  28  31
ATOM      9  N   UNL     1      -9.211  -8.510  16.855  0.00  0.00    -0.191 NA
ATOM     31  C   UNL     1      -8.230  -9.069  17.127  0.00  0.00    +0.099 C 
ENDBRANCH  28  31
ENDBRANCH  19  23
ENDBRANCH  12   5
BRANCH  13   6
ATOM      3  O   UNL     1      -6.369  -9.832   5.768  0.00  0.00    -0.267 OA
ATOM      6  N   UNL     1      -5.108 -10.839   7.404  0.00  0.00    -0.301 N 
ATOM     17  C   UNL     1      -5.529 -10.677   6.084  0.00  0.00    +0.280 C 
ATOM     33  H   UNL     1      -4.376 -11.514   7.610  0.00  0.00    +0.150 HD
BRANCH  17  18
ATOM      4  O   UNL     1      -5.563 -11.759   3.961  0.00  0.00    -0.458 OA
ATOM     18  C   UNL     1      -4.885 -11.553   5.095  0.00  0.00    +0.189 A 
ATOM     20  C   UNL     1      -3.703 -12.193   5.146  0.00  0.00    +0.054 A 
ATOM     24  C   UNL     1      -3.616 -12.883   3.912  0.00  0.00    +0.042 A 
ATOM     25  C   UNL     1      -4.771 -12.587   3.228  0.00  0.00    +0.196 A 
ENDBRANCH  17  18
ENDBRANCH  13   6
TORSDOF 5
ENDMDL
MODEL 2
REMARK VINA RESULT:      -6.8     23.759     26.905
REMARK  Name = 11941671
REMARK  5 active torsions:
REMARK  status: ('A' for Active; 'I' for Inactive)
REMARK    1  A    between atoms: N_5  and  C_12
REMARK    2  A    between atoms: N_6  and  C_13
REMARK    3  A    between atoms: C_17  and  C_18
REMARK    4  A    between atoms: C_19  and  C_23
REMARK    5  A    between atoms: C_28  and  C_31
REMARK                            x       y       z     vdW  Elec       q    Type
REMARK                         _______ _______ _______ _____ _____    ______ ____
ROOT
ATOM      1  O   UNL     1      10.547   4.588   4.641  0.00  0.00    -0.370 OA
ATOM      2  O   UNL     1       9.863   7.269   3.198  0.00  0.00    -0.370 OA
ATOM     10  C   UNL     1      11.101   6.636   3.565  0.00  0.00    +0.171 C 
ATOM     11  C   UNL     1      10.881   5.961   4.905  0.00  0.00    +0.171 C 
ATOM     12  C   UNL     1      11.407   5.497   2.623  0.00  0.00    +0.130 C 
ATOM     13  C   UNL     1       9.693   6.688   5.492  0.00  0.00    +0.130 C 
ATOM     14  C   UNL     1      10.628   4.344   3.229  0.00  0.00    +0.185 C 
ATOM     15  C   UNL     1       8.909   7.084   4.253  0.00  0.00    +0.185 C 
ENDROOT
BRANCH  12   5
ATOM      5  N   UNL     1      12.825   5.207   2.639  0.00  0.00    -0.306 N 
ATOM      7  N   UNL     1      12.844   4.620   0.368  0.00  0.00    -0.214 NA
ATOM      8  N   UNL     1      14.862   4.543   1.683  0.00  0.00    -0.223 NA
ATOM     16  C   UNL     1      13.531   4.777   1.531  0.00  0.00    +0.216 A 
ATOM     19  C   UNL     1      13.564   4.200  -0.693  0.00  0.00    +0.076 A 
ATOM     21  C   UNL     1      15.519   4.125   0.582  0.00  0.00    +0.116 A 
ATOM     22  C   UNL     1      14.917   3.935  -0.645  0.00  0.00    +0.048 A 
ATOM     32  H   UNL     1      13.357   5.371   3.487  0.00  0.00    +0.149 HD
BRANCH  19  23
ATOM     23  C   UNL     1      12.816   4.041  -1.917  0.00  0.00    +0.002 A 
ATOM     26  C   UNL     1      11.771   3.116  -1.986  0.00  0.00    +0.029 A 
ATOM     27  C   UNL     1      13.135   4.811  -3.038  0.00  0.00    +0.010 A 
ATOM     28  C   UNL     1      11.049   2.963  -3.170  0.00  0.00    +0.052 A 
ATOM     29  C   UNL     1      12.413   4.657  -4.221  0.00  0.00    +0.002 A 
ATOM     30  C   UNL     1      11.371   3.734  -4.288  0.00  0.00    +0.019 A 
BRANCH  28  31
ATOM      9  N   UNL     1       9.113   1.246  -3.295  0.00  0.00    -0.191 NA
ATOM     31  C   UNL     1       9.981   2.016  -3.240  0.00  0.00    +0.099 C 
ENDBRANCH  28  31
ENDBRANCH  19  23
ENDBRANCH  12   5
BRANCH  13   6
ATOM      3  O   UNL     1       8.471   7.660   7.841  0.00  0.00    -0.267 OA
ATOM      6  N   UNL     1      10.110   7.849   6.241  0.00  0.00    -0.301 N 
ATOM     17  C   UNL     1       9.449   8.265   7.397  0.00  0.00    +0.280 C 
ATOM     33  H   UNL     1      10.942   8.349   5.941  0.00  0.00    +0.150 HD
BRANCH  17  18
ATOM      4  O   UNL     1      11.305   9.696   7.832  0.00  0.00    -0.458 OA
ATOM     18  C   UNL     1      10.012   9.446   8.066  0.00  0.00    +0.189 A 
ATOM     20  C   UNL     1       9.428  10.334   8.890  0.00  0.00    +0.054 A 
ATOM     24  C   UNL     1      10.457  11.249   9.219  0.00  0.00    +0.042 A 
ATOM     25  C   UNL     1      11.578  10.817   8.550  0.00  0.00    +0.196 A 
ENDBRANCH  17  18
ENDBRANCH  13   6
TORSDOF 5
ENDMDL
MODEL 3
REMARK VINA RESULT:      -6.8      4.154      9.082
REMARK  Name = 11941671
REMARK  5 active torsions:
REMARK  status: ('A' for Active; 'I' for Inactive)
REMARK    1  A    between atoms: N_5  and  C_12
REMARK    2  A    between atoms: N_6  and  C_13
REMARK    3  A    between atoms: C_17  and  C_18
REMARK    4  A    between atoms: C_19  and  C_23
REMARK    5  A    between atoms: C_28  and  C_31
REMARK                            x       y       z     vdW  Elec       q    Type
REMARK                         _______ _______ _______ _____ _____    ______ ____
ROOT
ATOM      1  O   UNL     1      -5.728 -11.929  19.070  0.00  0.00    -0.370 OA
ATOM      2  O   UNL     1      -6.823 -12.486  16.200  0.00  0.00    -0.370 OA
ATOM     10  C   UNL     1      -5.822 -11.592  16.716  0.00  0.00    +0.171 C 
ATOM     11  C   UNL     1      -6.315 -11.091  18.061  0.00  0.00    +0.171 C 
ATOM     12  C   UNL     1      -4.559 -12.351  17.046  0.00  0.00    +0.130 C 
ATOM     13  C   UNL     1      -7.811 -11.303  18.005  0.00  0.00    +0.130 C 
ATOM     14  C   UNL     1      -4.835 -12.864  18.447  0.00  0.00    +0.185 C 
ATOM     15  C   UNL     1      -7.934 -12.522  17.108  0.00  0.00    +0.185 C 
ENDROOT
BRANCH  12   5
ATOM      5  N   UNL     1      -3.427 -11.450  17.056  0.00  0.00    -0.306 N 
ATOM      7  N   UNL     1      -3.214 -11.515  14.721  0.00  0.00    -0.214 NA
ATOM      8  N   UNL     1      -1.718 -10.187  16.064  0.00  0.00    -0.223 NA
ATOM     16  C   UNL     1      -2.767 -11.038  15.913  0.00  0.00    +0.216 A 
ATOM     19  C   UNL     1      -2.547 -11.093  13.627  0.00  0.00    +0.076 A 
ATOM     21  C   UNL     1      -1.097  -9.805  14.929  0.00  0.00    +0.116 A 
ATOM     22  C   UNL     1      -1.471 -10.230  13.670  0.00  0.00    +0.048 A 
ATOM     32  H   UNL     1      -3.119 -11.048  17.935  0.00  0.00    +0.149 HD
BRANCH  19  23
ATOM     23  C   UNL     1      -3.038 -11.609  12.372  0.00  0.00    +0.002 A 
ATOM     26  C   UNL     1      -3.482 -10.733  11.378  0.00  0.00    +0.029 A 
ATOM     27  C   UNL     1      -3.073 -12.987  12.147  0.00  0.00    +0.010 A 
ATOM     28  C   UNL     1      -3.957 -11.233  10.165  0.00  0.00    +0.052 A 
ATOM     29  C   UNL     1      -3.549 -13.487  10.935  0.00  0.00    +0.002 A 
ATOM     30  C   UNL     1      -3.991 -12.611   9.944  0.00  0.00    +0.019 A 
BRANCH  28  31
ATOM      9  N   UNL     1      -4.779  -9.606   8.325  0.00  0.00    -0.191 NA
ATOM     31  C   UNL     1      -4.410 -10.336   9.150  0.00  0.00    +0.099 C 
ENDBRANCH  28  31
ENDBRANCH  19  23
ENDBRANCH  12   5
BRANCH  13   6
ATOM      3  O   UNL     1     -10.466 -10.510  18.529  0.00  0.00    -0.267 OA
ATOM      6  N   UNL     1      -8.479 -10.161  17.429  0.00  0.00    -0.301 N 
ATOM     17  C   UNL     1      -9.799  -9.836  17.742  0.00  0.00    +0.280 C 
ATOM     33  H   UNL     1      -7.951  -9.547  16.814  0.00  0.00    +0.150 HD
BRANCH  17  18
ATOM      4  O   UNL     1      -9.472  -7.940  16.335  0.00  0.00    -0.458 OA
ATOM     18  C   UNL     1     -10.329  -8.625  17.099  0.00  0.00    +0.189 A 
ATOM     20  C   UNL     1     -11.559  -8.084  17.156  0.00  0.00    +0.054 A 
ATOM     24  C   UNL     1     -11.480  -6.928  16.341  0.00  0.00    +0.042 A 
ATOM     25  C   UNL     1     -10.190  -6.886  15.865  0.00  0.00    +0.196 A 
ENDBRANCH  17  18
ENDBRANCH  13   6
TORSDOF 5
ENDMDL
MODEL 4
REMARK VINA RESULT:      -6.7      5.238     10.014
REMARK  Name = 11941671
REMARK  5 active torsions:
REMARK  status: ('A' for Active; 'I' for Inactive)
REMARK    1  A    between atoms: N_5  and  C_12
REMARK    2  A    between atoms: N_6  and  C_13
REMARK    3  A    between atoms: C_17  and  C_18
REMARK    4  A    between atoms: C_19  and  C_23
REMARK    5  A    between atoms: C_28  and  C_31
REMARK                            x       y       z     vdW  Elec       q    Type
REMARK                         _______ _______ _______ _____ _____    ______ ____
ROOT
ATOM      1  O   UNL     1      -9.987 -10.281  15.802  0.00  0.00    -0.370 OA
ATOM      2  O   UNL     1     -10.076  -7.182  16.166  0.00  0.00    -0.370 OA
ATOM     10  C   UNL     1      -9.909  -8.277  17.083  0.00  0.00    +0.171 C 
ATOM     11  C   UNL     1     -10.800  -9.407  16.603  0.00  0.00    +0.171 C 
ATOM     12  C   UNL     1      -8.511  -8.840  16.979  0.00  0.00    +0.130 C 
ATOM     13  C   UNL     1     -11.836  -8.718  15.745  0.00  0.00    +0.130 C 
ATOM     14  C   UNL     1      -8.629  -9.815  15.822  0.00  0.00    +0.185 C 
ATOM     15  C   UNL     1     -11.062  -7.536  15.186  0.00  0.00    +0.185 C 
ENDROOT
BRANCH  12   5
ATOM      5  N   UNL     1      -8.168  -9.545  18.195  0.00  0.00    -0.306 N 
ATOM      7  N   UNL     1      -6.061 -10.164  17.373  0.00  0.00    -0.214 NA
ATOM      8  N   UNL     1      -6.768 -10.817  19.582  0.00  0.00    -0.223 NA
ATOM     16  C   UNL     1      -6.963 -10.195  18.390  0.00  0.00    +0.216 A 
ATOM     19  C   UNL     1      -4.896 -10.809  17.596  0.00  0.00    +0.076 A 
ATOM     21  C   UNL     1      -5.583 -11.441  19.737  0.00  0.00    +0.116 A 
ATOM     22  C   UNL     1      -4.599 -11.470  18.770  0.00  0.00    +0.048 A 
ATOM     32  H   UNL     1      -8.813  -9.529  18.978  0.00  0.00    +0.149 HD
BRANCH  19  23
ATOM     23  C   UNL     1      -3.952 -10.764  16.506  0.00  0.00    +0.002 A 
ATOM     26  C   UNL     1      -4.405 -10.655  15.189  0.00  0.00    +0.029 A 
ATOM     27  C   UNL     1      -2.581 -10.830  16.764  0.00  0.00    +0.010 A 
ATOM     28  C   UNL     1      -3.492 -10.612  14.135  0.00  0.00    +0.052 A 
ATOM     29  C   UNL     1      -1.668 -10.787  15.710  0.00  0.00    +0.002 A 
ATOM     30  C   UNL     1      -2.122 -10.678  14.397  0.00  0.00    +0.019 A 
BRANCH  28  31
ATOM      9  N   UNL     1      -4.335 -10.411  11.694  0.00  0.00    -0.191 NA
ATOM     31  C   UNL     1      -3.957 -10.500  12.789  0.00  0.00    +0.099 C 
ENDBRANCH  28  31
ENDBRANCH  19  23
ENDBRANCH  12   5
BRANCH  13   6
ATOM      3  O   UNL     1     -14.509  -8.556  14.859  0.00  0.00    -0.267 OA
ATOM      6  N   UNL     1     -12.961  -8.279  16.535  0.00  0.00    -0.301 N 
ATOM     17  C   UNL     1     -14.256  -8.228  16.020  0.00  0.00    +0.280 C 
ATOM     33  H   UNL     1     -12.808  -8.047  17.513  0.00  0.00    +0.150 HD
BRANCH  17  18
ATOM      4  O   UNL     1     -15.871  -6.610  16.696  0.00  0.00    -0.458 OA
ATOM     18  C   UNL     1     -15.300  -7.790  16.958  0.00  0.00    +0.189 A 
ATOM     20  C   UNL     1     -15.783  -8.395  18.058  0.00  0.00    +0.054 A 
ATOM     24  C   UNL     1     -16.768  -7.506  18.552  0.00  0.00    +0.042 A 
ATOM     25  C   UNL     1     -16.783  -6.436  17.688  0.00  0.00    +0.196 A 
ENDBRANCH  17  18
ENDBRANCH  13   6
TORSDOF 5
ENDMDL
MODEL 5
REMARK VINA RESULT:      -6.7      7.306      8.749
REMARK  Name = 11941671
REMARK  5 active torsions:
REMARK  status: ('A' for Active; 'I' for Inactive)
REMARK    1  A    between atoms: N_5  and  C_12
REMARK    2  A    between atoms: N_6  and  C_13
REMARK    3  A    between atoms: C_17  and  C_18
REMARK    4  A    between atoms: C_19  and  C_23
REMARK    5  A    between atoms: C_28  and  C_31
REMARK                            x       y       z     vdW  Elec       q    Type
REMARK                         _______ _______ _______ _____ _____    ______ ____
ROOT
ATOM      1  O   UNL     1     -11.108  -5.924  16.455  0.00  0.00    -0.370 OA
ATOM      2  O   UNL     1     -12.580  -7.916  14.556  0.00  0.00    -0.370 OA
ATOM     10  C   UNL     1     -11.197  -7.562  14.731  0.00  0.00    +0.171 C 
ATOM     11  C   UNL     1     -11.148  -6.075  15.027  0.00  0.00    +0.171 C 
ATOM     12  C   UNL     1     -10.645  -8.205  15.981  0.00  0.00    +0.130 C 
ATOM     13  C   UNL     1     -12.454  -5.548  14.478  0.00  0.00    +0.130 C 
ATOM     14  C   UNL     1     -11.043  -7.221  17.066  0.00  0.00    +0.185 C 
ATOM     15  C   UNL     1     -13.385  -6.734  14.660  0.00  0.00    +0.185 C 
ENDROOT
BRANCH  12   5
ATOM      5  N   UNL     1      -9.204  -8.299  15.895  0.00  0.00    -0.306 N 
ATOM      7  N   UNL     1      -9.110 -10.017  17.489  0.00  0.00    -0.214 NA
ATOM      8  N   UNL     1      -7.101  -9.176  16.456  0.00  0.00    -0.223 NA
ATOM     16  C   UNL     1      -8.449  -9.191  16.635  0.00  0.00    +0.216 A 
ATOM     19  C   UNL     1      -8.343 -10.874  18.196  0.00  0.00    +0.076 A 
ATOM     21  C   UNL     1      -6.397 -10.058  17.194  0.00  0.00    +0.116 A 
ATOM     22  C   UNL     1      -6.969 -10.940  18.088  0.00  0.00    +0.048 A 
ATOM     32  H   UNL     1      -8.706  -7.723  15.224  0.00  0.00    +0.149 HD
BRANCH  19  23
ATOM     23  C   UNL     1      -9.064 -11.743  19.094  0.00  0.00    +0.002 A 
ATOM     26  C   UNL     1     -10.368 -11.426  19.482  0.00  0.00    +0.029 A 
ATOM     27  C   UNL     1      -8.459 -12.904  19.581  0.00  0.00    +0.010 A 
ATOM     28  C   UNL     1     -11.064 -12.267  20.351  0.00  0.00    +0.052 A 
ATOM     29  C   UNL     1      -9.154 -13.744  20.450  0.00  0.00    +0.002 A 
ATOM     30  C   UNL     1     -10.456 -13.426  20.836  0.00  0.00    +0.019 A 
BRANCH  28  31
ATOM      9  N   UNL     1     -13.483 -11.678  21.067  0.00  0.00    -0.191 NA
ATOM     31  C   UNL     1     -12.398 -11.942  20.747  0.00  0.00    +0.099 C 
ENDBRANCH  28  31
ENDBRANCH  19  23
ENDBRANCH  12   5
BRANCH  13   6
ATOM      3  O   UNL     1     -13.714  -3.362  13.218  0.00  0.00    -0.267 OA
ATOM      6  N   UNL     1     -12.329  -5.190  13.085  0.00  0.00    -0.301 N 
ATOM     17  C   UNL     1     -12.988  -4.089  12.538  0.00  0.00    +0.280 C 
ATOM     33  H   UNL     1     -11.700  -5.732  12.498  0.00  0.00    +0.150 HD
BRANCH  17  18
ATOM      4  O   UNL     1     -11.455  -3.861  10.727  0.00  0.00    -0.458 OA
ATOM     18  C   UNL     1     -12.735  -3.836  11.113  0.00  0.00    +0.189 A 
ATOM     20  C   UNL     1     -13.599  -3.577  10.114  0.00  0.00    +0.054 A 
ATOM     24  C   UNL     1     -12.783  -3.420   8.967  0.00  0.00    +0.042 A 
ATOM     25  C   UNL     1     -11.488  -3.602   9.393  0.00  0.00    +0.196 A 
ENDBRANCH  17  18
ENDBRANCH  13   6
TORSDOF 5
ENDMDL
MODEL 6
REMARK VINA RESULT:      -6.7      2.744     10.395
REMARK  Name = 11941671
REMARK  5 active torsions:
REMARK  status: ('A' for Active; 'I' for Inactive)
REMARK    1  A    between atoms: N_5  and  C_12
REMARK    2  A    between atoms: N_6  and  C_13
REMARK    3  A    between atoms: C_17  and  C_18
REMARK    4  A    between atoms: C_19  and  C_23
REMARK    5  A    between atoms: C_28  and  C_31
REMARK                            x       y       z     vdW  Elec       q    Type
REMARK                         _______ _______ _______ _____ _____    ______ ____
ROOT
ATOM      1  O   UNL     1      -2.929  -9.931  11.849  0.00  0.00    -0.370 OA
ATOM      2  O   UNL     1      -4.300 -12.700  12.288  0.00  0.00    -0.370 OA
ATOM     10  C   UNL     1      -4.808 -11.367  12.107  0.00  0.00    +0.171 C 
ATOM     11  C   UNL     1      -3.863 -10.423  12.824  0.00  0.00    +0.171 C 
ATOM     12  C   UNL     1      -4.706 -10.959  10.656  0.00  0.00    +0.130 C 
ATOM     13  C   UNL     1      -3.158 -11.303  13.831  0.00  0.00    +0.130 C 
ATOM     14  C   UNL     1      -3.283 -10.440  10.555  0.00  0.00    +0.185 C 
ATOM     15  C   UNL     1      -3.137 -12.649  13.127  0.00  0.00    +0.185 C 
ENDROOT
BRANCH  12   5
ATOM      5  N   UNL     1      -5.648  -9.899  10.371  0.00  0.00    -0.306 N 
ATOM      7  N   UNL     1      -5.694 -10.405   8.081  0.00  0.00    -0.214 NA
ATOM      8  N   UNL     1      -7.018  -8.601   8.977  0.00  0.00    -0.223 NA
ATOM     16  C   UNL     1      -6.135  -9.627   9.105  0.00  0.00    +0.216 A 
ATOM     19  C   UNL     1      -6.189 -10.112   6.860  0.00  0.00    +0.076 A 
ATOM     21  C   UNL     1      -7.472  -8.364   7.729  0.00  0.00    +0.116 A 
ATOM     22  C   UNL     1      -7.090  -9.093   6.622  0.00  0.00    +0.048 A 
ATOM     32  H   UNL     1      -6.022  -9.347  11.135  0.00  0.00    +0.149 HD
BRANCH  19  23
ATOM     23  C   UNL     1      -5.710 -10.950   5.787  0.00  0.00    +0.002 A 
ATOM     26  C   UNL     1      -4.496 -11.629   5.916  0.00  0.00    +0.029 A 
ATOM     27  C   UNL     1      -6.458 -11.083   4.616  0.00  0.00    +0.010 A 
ATOM     28  C   UNL     1      -4.033 -12.438   4.878  0.00  0.00    +0.052 A 
ATOM     29  C   UNL     1      -5.996 -11.893   3.578  0.00  0.00    +0.002 A 
ATOM     30  C   UNL     1      -4.784 -12.570   3.709  0.00  0.00    +0.019 A 
BRANCH  28  31
ATOM      9  N   UNL     1      -1.781 -13.696   5.119  0.00  0.00    -0.191 NA
ATOM     31  C   UNL     1      -2.791 -13.133   5.011  0.00  0.00    +0.099 C 
ENDBRANCH  28  31
ENDBRANCH  19  23
ENDBRANCH  12   5
BRANCH  13   6
ATOM      3  O   UNL     1      -2.159 -10.633  16.381  0.00  0.00    -0.267 OA
ATOM      6  N   UNL     1      -3.895 -11.373  15.070  0.00  0.00    -0.301 N 
ATOM     17  C   UNL     1      -3.326 -11.022  16.294  0.00  0.00    +0.280 C 
ATOM     33  H   UNL     1      -4.875 -11.640  15.039  0.00  0.00    +0.150 HD
BRANCH  17  18
ATOM      4  O   UNL     1      -5.316 -10.362  17.426  0.00  0.00    -0.458 OA
ATOM     18  C   UNL     1      -4.213 -11.116  17.462  0.00  0.00    +0.189 A 
ATOM     20  C   UNL     1      -4.092 -11.850  18.582  0.00  0.00    +0.054 A 
ATOM     24  C   UNL     1      -5.242 -11.531  19.345  0.00  0.00    +0.042 A 
ATOM     25  C   UNL     1      -5.954 -10.622  18.598  0.00  0.00    +0.196 A 
ENDBRANCH  17  18
ENDBRANCH  13   6
TORSDOF 5
ENDMDL
MODEL 7
REMARK VINA RESULT:      -6.5     22.714     25.746
REMARK  Name = 11941671
REMARK  5 active torsions:
REMARK  status: ('A' for Active; 'I' for Inactive)
REMARK    1  A    between atoms: N_5  and  C_12
REMARK    2  A    between atoms: N_6  and  C_13
REMARK    3  A    between atoms: C_17  and  C_18
REMARK    4  A    between atoms: C_19  and  C_23
REMARK    5  A    between atoms: C_28  and  C_31
REMARK                            x       y       z     vdW  Elec       q    Type
REMARK                         _______ _______ _______ _____ _____    ______ ____
ROOT
ATOM      1  O   UNL     1       6.691   6.870  -6.486  0.00  0.00    -0.370 OA
ATOM      2  O   UNL     1       6.240   6.049  -3.509  0.00  0.00    -0.370 OA
ATOM     10  C   UNL     1       6.965   5.450  -4.596  0.00  0.00    +0.171 C 
ATOM     11  C   UNL     1       6.161   5.690  -5.860  0.00  0.00    +0.171 C 
ATOM     12  C   UNL     1       8.258   6.191  -4.836  0.00  0.00    +0.130 C 
ATOM     13  C   UNL     1       4.757   5.945  -5.359  0.00  0.00    +0.130 C 
ATOM     14  C   UNL     1       7.827   7.331  -5.740  0.00  0.00    +0.185 C 
ATOM     15  C   UNL     1       5.007   6.588  -4.006  0.00  0.00    +0.185 C 
ENDROOT
BRANCH  12   5
ATOM      5  N   UNL     1       9.200   5.335  -5.524  0.00  0.00    -0.306 N 
ATOM      7  N   UNL     1      10.300   4.759  -3.533  0.00  0.00    -0.214 NA
ATOM      8  N   UNL     1      11.020   3.859  -5.650  0.00  0.00    -0.223 NA
ATOM     16  C   UNL     1      10.203   4.630  -4.883  0.00  0.00    +0.216 A 
ATOM     19  C   UNL     1      11.290   4.058  -2.941  0.00  0.00    +0.076 A 
ATOM     21  C   UNL     1      11.987   3.186  -4.993  0.00  0.00    +0.116 A 
ATOM     22  C   UNL     1      12.171   3.247  -3.627  0.00  0.00    +0.048 A 
ATOM     32  H   UNL     1       9.105   5.191  -6.523  0.00  0.00    +0.149 HD
BRANCH  19  23
ATOM     23  C   UNL     1      11.374   4.208  -1.508  0.00  0.00    +0.002 A 
ATOM     26  C   UNL     1      12.521   3.795  -0.826  0.00  0.00    +0.029 A 
ATOM     27  C   UNL     1      10.308   4.764  -0.798  0.00  0.00    +0.010 A 
ATOM     28  C   UNL     1      12.602   3.940   0.559  0.00  0.00    +0.052 A 
ATOM     29  C   UNL     1      10.389   4.908   0.587  0.00  0.00    +0.002 A 
ATOM     30  C   UNL     1      11.535   4.496   1.266  0.00  0.00    +0.019 A 
BRANCH  28  31
ATOM      9  N   UNL     1      14.731   3.176   1.823  0.00  0.00    -0.191 NA
ATOM     31  C   UNL     1      13.776   3.518   1.256  0.00  0.00    +0.099 C 
ENDBRANCH  28  31
ENDBRANCH  19  23
ENDBRANCH  12   5
BRANCH  13   6
ATOM      3  O   UNL     1       1.969   5.653  -5.665  0.00  0.00    -0.267 OA
ATOM      6  N   UNL     1       4.019   4.713  -5.224  0.00  0.00    -0.301 N 
ATOM     17  C   UNL     1       2.636   4.652  -5.392  0.00  0.00    +0.280 C 
ATOM     33  H   UNL     1       4.534   3.854  -5.050  0.00  0.00    +0.150 HD
BRANCH  17  18
ATOM      4  O   UNL     1       0.785   3.284  -4.773  0.00  0.00    -0.458 OA
ATOM     18  C   UNL     1       2.032   3.319  -5.255  0.00  0.00    +0.189 A 
ATOM     20  C   UNL     1       2.540   2.107  -5.539  0.00  0.00    +0.054 A 
ATOM     24  C   UNL     1       1.506   1.198  -5.203  0.00  0.00    +0.042 A 
ATOM     25  C   UNL     1       0.461   1.964  -4.742  0.00  0.00    +0.196 A 
ENDBRANCH  17  18
ENDBRANCH  13   6
TORSDOF 5
ENDMDL
MODEL 8
REMARK VINA RESULT:      -6.2     24.136     27.076
REMARK  Name = 11941671
REMARK  5 active torsions:
REMARK  status: ('A' for Active; 'I' for Inactive)
REMARK    1  A    between atoms: N_5  and  C_12
REMARK    2  A    between atoms: N_6  and  C_13
REMARK    3  A    between atoms: C_17  and  C_18
REMARK    4  A    between atoms: C_19  and  C_23
REMARK    5  A    between atoms: C_28  and  C_31
REMARK                            x       y       z     vdW  Elec       q    Type
REMARK                         _______ _______ _______ _____ _____    ______ ____
ROOT
ATOM      1  O   UNL     1       8.613   8.227   2.498  0.00  0.00    -0.370 OA
ATOM      2  O   UNL     1      11.579   7.900   3.413  0.00  0.00    -0.370 OA
ATOM     10  C   UNL     1      10.642   7.015   2.776  0.00  0.00    +0.171 C 
ATOM     11  C   UNL     1       9.277   7.299   3.373  0.00  0.00    +0.171 C 
ATOM     12  C   UNL     1      10.490   7.375   1.317  0.00  0.00    +0.130 C 
ATOM     13  C   UNL     1       9.585   7.954   4.699  0.00  0.00    +0.130 C 
ATOM     14  C   UNL     1       9.442   8.473   1.352  0.00  0.00    +0.185 C 
ATOM     15  C   UNL     1      10.895   8.669   4.413  0.00  0.00    +0.185 C 
ENDROOT
BRANCH  12   5
ATOM      5  N   UNL     1       9.997   6.236   0.574  0.00  0.00    -0.306 N 
ATOM      7  N   UNL     1      12.142   5.661  -0.182  0.00  0.00    -0.214 NA
ATOM      8  N   UNL     1      10.217   4.356  -0.812  0.00  0.00    -0.223 NA
ATOM     16  C   UNL     1      10.809   5.392  -0.162  0.00  0.00    +0.216 A 
ATOM     19  C   UNL     1      12.905   4.819  -0.910  0.00  0.00    +0.076 A 
ATOM     21  C   UNL     1      11.039   3.554  -1.520  0.00  0.00    +0.116 A 
ATOM     22  C   UNL     1      12.403   3.738  -1.606  0.00  0.00    +0.048 A 
ATOM     32  H   UNL     1       9.013   5.996   0.625  0.00  0.00    +0.149 HD
BRANCH  19  23
ATOM     23  C   UNL     1      14.316   5.121  -0.917  0.00  0.00    +0.002 A 
ATOM     26  C   UNL     1      14.828   6.102  -0.064  0.00  0.00    +0.029 A 
ATOM     27  C   UNL     1      15.175   4.434  -1.777  0.00  0.00    +0.010 A 
ATOM     28  C   UNL     1      16.192   6.394  -0.072  0.00  0.00    +0.052 A 
ATOM     29  C   UNL     1      16.539   4.725  -1.785  0.00  0.00    +0.002 A 
ATOM     30  C   UNL     1      17.048   5.705  -0.933  0.00  0.00    +0.019 A 
BRANCH  28  31
ATOM      9  N   UNL     1      17.139   8.213   1.511  0.00  0.00    -0.191 NA
ATOM     31  C   UNL     1      16.715   7.398   0.800  0.00  0.00    +0.099 C 
ENDBRANCH  28  31
ENDBRANCH  19  23
ENDBRANCH  12   5
BRANCH  13   6
ATOM      3  O   UNL     1       8.009   7.755   7.030  0.00  0.00    -0.267 OA
ATOM      6  N   UNL     1       9.744   6.971   5.743  0.00  0.00    -0.301 N 
ATOM     17  C   UNL     1       8.920   6.940   6.868  0.00  0.00    +0.280 C 
ATOM     33  H   UNL     1      10.449   6.248   5.627  0.00  0.00    +0.150 HD
BRANCH  17  18
ATOM      4  O   UNL     1       8.834   6.095   9.095  0.00  0.00    -0.458 OA
ATOM     18  C   UNL     1       9.186   5.859   7.827  0.00  0.00    +0.189 A 
ATOM     20  C   UNL     1       9.737   4.647   7.633  0.00  0.00    +0.054 A 
ATOM     24  C   UNL     1       9.738   4.045   8.915  0.00  0.00    +0.042 A 
ATOM     25  C   UNL     1       9.178   4.966   9.768  0.00  0.00    +0.196 A 
ENDBRANCH  17  18
ENDBRANCH  13   6
TORSDOF 5
ENDMDL
MODEL 9
REMARK VINA RESULT:      -6.0     23.053     26.044
REMARK  Name = 11941671
REMARK  5 active torsions:
REMARK  status: ('A' for Active; 'I' for Inactive)
REMARK    1  A    between atoms: N_5  and  C_12
REMARK    2  A    between atoms: N_6  and  C_13
REMARK    3  A    between atoms: C_17  and  C_18
REMARK    4  A    between atoms: C_19  and  C_23
REMARK    5  A    between atoms: C_28  and  C_31
REMARK                            x       y       z     vdW  Elec       q    Type
REMARK                         _______ _______ _______ _____ _____    ______ ____
ROOT
ATOM      1  O   UNL     1       8.868  10.385   4.111  0.00  0.00    -0.370 OA
ATOM      2  O   UNL     1       8.678   7.482   2.980  0.00  0.00    -0.370 OA
ATOM     10  C   UNL     1       7.727   8.358   3.609  0.00  0.00    +0.171 C 
ATOM     11  C   UNL     1       8.468   9.129   4.685  0.00  0.00    +0.171 C 
ATOM     12  C   UNL     1       7.271   9.421   2.639  0.00  0.00    +0.130 C 
ATOM     13  C   UNL     1       9.681   8.275   4.979  0.00  0.00    +0.130 C 
ATOM     14  C   UNL     1       8.350  10.481   2.775  0.00  0.00    +0.185 C 
ATOM     15  C   UNL     1       9.946   7.614   3.638  0.00  0.00    +0.185 C 
ENDROOT
BRANCH  12   5
ATOM      5  N   UNL     1       5.991   9.954   3.053  0.00  0.00    -0.306 N 
ATOM      7  N   UNL     1       5.067   9.691   0.913  0.00  0.00    -0.214 NA
ATOM      8  N   UNL     1       3.760  10.599   2.723  0.00  0.00    -0.223 NA
ATOM     16  C   UNL     1       4.907  10.085   2.204  0.00  0.00    +0.216 A 
ATOM     19  C   UNL     1       3.989   9.834   0.113  0.00  0.00    +0.076 A 
ATOM     21  C   UNL     1       2.723  10.714   1.868  0.00  0.00    +0.116 A 
ATOM     22  C   UNL     1       2.780  10.344   0.540  0.00  0.00    +0.048 A 
ATOM     32  H   UNL     1       5.845  10.202   4.025  0.00  0.00    +0.149 HD
BRANCH  19  23
ATOM     23  C   UNL     1       4.179   9.409  -1.253  0.00  0.00    +0.002 A 
ATOM     26  C   UNL     1       5.128   8.430  -1.558  0.00  0.00    +0.029 A 
ATOM     27  C   UNL     1       3.416   9.977  -2.276  0.00  0.00    +0.010 A 
ATOM     28  C   UNL     1       5.312   8.020  -2.879  0.00  0.00    +0.052 A 
ATOM     29  C   UNL     1       3.600   9.567  -3.596  0.00  0.00    +0.002 A 
ATOM     30  C   UNL     1       4.547   8.589  -3.898  0.00  0.00    +0.019 A 
BRANCH  28  31
ATOM      9  N   UNL     1       7.071   6.203  -3.440  0.00  0.00    -0.191 NA
ATOM     31  C   UNL     1       6.282   7.018  -3.189  0.00  0.00    +0.099 C 
ENDBRANCH  28  31
ENDBRANCH  19  23
ENDBRANCH  12   5
BRANCH  13   6
ATOM      3  O   UNL     1      11.472   7.400   6.974  0.00  0.00    -0.267 OA
ATOM      6  N   UNL     1       9.394   7.295   5.998  0.00  0.00    -0.301 N 
ATOM     17  C   UNL     1      10.338   6.916   6.952  0.00  0.00    +0.280 C 
ATOM     33  H   UNL     1       8.456   6.907   6.050  0.00  0.00    +0.150 HD
BRANCH  17  18
ATOM      4  O   UNL     1      10.168   4.652   7.675  0.00  0.00    -0.458 OA
ATOM     18  C   UNL     1       9.886   5.930   7.944  0.00  0.00    +0.189 A 
ATOM     20  C   UNL     1       9.221   6.109   9.100  0.00  0.00    +0.054 A 
ATOM     24  C   UNL     1       9.061   4.803   9.625  0.00  0.00    +0.042 A 
ATOM     25  C   UNL     1       9.654   3.953   8.722  0.00  0.00    +0.196 A 
ENDBRANCH  17  18
ENDBRANCH  13   6
TORSDOF 5
ENDMDL
MODEL 10
REMARK VINA RESULT:      -5.9     27.456     32.239
REMARK  Name = 11941671
REMARK  5 active torsions:
REMARK  status: ('A' for Active; 'I' for Inactive)
REMARK    1  A    between atoms: N_5  and  C_12
REMARK    2  A    between atoms: N_6  and  C_13
REMARK    3  A    between atoms: C_17  and  C_18
REMARK    4  A    between atoms: C_19  and  C_23
REMARK    5  A    between atoms: C_28  and  C_31
REMARK                            x       y       z     vdW  Elec       q    Type
REMARK                         _______ _______ _______ _____ _____    ______ ____
ROOT
ATOM      1  O   UNL     1      19.138  -2.869  31.947  0.00  0.00    -0.370 OA
ATOM      2  O   UNL     1      16.643  -1.707  30.475  0.00  0.00    -0.370 OA
ATOM     10  C   UNL     1      18.018  -1.295  30.557  0.00  0.00    +0.171 C 
ATOM     11  C   UNL     1      18.491  -1.585  31.969  0.00  0.00    +0.171 C 
ATOM     12  C   UNL     1      18.883  -2.177  29.689  0.00  0.00    +0.130 C 
ATOM     13  C   UNL     1      17.216  -1.652  32.778  0.00  0.00    +0.130 C 
ATOM     14  C   UNL     1      19.173  -3.358  30.598  0.00  0.00    +0.185 C 
ATOM     15  C   UNL     1      16.214  -2.174  31.762  0.00  0.00    +0.185 C 
ENDROOT
BRANCH  12   5
ATOM      5  N   UNL     1      20.111  -1.491  29.352  0.00  0.00    -0.306 N 
ATOM      7  N   UNL     1      19.689  -1.636  27.049  0.00  0.00    -0.214 NA
ATOM      8  N   UNL     1      21.685  -0.568  27.877  0.00  0.00    -0.223 NA
ATOM     16  C   UNL     1      20.507  -1.223  28.054  0.00  0.00    +0.216 A 
ATOM     19  C   UNL     1      20.106  -1.359  25.796  0.00  0.00    +0.076 A 
ATOM     21  C   UNL     1      22.040  -0.324  26.599  0.00  0.00    +0.116 A 
ATOM     22  C   UNL     1      21.284  -0.699  25.508  0.00  0.00    +0.048 A 
ATOM     32  H   UNL     1      20.702  -1.133  30.095  0.00  0.00    +0.149 HD
BRANCH  19  23
ATOM     23  C   UNL     1      19.224  -1.804  24.744  0.00  0.00    +0.002 A 
ATOM     26  C   UNL     1      19.351  -3.092  24.219  0.00  0.00    +0.029 A 
ATOM     27  C   UNL     1      18.241  -0.946  24.245  0.00  0.00    +0.010 A 
ATOM     28  C   UNL     1      18.498  -3.521  23.202  0.00  0.00    +0.052 A 
ATOM     29  C   UNL     1      17.388  -1.375  23.228  0.00  0.00    +0.002 A 
ATOM     30  C   UNL     1      17.517  -2.662  22.706  0.00  0.00    +0.019 A 
BRANCH  28  31
ATOM      9  N   UNL     1      18.735  -5.911  22.230  0.00  0.00    -0.191 NA
ATOM     31  C   UNL     1      18.629  -4.839  22.666  0.00  0.00    +0.099 C 
ENDBRANCH  28  31
ENDBRANCH  19  23
ENDBRANCH  12   5
BRANCH  13   6
ATOM      3  O   UNL     1      17.889  -0.571  35.294  0.00  0.00    -0.267 OA
ATOM      6  N   UNL     1      16.837  -0.347  33.263  0.00  0.00    -0.301 N 
ATOM     17  C   UNL     1      17.212   0.115  34.525  0.00  0.00    +0.280 C 
ATOM     33  H   UNL     1      16.322   0.272  32.643  0.00  0.00    +0.150 HD
BRANCH  17  18
ATOM      4  O   UNL     1      17.156   2.443  34.021  0.00  0.00    -0.458 OA
ATOM     18  C   UNL     1      16.777   1.477  34.863  0.00  0.00    +0.189 A 
ATOM     20  C   UNL     1      16.046   1.918  35.902  0.00  0.00    +0.054 A 
ATOM     24  C   UNL     1      15.947   3.317  35.702  0.00  0.00    +0.042 A 
ATOM     25  C   UNL     1      16.639   3.586  34.545  0.00  0.00    +0.196 A 
ENDBRANCH  17  18
ENDBRANCH  13   6
TORSDOF 5
ENDMDL
