REMARK  Name = 28962238
REMARK  13 active torsions:
REMARK  status: ('A' for Active; 'I' for Inactive)
REMARK    1  A    between atoms: O_2  and  C_11
REMARK    2  A    between atoms: O_3  and  C_14
REMARK    3  A    between atoms: O_5  and  C_20
REMARK    4  A    between atoms: O_5  and  C_25
REMARK    5  A    between atoms: N_6  and  C_9
REMARK    6  A    between atoms: N_6  and  C_15
REMARK    7  A    between atoms: N_6  and  C_16
REMARK    8  A    between atoms: N_7  and  C_13
REMARK    9  A    between atoms: C_10  and  C_13
REMARK   10  A    between atoms: C_12  and  C_14
REMARK   11  A    between atoms: C_15  and  C_17
REMARK   12  A    between atoms: C_17  and  C_18
REMARK   13  A    between atoms: C_19  and  C_20
REMARK                            x       y       z     vdW  Elec       q    Type
REMARK                         _______ _______ _______ _____ _____    ______ ____
ROOT
ATOM      1  O   UNL     1      -2.841   0.870  -0.726  0.00  0.00    -0.365 OA
ATOM      9  C   UNL     1      -0.725   1.901  -0.369  0.00  0.00    +0.118 C 
ATOM     10  C   UNL     1      -1.469   0.560  -0.392  0.00  0.00    +0.155 C 
ATOM     11  C   UNL     1      -1.827   2.900  -0.050  0.00  0.00    +0.165 C 
ATOM     12  C   UNL     1      -2.987   2.299  -0.835  0.00  0.00    +0.174 C 
ENDROOT
BRANCH  11   2
ATOM      2  O   UNL     1      -2.127   2.917   1.340  0.00  0.00    -0.388 OA
ATOM     26  H   UNL     1      -2.755   3.642   1.496  0.00  0.00    +0.210 HD
ENDBRANCH  11   2
BRANCH   9   6
ATOM      6  N   UNL     1       0.444   1.973   0.490  0.00  0.00    -0.297 NA
ATOM     16  C   UNL     1       0.789   3.366   0.787  0.00  0.00    +0.105 C 
BRANCH   6  15
ATOM     15  C   UNL     1       1.587   1.292  -0.126  0.00  0.00    +0.090 C 
BRANCH  15  17
ATOM     17  C   UNL     1       2.659   0.970   0.915  0.00  0.00    +0.071 C 
BRANCH  17  18
ATOM      8  N   UNL     1       4.843   1.091  -0.155  0.00  0.00    -0.260 NA
ATOM     18  C   UNL     1       3.851   0.289   0.290  0.00  0.00    +0.042 A 
ATOM     21  C   UNL     1       3.874  -1.094   0.205  0.00  0.00    +0.023 A 
ATOM     22  C   UNL     1       4.988  -1.691  -0.375  0.00  0.00    +0.003 A 
ATOM     23  C   UNL     1       5.909   0.475  -0.713  0.00  0.00    +0.111 A 
ATOM     24  C   UNL     1       6.029  -0.899  -0.845  0.00  0.00    +0.020 A 
ENDBRANCH  17  18
ENDBRANCH  15  17
ENDBRANCH   6  15
ENDBRANCH   9   6
BRANCH  10  13
ATOM     13  C   UNL     1      -1.489  -0.233   0.910  0.00  0.00    +0.137 C 
BRANCH  13   7
ATOM      4  O   UNL     1      -0.433  -2.800   0.100  0.00  0.00    -0.273 OA
ATOM      7  N   UNL     1      -2.216  -1.457   0.758  0.00  0.00    -0.311 N 
ATOM     19  C   UNL     1      -1.624  -2.654   0.361  0.00  0.00    +0.239 C 
ATOM     27  H   UNL     1      -3.215  -1.441   0.940  0.00  0.00    +0.149 HD
BRANCH  19  20
ATOM     20  C   UNL     1      -2.625  -3.787   0.283  0.00  0.00    +0.255 C 
BRANCH  20   5
ATOM      5  O   UNL     1      -1.990  -4.986  -0.108  0.00  0.00    -0.374 OA
ATOM     25  C   UNL     1      -2.910  -6.071  -0.190  0.00  0.00    +0.194 C 
ENDBRANCH  20   5
ENDBRANCH  19  20
ENDBRANCH  13   7
ENDBRANCH  10  13
BRANCH  12  14
ATOM     14  C   UNL     1      -4.373   2.698  -0.362  0.00  0.00    +0.190 C 
BRANCH  14   3
ATOM      3  O   UNL     1      -5.338   2.073  -1.192  0.00  0.00    -0.392 OA
ATOM     28  H   UNL     1      -6.214   2.348  -0.870  0.00  0.00    +0.210 HD
ENDBRANCH  14   3
ENDBRANCH  12  14
TORSDOF 11
