REMARK  Name = 86769003
REMARK  7 active torsions:
REMARK  status: ('A' for Active; 'I' for Inactive)
REMARK    1  A    between atoms: O_3  and  C_8
REMARK    2  A    between atoms: N_5  and  C_7
REMARK    3  A    between atoms: N_5  and  C_12
REMARK    4  A    between atoms: N_6  and  C_11
REMARK    5  A    between atoms: C_9  and  C_11
REMARK    6  A    between atoms: C_12  and  C_13
REMARK    7  A    between atoms: C_14  and  C_16
REMARK                            x       y       z     vdW  Elec       q    Type
REMARK                         _______ _______ _______ _____ _____    ______ ____
ROOT
ATOM      2  O   UNL     1       0.095  -0.901   0.190  0.00  0.00    -0.371 OA
ATOM      7  C   UNL     1      -1.963   0.169  -0.322  0.00  0.00    +0.111 C 
ATOM      8  C   UNL     1      -1.059   1.154   0.395  0.00  0.00    +0.164 C 
ATOM      9  C   UNL     1       0.306   0.520   0.164  0.00  0.00    +0.165 C 
ATOM     10  C   UNL     1      -1.313  -1.156   0.041  0.00  0.00    +0.181 C 
ENDROOT
BRANCH   8   3
ATOM      3  O   UNL     1      -1.134   2.458  -0.146  0.00  0.00    -0.388 OA
ATOM     25  H   UNL     1      -0.923   2.409  -1.094  0.00  0.00    +0.210 HD
ENDBRANCH   8   3
BRANCH   7   5
ATOM      5  N   UNL     1      -3.355   0.248   0.090  0.00  0.00    -0.304 NA
ATOM     24  H   UNL     1      -3.635   1.229   0.126  0.00  0.00    +0.123 HD
BRANCH   5  12
ATOM     12  C   UNL     1      -4.221  -0.460  -0.845  0.00  0.00    +0.124 C 
BRANCH  12  13
ATOM      1  S   UNL     1      -6.520  -1.860  -0.144  0.00  0.00    -0.100 S 
ATOM     13  C   UNL     1      -5.666  -0.402  -0.425  0.00  0.00    +0.004 A 
ATOM     15  C   UNL     1      -6.456   0.708  -0.220  0.00  0.00    +0.012 A 
ATOM     17  C   UNL     1      -7.779   0.357   0.174  0.00  0.00    +0.008 A 
ATOM     18  C   UNL     1      -7.951  -1.008   0.254  0.00  0.00    +0.045 A 
ENDBRANCH  12  13
ENDBRANCH   5  12
ENDBRANCH   7   5
BRANCH   9  11
ATOM     11  C   UNL     1       1.333   0.906   1.214  0.00  0.00    +0.138 C 
BRANCH  11   6
ATOM      4  O   UNL     1       3.477   1.972  -0.372  0.00  0.00    -0.270 OA
ATOM      6  N   UNL     1       2.600   0.284   0.957  0.00  0.00    -0.309 N 
ATOM     14  C   UNL     1       3.585   0.876   0.173  0.00  0.00    +0.244 C 
ATOM     26  H   UNL     1       2.727  -0.654   1.320  0.00  0.00    +0.149 HD
BRANCH  14  16
ATOM     16  C   UNL     1       4.832   0.092  -0.018  0.00  0.00    +0.037 A 
ATOM     19  C   UNL     1       5.608   0.281  -1.162  0.00  0.00    +0.013 A 
ATOM     20  C   UNL     1       5.228  -0.834   0.948  0.00  0.00    +0.013 A 
ATOM     21  C   UNL     1       6.779  -0.455  -1.340  0.00  0.00    +0.001 A 
ATOM     22  C   UNL     1       6.399  -1.570   0.770  0.00  0.00    +0.001 A 
ATOM     23  C   UNL     1       7.175  -1.381  -0.374  0.00  0.00    +0.000 A 
ENDBRANCH  14  16
ENDBRANCH  11   6
ENDBRANCH   9  11
TORSDOF 7
