MODEL 1
REMARK VINA RESULT:      -7.8      0.000      0.000
REMARK  Name = 45784264
REMARK  4 active torsions:
REMARK  status: ('A' for Active; 'I' for Inactive)
REMARK    1  A    between atoms: N_5  and  C_13
REMARK    2  A    between atoms: C_8  and  C_12
REMARK    3  A    between atoms: C_13  and  C_14
REMARK    4  A    between atoms: C_21  and  C_25
REMARK                            x       y       z     vdW  Elec       q    Type
REMARK                         _______ _______ _______ _____ _____    ______ ____
ROOT
ATOM      6  N   UNL     1      15.568   8.566  20.634  0.00  0.00    -0.342 N 
ATOM      7  N   UNL     1      14.690   7.385  18.968  0.00  0.00    -0.232 NA
ATOM     12  C   UNL     1      14.495   8.376  19.809  0.00  0.00    +0.113 A 
ATOM     15  C   UNL     1      16.519   7.634  20.304  0.00  0.00    +0.067 A 
ATOM     16  C   UNL     1      15.948   6.909  19.262  0.00  0.00    +0.089 A 
ATOM     17  C   UNL     1      17.792   7.372  20.812  0.00  0.00    +0.040 A 
ATOM     18  C   UNL     1      16.674   5.857  18.680  0.00  0.00    +0.030 A 
ATOM     21  C   UNL     1      18.501   6.321  20.221  0.00  0.00    +0.057 A 
ATOM     22  C   UNL     1      17.955   5.576  19.174  0.00  0.00    +0.014 A 
ATOM     27  H   UNL     1      15.650   9.265  21.359  0.00  0.00    +0.167 HD
ENDROOT
BRANCH  12   8
ATOM      5  N   UNL     1      11.519   9.848  21.359  0.00  0.00    -0.297 NA
ATOM      8  C   UNL     1      13.262   9.245  19.911  0.00  0.00    +0.070 C 
ATOM      9  C   UNL     1      11.957   8.571  19.454  0.00  0.00    +0.028 C 
ATOM     10  C   UNL     1      12.977   9.711  21.346  0.00  0.00    +0.096 C 
ATOM     11  C   UNL     1      11.023   8.667  20.652  0.00  0.00    +0.085 C 
BRANCH   5  13
ATOM     13  C   UNL     1      10.984   9.952  22.708  0.00  0.00    +0.122 C 
BRANCH  13  14
ATOM      1  F   UNL     1      10.992  10.672  25.448  0.00  0.00    -0.205 F 
ATOM     14  C   UNL     1      10.934  11.381  23.183  0.00  0.00    +0.002 A 
ATOM     19  C   UNL     1      10.941  11.665  24.549  0.00  0.00    +0.128 A 
ATOM     20  C   UNL     1      10.881  12.420  22.255  0.00  0.00    +0.008 A 
ATOM     23  C   UNL     1      10.895  12.988  24.986  0.00  0.00    +0.038 A 
ATOM     24  C   UNL     1      10.834  13.744  22.692  0.00  0.00    +0.000 A 
ATOM     26  C   UNL     1      10.842  14.028  24.057  0.00  0.00    +0.003 A 
ENDBRANCH  13  14
ENDBRANCH   5  13
ENDBRANCH  12   8
BRANCH  21  25
ATOM      2  F   UNL     1      19.938   5.969  22.082  0.00  0.00    -0.166 F 
ATOM      3  F   UNL     1      20.319   4.767  20.311  0.00  0.00    -0.166 F 
ATOM      4  F   UNL     1      20.826   6.876  20.318  0.00  0.00    -0.166 F 
ATOM     25  C   UNL     1      19.869   5.990  20.721  0.00  0.00    +0.417 C 
ENDBRANCH  21  25
TORSDOF 4
ENDMDL
MODEL 2
REMARK VINA RESULT:      -7.6     16.396     19.763
REMARK  Name = 45784264
REMARK  4 active torsions:
REMARK  status: ('A' for Active; 'I' for Inactive)
REMARK    1  A    between atoms: N_5  and  C_13
REMARK    2  A    between atoms: C_8  and  C_12
REMARK    3  A    between atoms: C_13  and  C_14
REMARK    4  A    between atoms: C_21  and  C_25
REMARK                            x       y       z     vdW  Elec       q    Type
REMARK                         _______ _______ _______ _____ _____    ______ ____
ROOT
ATOM      6  N   UNL     1      10.437   4.984   5.024  0.00  0.00    -0.342 N 
ATOM      7  N   UNL     1       9.600   7.021   4.723  0.00  0.00    -0.232 NA
ATOM     12  C   UNL     1      10.201   6.005   4.146  0.00  0.00    +0.113 A 
ATOM     15  C   UNL     1       9.955   5.367   6.250  0.00  0.00    +0.067 A 
ATOM     16  C   UNL     1       9.438   6.642   6.036  0.00  0.00    +0.089 A 
ATOM     17  C   UNL     1       9.928   4.727   7.490  0.00  0.00    +0.040 A 
ATOM     18  C   UNL     1       8.855   7.333   7.111  0.00  0.00    +0.030 A 
ATOM     21  C   UNL     1       9.345   5.431   8.548  0.00  0.00    +0.057 A 
ATOM     22  C   UNL     1       8.817   6.711   8.365  0.00  0.00    +0.014 A 
ATOM     27  H   UNL     1      10.885   4.103   4.812  0.00  0.00    +0.167 HD
ENDROOT
BRANCH  12   8
ATOM      5  N   UNL     1      12.000   4.711   1.228  0.00  0.00    -0.297 NA
ATOM      8  C   UNL     1      10.614   5.904   2.696  0.00  0.00    +0.070 C 
ATOM      9  C   UNL     1      11.821   6.775   2.305  0.00  0.00    +0.028 C 
ATOM     10  C   UNL     1      11.014   4.480   2.285  0.00  0.00    +0.096 C 
ATOM     11  C   UNL     1      12.839   5.801   1.727  0.00  0.00    +0.085 C 
BRANCH   5  13
ATOM     13  C   UNL     1      12.772   3.517   0.918  0.00  0.00    +0.122 C 
BRANCH  13  14
ATOM      1  F   UNL     1      15.457   3.441   1.819  0.00  0.00    -0.205 F 
ATOM     14  C   UNL     1      13.947   3.824   0.028  0.00  0.00    +0.002 A 
ATOM     19  C   UNL     1      15.244   3.768   0.537  0.00  0.00    +0.128 A 
ATOM     20  C   UNL     1      13.736   4.165  -1.308  0.00  0.00    +0.008 A 
ATOM     23  C   UNL     1      16.331   4.053  -0.289  0.00  0.00    +0.038 A 
ATOM     24  C   UNL     1      14.823   4.450  -2.135  0.00  0.00    +0.000 A 
ATOM     26  C   UNL     1      16.120   4.394  -1.626  0.00  0.00    +0.003 A 
ENDBRANCH  13  14
ENDBRANCH   5  13
ENDBRANCH  12   8
BRANCH  21  25
ATOM      2  F   UNL     1      10.319   5.185  10.703  0.00  0.00    -0.166 F 
ATOM      3  F   UNL     1       8.149   5.101  10.595  0.00  0.00    -0.166 F 
ATOM      4  F   UNL     1       9.334   3.436   9.869  0.00  0.00    -0.166 F 
ATOM     25  C   UNL     1       9.286   4.799   9.901  0.00  0.00    +0.417 C 
ENDBRANCH  21  25
TORSDOF 4
ENDMDL
MODEL 3
REMARK VINA RESULT:      -7.4     16.180     19.462
REMARK  Name = 45784264
REMARK  4 active torsions:
REMARK  status: ('A' for Active; 'I' for Inactive)
REMARK    1  A    between atoms: N_5  and  C_13
REMARK    2  A    between atoms: C_8  and  C_12
REMARK    3  A    between atoms: C_13  and  C_14
REMARK    4  A    between atoms: C_21  and  C_25
REMARK                            x       y       z     vdW  Elec       q    Type
REMARK                         _______ _______ _______ _____ _____    ______ ____
ROOT
ATOM      6  N   UNL     1      11.569   5.893   5.408  0.00  0.00    -0.342 N 
ATOM      7  N   UNL     1      10.661   7.913   5.214  0.00  0.00    -0.232 NA
ATOM     12  C   UNL     1      11.478   7.039   4.669  0.00  0.00    +0.113 A 
ATOM     15  C   UNL     1      10.756   6.037   6.504  0.00  0.00    +0.067 A 
ATOM     16  C   UNL     1      10.201   7.305   6.360  0.00  0.00    +0.089 A 
ATOM     17  C   UNL     1      10.468   5.191   7.575  0.00  0.00    +0.040 A 
ATOM     18  C   UNL     1       9.304   7.774   7.334  0.00  0.00    +0.030 A 
ATOM     21  C   UNL     1       9.572   5.674   8.535  0.00  0.00    +0.057 A 
ATOM     22  C   UNL     1       8.999   6.942   8.419  0.00  0.00    +0.014 A 
ATOM     27  H   UNL     1      12.132   5.083   5.190  0.00  0.00    +0.167 HD
ENDROOT
BRANCH  12   8
ATOM      5  N   UNL     1      13.844   6.163   2.012  0.00  0.00    -0.297 NA
ATOM      8  C   UNL     1      12.257   7.209   3.385  0.00  0.00    +0.070 C 
ATOM      9  C   UNL     1      13.618   7.912   3.543  0.00  0.00    +0.028 C 
ATOM     10  C   UNL     1      12.587   5.874   2.703  0.00  0.00    +0.096 C 
ATOM     11  C   UNL     1      14.635   6.932   2.973  0.00  0.00    +0.085 C 
BRANCH   5  13
ATOM     13  C   UNL     1      14.527   4.955   1.574  0.00  0.00    +0.122 C 
BRANCH  13  14
ATOM      1  F   UNL     1      12.744   2.772   1.288  0.00  0.00    -0.205 F 
ATOM     14  C   UNL     1      14.020   4.477   0.239  0.00  0.00    +0.002 A 
ATOM     19  C   UNL     1      13.143   3.395   0.170  0.00  0.00    +0.128 A 
ATOM     20  C   UNL     1      14.429   5.119  -0.930  0.00  0.00    +0.008 A 
ATOM     23  C   UNL     1      12.676   2.954  -1.067  0.00  0.00    +0.038 A 
ATOM     24  C   UNL     1      13.962   4.677  -2.168  0.00  0.00    +0.000 A 
ATOM     26  C   UNL     1      13.085   3.595  -2.237  0.00  0.00    +0.003 A 
ENDBRANCH  13  14
ENDBRANCH   5  13
ENDBRANCH  12   8
BRANCH  21  25
ATOM      2  F   UNL     1      10.199   4.811  10.660  0.00  0.00    -0.166 F 
ATOM      3  F   UNL     1       8.084   5.207  10.349  0.00  0.00    -0.166 F 
ATOM      4  F   UNL     1       9.019   3.506   9.382  0.00  0.00    -0.166 F 
ATOM     25  C   UNL     1       9.224   4.816   9.707  0.00  0.00    +0.417 C 
ENDBRANCH  21  25
TORSDOF 4
ENDMDL
MODEL 4
REMARK VINA RESULT:      -7.4     14.000     16.836
REMARK  Name = 45784264
REMARK  4 active torsions:
REMARK  status: ('A' for Active; 'I' for Inactive)
REMARK    1  A    between atoms: N_5  and  C_13
REMARK    2  A    between atoms: C_8  and  C_12
REMARK    3  A    between atoms: C_13  and  C_14
REMARK    4  A    between atoms: C_21  and  C_25
REMARK                            x       y       z     vdW  Elec       q    Type
REMARK                         _______ _______ _______ _____ _____    ______ ____
ROOT
ATOM      6  N   UNL     1      13.096   6.571   6.746  0.00  0.00    -0.342 N 
ATOM      7  N   UNL     1      11.900   8.207   5.834  0.00  0.00    -0.232 NA
ATOM     12  C   UNL     1      13.077   7.624   5.875  0.00  0.00    +0.113 A 
ATOM     15  C   UNL     1      11.848   6.468   7.305  0.00  0.00    +0.067 A 
ATOM     16  C   UNL     1      11.119   7.500   6.720  0.00  0.00    +0.089 A 
ATOM     17  C   UNL     1      11.309   5.586   8.243  0.00  0.00    +0.040 A 
ATOM     18  C   UNL     1       9.774   7.678   7.080  0.00  0.00    +0.030 A 
ATOM     21  C   UNL     1       9.968   5.779   8.590  0.00  0.00    +0.057 A 
ATOM     22  C   UNL     1       9.211   6.805   8.020  0.00  0.00    +0.014 A 
ATOM     27  H   UNL     1      13.886   5.973   6.946  0.00  0.00    +0.167 HD
ENDROOT
BRANCH  12   8
ATOM      5  N   UNL     1      16.435   8.972   5.301  0.00  0.00    -0.297 NA
ATOM      8  C   UNL     1      14.307   8.013   5.087  0.00  0.00    +0.070 C 
ATOM      9  C   UNL     1      14.286   9.444   4.521  0.00  0.00    +0.028 C 
ATOM     10  C   UNL     1      15.597   7.942   5.915  0.00  0.00    +0.096 C 
ATOM     11  C   UNL     1      15.538  10.106   5.079  0.00  0.00    +0.085 C 
BRANCH   5  13
ATOM     13  C   UNL     1      17.579   9.325   6.130  0.00  0.00    +0.122 C 
BRANCH  13  14
ATOM      1  F   UNL     1      19.814   8.956   7.831  0.00  0.00    -0.205 F 
ATOM     14  C   UNL     1      18.827   8.597   5.703  0.00  0.00    +0.002 A 
ATOM     19  C   UNL     1      19.891   8.452   6.592  0.00  0.00    +0.128 A 
ATOM     20  C   UNL     1      18.916   8.069   4.415  0.00  0.00    +0.008 A 
ATOM     23  C   UNL     1      21.045   7.778   6.194  0.00  0.00    +0.038 A 
ATOM     24  C   UNL     1      20.071   7.396   4.016  0.00  0.00    +0.000 A 
ATOM     26  C   UNL     1      21.135   7.250   4.906  0.00  0.00    +0.003 A 
ENDBRANCH  13  14
ENDBRANCH   5  13
ENDBRANCH  12   8
BRANCH  21  25
ATOM      2  F   UNL     1      10.144   4.620  10.658  0.00  0.00    -0.166 F 
ATOM      3  F   UNL     1       8.172   5.360  10.116  0.00  0.00    -0.166 F 
ATOM      4  F   UNL     1       9.007   3.645   9.083  0.00  0.00    -0.166 F 
ATOM     25  C   UNL     1       9.334   4.869   9.591  0.00  0.00    +0.417 C 
ENDBRANCH  21  25
TORSDOF 4
ENDMDL
MODEL 5
REMARK VINA RESULT:      -7.2     17.510     20.505
REMARK  Name = 45784264
REMARK  4 active torsions:
REMARK  status: ('A' for Active; 'I' for Inactive)
REMARK    1  A    between atoms: N_5  and  C_13
REMARK    2  A    between atoms: C_8  and  C_12
REMARK    3  A    between atoms: C_13  and  C_14
REMARK    4  A    between atoms: C_21  and  C_25
REMARK                            x       y       z     vdW  Elec       q    Type
REMARK                         _______ _______ _______ _____ _____    ______ ____
ROOT
ATOM      6  N   UNL     1      10.286   5.552   4.676  0.00  0.00    -0.342 N 
ATOM      7  N   UNL     1       9.602   7.666   4.659  0.00  0.00    -0.232 NA
ATOM     12  C   UNL     1      10.098   6.686   3.937  0.00  0.00    +0.113 A 
ATOM     15  C   UNL     1       9.886   5.818   5.961  0.00  0.00    +0.067 A 
ATOM     16  C   UNL     1       9.462   7.143   5.924  0.00  0.00    +0.089 A 
ATOM     17  C   UNL     1       9.857   5.035   7.116  0.00  0.00    +0.040 A 
ATOM     18  C   UNL     1       8.980   7.740   7.101  0.00  0.00    +0.030 A 
ATOM     21  C   UNL     1       9.374   5.646   8.277  0.00  0.00    +0.057 A 
ATOM     22  C   UNL     1       8.942   6.974   8.273  0.00  0.00    +0.014 A 
ATOM     27  H   UNL     1      10.655   4.672   4.340  0.00  0.00    +0.167 HD
ENDROOT
BRANCH  12   8
ATOM      5  N   UNL     1      11.323   5.445   0.715  0.00  0.00    -0.297 NA
ATOM      8  C   UNL     1      10.443   6.732   2.466  0.00  0.00    +0.070 C 
ATOM      9  C   UNL     1      11.876   7.200   2.153  0.00  0.00    +0.028 C 
ATOM     10  C   UNL     1      10.323   5.364   1.780  0.00  0.00    +0.096 C 
ATOM     11  C   UNL     1      12.490   6.069   1.339  0.00  0.00    +0.085 C 
BRANCH   5  13
ATOM     13  C   UNL     1      11.631   4.143   0.142  0.00  0.00    +0.122 C 
BRANCH  13  14
ATOM      1  F   UNL     1      12.347   2.041  -1.617  0.00  0.00    -0.205 F 
ATOM     14  C   UNL     1      11.031   3.978  -1.230  0.00  0.00    +0.002 A 
ATOM     19  C   UNL     1      11.429   2.919  -2.045  0.00  0.00    +0.128 A 
ATOM     20  C   UNL     1      10.075   4.886  -1.684  0.00  0.00    +0.008 A 
ATOM     23  C   UNL     1      10.873   2.769  -3.314  0.00  0.00    +0.038 A 
ATOM     24  C   UNL     1       9.518   4.736  -2.954  0.00  0.00    +0.000 A 
ATOM     26  C   UNL     1       9.917   3.677  -3.769  0.00  0.00    +0.003 A 
ENDBRANCH  13  14
ENDBRANCH   5  13
ENDBRANCH  12   8
BRANCH  21  25
ATOM      2  F   UNL     1       9.294   3.516   9.330  0.00  0.00    -0.166 F 
ATOM      3  F   UNL     1      10.388   5.082  10.370  0.00  0.00    -0.166 F 
ATOM      4  F   UNL     1       8.220   5.133  10.309  0.00  0.00    -0.166 F 
ATOM     25  C   UNL     1       9.320   4.861   9.548  0.00  0.00    +0.417 C 
ENDBRANCH  21  25
TORSDOF 4
ENDMDL
MODEL 6
REMARK VINA RESULT:      -7.2     26.735     29.548
REMARK  Name = 45784264
REMARK  4 active torsions:
REMARK  status: ('A' for Active; 'I' for Inactive)
REMARK    1  A    between atoms: N_5  and  C_13
REMARK    2  A    between atoms: C_8  and  C_12
REMARK    3  A    between atoms: C_13  and  C_14
REMARK    4  A    between atoms: C_21  and  C_25
REMARK                            x       y       z     vdW  Elec       q    Type
REMARK                         _______ _______ _______ _____ _____    ______ ____
ROOT
ATOM      6  N   UNL     1      -5.520  -9.995  16.317  0.00  0.00    -0.342 N 
ATOM      7  N   UNL     1      -4.229 -11.219  17.650  0.00  0.00    -0.232 NA
ATOM     12  C   UNL     1      -4.273 -10.503  16.548  0.00  0.00    +0.113 A 
ATOM     15  C   UNL     1      -6.337 -10.410  17.338  0.00  0.00    +0.067 A 
ATOM     16  C   UNL     1      -5.508 -11.172  18.157  0.00  0.00    +0.089 A 
ATOM     17  C   UNL     1      -7.688 -10.190  17.608  0.00  0.00    +0.040 A 
ATOM     18  C   UNL     1      -6.042 -11.758  19.317  0.00  0.00    +0.030 A 
ATOM     21  C   UNL     1      -8.202 -10.781  18.767  0.00  0.00    +0.057 A 
ATOM     22  C   UNL     1      -7.396 -11.551  19.608  0.00  0.00    +0.014 A 
ATOM     27  H   UNL     1      -5.796  -9.416  15.536  0.00  0.00    +0.167 HD
ENDROOT
BRANCH  12   8
ATOM      5  N   UNL     1      -2.105 -11.004  13.636  0.00  0.00    -0.297 NA
ATOM      8  C   UNL     1      -3.126 -10.232  15.601  0.00  0.00    +0.070 C 
ATOM      9  C   UNL     1      -1.813 -10.952  15.952  0.00  0.00    +0.028 C 
ATOM     10  C   UNL     1      -3.429 -10.658  14.158  0.00  0.00    +0.096 C 
ATOM     11  C   UNL     1      -1.463 -11.761  14.711  0.00  0.00    +0.085 C 
BRANCH   5  13
ATOM     13  C   UNL     1      -2.178 -11.759  12.394  0.00  0.00    +0.122 C 
BRANCH  13  14
ATOM      1  F   UNL     1      -1.374  -9.263  11.320  0.00  0.00    -0.205 F 
ATOM     14  C   UNL     1      -2.964 -11.026  11.338  0.00  0.00    +0.002 A 
ATOM     19  C   UNL     1      -2.510  -9.799  10.853  0.00  0.00    +0.128 A 
ATOM     20  C   UNL     1      -4.147 -11.576  10.846  0.00  0.00    +0.008 A 
ATOM     23  C   UNL     1      -3.239  -9.123   9.876  0.00  0.00    +0.038 A 
ATOM     24  C   UNL     1      -4.877 -10.899   9.869  0.00  0.00    +0.000 A 
ATOM     26  C   UNL     1      -4.423  -9.673   9.384  0.00  0.00    +0.003 A 
ENDBRANCH  13  14
ENDBRANCH   5  13
ENDBRANCH  12   8
BRANCH  21  25
ATOM      2  F   UNL     1     -10.434 -11.593  18.646  0.00  0.00    -0.166 F 
ATOM      3  F   UNL     1      -9.879 -10.517  20.453  0.00  0.00    -0.166 F 
ATOM      4  F   UNL     1     -10.173  -9.435  18.597  0.00  0.00    -0.166 F 
ATOM     25  C   UNL     1      -9.643 -10.584  19.110  0.00  0.00    +0.417 C 
ENDBRANCH  21  25
TORSDOF 4
ENDMDL
MODEL 7
REMARK VINA RESULT:      -7.1      4.116     10.828
REMARK  Name = 45784264
REMARK  4 active torsions:
REMARK  status: ('A' for Active; 'I' for Inactive)
REMARK    1  A    between atoms: N_5  and  C_13
REMARK    2  A    between atoms: C_8  and  C_12
REMARK    3  A    between atoms: C_13  and  C_14
REMARK    4  A    between atoms: C_21  and  C_25
REMARK                            x       y       z     vdW  Elec       q    Type
REMARK                         _______ _______ _______ _____ _____    ______ ____
ROOT
ATOM      6  N   UNL     1      17.746   7.007  21.609  0.00  0.00    -0.342 N 
ATOM      7  N   UNL     1      17.897   6.362  19.488  0.00  0.00    -0.232 NA
ATOM     12  C   UNL     1      18.563   6.584  20.599  0.00  0.00    +0.113 A 
ATOM     15  C   UNL     1      16.467   7.061  21.118  0.00  0.00    +0.067 A 
ATOM     16  C   UNL     1      16.587   6.654  19.792  0.00  0.00    +0.089 A 
ATOM     17  C   UNL     1      15.251   7.419  21.702  0.00  0.00    +0.040 A 
ATOM     18  C   UNL     1      15.438   6.595  18.987  0.00  0.00    +0.030 A 
ATOM     21  C   UNL     1      14.118   7.355  20.886  0.00  0.00    +0.057 A 
ATOM     22  C   UNL     1      14.206   6.951  19.552  0.00  0.00    +0.014 A 
ATOM     27  H   UNL     1      18.029   7.239  22.552  0.00  0.00    +0.167 HD
ENDROOT
BRANCH  12   8
ATOM      5  N   UNL     1      21.687   4.844  21.399  0.00  0.00    -0.297 NA
ATOM      8  C   UNL     1      20.051   6.417  20.810  0.00  0.00    +0.070 C 
ATOM      9  C   UNL     1      20.535   6.691  22.244  0.00  0.00    +0.028 C 
ATOM     10  C   UNL     1      20.543   4.997  20.498  0.00  0.00    +0.096 C 
ATOM     11  C   UNL     1      21.243   5.413  22.672  0.00  0.00    +0.085 C 
BRANCH   5  13
ATOM     13  C   UNL     1      22.110   3.458  21.529  0.00  0.00    +0.122 C 
BRANCH  13  14
ATOM      1  F   UNL     1      23.726   1.326  22.461  0.00  0.00    -0.205 F 
ATOM     14  C   UNL     1      23.543   3.267  21.107  0.00  0.00    +0.002 A 
ATOM     19  C   UNL     1      24.282   2.194  21.604  0.00  0.00    +0.128 A 
ATOM     20  C   UNL     1      24.130   4.165  20.216  0.00  0.00    +0.008 A 
ATOM     23  C   UNL     1      25.609   2.020  21.212  0.00  0.00    +0.038 A 
ATOM     24  C   UNL     1      25.458   3.991  19.824  0.00  0.00    +0.000 A 
ATOM     26  C   UNL     1      26.197   2.919  20.322  0.00  0.00    +0.003 A 
ENDBRANCH  13  14
ENDBRANCH   5  13
ENDBRANCH  12   8
BRANCH  21  25
ATOM      2  F   UNL     1      12.884   8.646  22.456  0.00  0.00    -0.166 F 
ATOM      3  F   UNL     1      11.937   8.275  20.534  0.00  0.00    -0.166 F 
ATOM      4  F   UNL     1      12.105   6.672  21.985  0.00  0.00    -0.166 F 
ATOM     25  C   UNL     1      12.786   7.728  21.453  0.00  0.00    +0.417 C 
ENDBRANCH  21  25
TORSDOF 4
ENDMDL
MODEL 8
REMARK VINA RESULT:      -7.0     23.341     26.520
REMARK  Name = 45784264
REMARK  4 active torsions:
REMARK  status: ('A' for Active; 'I' for Inactive)
REMARK    1  A    between atoms: N_5  and  C_13
REMARK    2  A    between atoms: C_8  and  C_12
REMARK    3  A    between atoms: C_13  and  C_14
REMARK    4  A    between atoms: C_21  and  C_25
REMARK                            x       y       z     vdW  Elec       q    Type
REMARK                         _______ _______ _______ _____ _____    ______ ____
ROOT
ATOM      6  N   UNL     1     -10.852   7.863  19.482  0.00  0.00    -0.342 N 
ATOM      7  N   UNL     1     -12.539   8.845  18.419  0.00  0.00    -0.232 NA
ATOM     12  C   UNL     1     -11.231   8.734  18.500  0.00  0.00    +0.113 A 
ATOM     15  C   UNL     1     -11.990   7.379  20.076  0.00  0.00    +0.067 A 
ATOM     16  C   UNL     1     -13.029   8.007  19.395  0.00  0.00    +0.089 A 
ATOM     17  C   UNL     1     -12.193   6.474  21.118  0.00  0.00    +0.040 A 
ATOM     18  C   UNL     1     -14.356   7.727  19.761  0.00  0.00    +0.030 A 
ATOM     21  C   UNL     1     -13.521   6.207  21.469  0.00  0.00    +0.057 A 
ATOM     22  C   UNL     1     -14.585   6.821  20.805  0.00  0.00    +0.014 A 
ATOM     27  H   UNL     1      -9.903   7.616  19.731  0.00  0.00    +0.167 HD
ENDROOT
BRANCH  12   8
ATOM      5  N   UNL     1      -9.728  11.516  16.649  0.00  0.00    -0.297 NA
ATOM      8  C   UNL     1     -10.209   9.449  17.647  0.00  0.00    +0.070 C 
ATOM      9  C   UNL     1     -10.455   9.358  16.130  0.00  0.00    +0.028 C 
ATOM     10  C   UNL     1     -10.134  10.954  17.939  0.00  0.00    +0.096 C 
ATOM     11  C   UNL     1     -10.534  10.803  15.657  0.00  0.00    +0.085 C 
BRANCH   5  13
ATOM     13  C   UNL     1      -9.920  12.957  16.586  0.00  0.00    +0.122 C 
BRANCH  13  14
ATOM      1  F   UNL     1      -9.765  15.364  18.073  0.00  0.00    -0.205 F 
ATOM     14  C   UNL     1      -8.631  13.704  16.810  0.00  0.00    +0.002 A 
ATOM     19  C   UNL     1      -8.626  14.885  17.553  0.00  0.00    +0.128 A 
ATOM     20  C   UNL     1      -7.441  13.213  16.274  0.00  0.00    +0.008 A 
ATOM     23  C   UNL     1      -7.432  15.574  17.758  0.00  0.00    +0.038 A 
ATOM     24  C   UNL     1      -6.246  13.903  16.479  0.00  0.00    +0.000 A 
ATOM     26  C   UNL     1      -6.242  15.084  17.221  0.00  0.00    +0.003 A 
ENDBRANCH  13  14
ENDBRANCH   5  13
ENDBRANCH  12   8
BRANCH  21  25
ATOM      2  F   UNL     1     -14.343   5.857  23.673  0.00  0.00    -0.166 F 
ATOM      3  F   UNL     1     -14.685   4.262  22.234  0.00  0.00    -0.166 F 
ATOM      4  F   UNL     1     -12.695   4.593  23.030  0.00  0.00    -0.166 F 
ATOM     25  C   UNL     1     -13.804   5.247  22.579  0.00  0.00    +0.417 C 
ENDBRANCH  21  25
TORSDOF 4
ENDMDL
MODEL 9
REMARK VINA RESULT:      -6.9     27.179     30.333
REMARK  Name = 45784264
REMARK  4 active torsions:
REMARK  status: ('A' for Active; 'I' for Inactive)
REMARK    1  A    between atoms: N_5  and  C_13
REMARK    2  A    between atoms: C_8  and  C_12
REMARK    3  A    between atoms: C_13  and  C_14
REMARK    4  A    between atoms: C_21  and  C_25
REMARK                            x       y       z     vdW  Elec       q    Type
REMARK                         _______ _______ _______ _____ _____    ______ ____
ROOT
ATOM      6  N   UNL     1      -8.003  -8.729  16.898  0.00  0.00    -0.342 N 
ATOM      7  N   UNL     1      -8.979 -10.186  18.263  0.00  0.00    -0.232 NA
ATOM     12  C   UNL     1      -7.834  -9.764  17.773  0.00  0.00    +0.113 A 
ATOM     15  C   UNL     1      -9.347  -8.465  16.815  0.00  0.00    +0.067 A 
ATOM     16  C   UNL     1      -9.934  -9.387  17.677  0.00  0.00    +0.089 A 
ATOM     17  C   UNL     1     -10.076  -7.526  16.085  0.00  0.00    +0.040 A 
ATOM     18  C   UNL     1     -11.330  -9.389  17.830  0.00  0.00    +0.030 A 
ATOM     21  C   UNL     1     -11.465  -7.542  16.249  0.00  0.00    +0.057 A 
ATOM     22  C   UNL     1     -12.083  -8.456  17.106  0.00  0.00    +0.014 A 
ATOM     27  H   UNL     1      -7.272  -8.242  16.397  0.00  0.00    +0.167 HD
ENDROOT
BRANCH  12   8
ATOM      5  N   UNL     1      -4.759 -11.689  17.258  0.00  0.00    -0.297 NA
ATOM      8  C   UNL     1      -6.460 -10.307  18.092  0.00  0.00    +0.070 C 
ATOM      9  C   UNL     1      -6.453 -11.638  18.864  0.00  0.00    +0.028 C 
ATOM     10  C   UNL     1      -5.619 -10.581  16.837  0.00  0.00    +0.096 C 
ATOM     11  C   UNL     1      -5.641 -12.591  17.998  0.00  0.00    +0.085 C 
BRANCH   5  13
ATOM     13  C   UNL     1      -4.112 -12.347  16.133  0.00  0.00    +0.122 C 
BRANCH  13  14
ATOM      1  F   UNL     1      -4.159 -11.712  13.372  0.00  0.00    -0.205 F 
ATOM     14  C   UNL     1      -3.089 -11.457  15.475  0.00  0.00    +0.002 A 
ATOM     19  C   UNL     1      -3.172 -11.185  14.110  0.00  0.00    +0.128 A 
ATOM     20  C   UNL     1      -2.059 -10.905  16.235  0.00  0.00    +0.008 A 
ATOM     23  C   UNL     1      -2.225 -10.362  13.504  0.00  0.00    +0.038 A 
ATOM     24  C   UNL     1      -1.110 -10.081  15.629  0.00  0.00    +0.000 A 
ATOM     26  C   UNL     1      -1.193  -9.809  14.264  0.00  0.00    +0.003 A 
ENDBRANCH  13  14
ENDBRANCH   5  13
ENDBRANCH  12   8
BRANCH  21  25
ATOM      2  F   UNL     1     -12.733  -7.057  14.298  0.00  0.00    -0.166 F 
ATOM      3  F   UNL     1     -13.428  -6.178  16.162  0.00  0.00    -0.166 F 
ATOM      4  F   UNL     1     -11.648  -5.402  15.197  0.00  0.00    -0.166 F 
ATOM     25  C   UNL     1     -12.302  -6.563  15.493  0.00  0.00    +0.417 C 
ENDBRANCH  21  25
TORSDOF 4
ENDMDL
MODEL 10
REMARK VINA RESULT:      -6.8     27.494     29.566
REMARK  Name = 45784264
REMARK  4 active torsions:
REMARK  status: ('A' for Active; 'I' for Inactive)
REMARK    1  A    between atoms: N_5  and  C_13
REMARK    2  A    between atoms: C_8  and  C_12
REMARK    3  A    between atoms: C_13  and  C_14
REMARK    4  A    between atoms: C_21  and  C_25
REMARK                            x       y       z     vdW  Elec       q    Type
REMARK                         _______ _______ _______ _____ _____    ______ ____
ROOT
ATOM      6  N   UNL     1      -7.333  -9.631  15.478  0.00  0.00    -0.342 N 
ATOM      7  N   UNL     1      -7.649 -10.035  17.640  0.00  0.00    -0.232 NA
ATOM     12  C   UNL     1      -8.213  -9.634  16.522  0.00  0.00    +0.113 A 
ATOM     15  C   UNL     1      -6.118 -10.058  15.952  0.00  0.00    +0.067 A 
ATOM     16  C   UNL     1      -6.342 -10.304  17.304  0.00  0.00    +0.089 A 
ATOM     17  C   UNL     1      -4.882 -10.245  15.333  0.00  0.00    +0.040 A 
ATOM     18  C   UNL     1      -5.280 -10.764  18.100  0.00  0.00    +0.030 A 
ATOM     21  C   UNL     1      -3.837 -10.704  16.141  0.00  0.00    +0.057 A 
ATOM     22  C   UNL     1      -4.030 -10.959  17.500  0.00  0.00    +0.014 A 
ATOM     27  H   UNL     1      -7.535  -9.362  14.524  0.00  0.00    +0.167 HD
ENDROOT
BRANCH  12   8
ATOM      5  N   UNL     1     -11.003  -7.377  15.780  0.00  0.00    -0.297 NA
ATOM      8  C   UNL     1      -9.652  -9.211  16.338  0.00  0.00    +0.070 C 
ATOM      9  C   UNL     1     -10.335  -8.669  17.606  0.00  0.00    +0.028 C 
ATOM     10  C   UNL     1      -9.820  -8.093  15.300  0.00  0.00    +0.096 C 
ATOM     11  C   UNL     1     -10.821  -7.277  17.228  0.00  0.00    +0.085 C 
BRANCH   5  13
ATOM     13  C   UNL     1     -11.157  -6.074  15.149  0.00  0.00    +0.122 C 
BRANCH  13  14
ATOM      1  F   UNL     1     -11.777  -4.263  13.062  0.00  0.00    -0.205 F 
ATOM     14  C   UNL     1     -12.555  -5.865  14.631  0.00  0.00    +0.002 A 
ATOM     19  C   UNL     1     -12.790  -4.956  13.599  0.00  0.00    +0.128 A 
ATOM     20  C   UNL     1     -13.616  -6.582  15.184  0.00  0.00    +0.008 A 
ATOM     23  C   UNL     1     -14.085  -4.763  13.121  0.00  0.00    +0.038 A 
ATOM     24  C   UNL     1     -14.912  -6.389  14.706  0.00  0.00    +0.000 A 
ATOM     26  C   UNL     1     -15.147  -5.480  13.674  0.00  0.00    +0.003 A 
ENDBRANCH  13  14
ENDBRANCH   5  13
ENDBRANCH  12   8
BRANCH  21  25
ATOM      2  F   UNL     1      -2.254 -10.107  14.470  0.00  0.00    -0.166 F 
ATOM      3  F   UNL     1      -1.459 -10.698  16.406  0.00  0.00    -0.166 F 
ATOM      4  F   UNL     1      -2.296 -12.194  15.078  0.00  0.00    -0.166 F 
ATOM     25  C   UNL     1      -2.488 -10.923  15.537  0.00  0.00    +0.417 C 
ENDBRANCH  21  25
TORSDOF 4
ENDMDL
