MODEL 1
REMARK VINA RESULT:      -6.1      0.000      0.000
REMARK  Name = 75536901
REMARK  3 active torsions:
REMARK  status: ('A' for Active; 'I' for Inactive)
REMARK    1  A    between atoms: O_3  and  C_8
REMARK    2  A    between atoms: O_3  and  C_15
REMARK    3  A    between atoms: C_13  and  C_14
REMARK                            x       y       z     vdW  Elec       q    Type
REMARK                         _______ _______ _______ _____ _____    ______ ____
ROOT
ATOM      2  O   UNL     1      -8.475 -11.256  19.094  0.00  0.00    -0.375 OA
ATOM      4  O   UNL     1      -3.691 -11.878  18.936  0.00  0.00    -0.270 OA
ATOM      5  N   UNL     1      -5.543 -10.676  18.151  0.00  0.00    -0.292 N 
ATOM      8  C   UNL     1      -7.778  -9.904  17.186  0.00  0.00    +0.218 C 
ATOM      9  C   UNL     1      -6.267 -10.089  17.016  0.00  0.00    +0.155 C 
ATOM     10  C   UNL     1      -6.151 -10.594  19.480  0.00  0.00    +0.136 C 
ATOM     11  C   UNL     1      -8.487 -11.167  17.673  0.00  0.00    +0.206 C 
ATOM     12  C   UNL     1      -7.230 -11.654  19.656  0.00  0.00    +0.179 C 
ATOM     13  C   UNL     1      -4.316 -11.345  18.020  0.00  0.00    +0.247 C 
ENDROOT
BRANCH  13  14
ATOM      1  F   UNL     1      -1.163  -9.742  14.700  0.00  0.00    -0.205 F 
ATOM     14  C   UNL     1      -3.705 -11.427  16.683  0.00  0.00    +0.040 A 
ATOM     16  C   UNL     1      -2.703 -10.527  16.318  0.00  0.00    +0.051 A 
ATOM     17  C   UNL     1      -4.128 -12.404  15.782  0.00  0.00    +0.013 A 
ATOM     18  C   UNL     1      -2.125 -10.604  15.051  0.00  0.00    +0.124 A 
ATOM     19  C   UNL     1      -3.551 -12.480  14.515  0.00  0.00    +0.004 A 
ATOM     21  C   UNL     1      -2.548 -11.581  14.149  0.00  0.00    +0.038 A 
ENDBRANCH  13  14
BRANCH   8   3
ATOM      3  O   UNL     1      -8.294  -9.545  15.904  0.00  0.00    -0.468 OA
BRANCH   3  15
ATOM      6  N   UNL     1      -9.617  -7.958  16.970  0.00  0.00    -0.219 NA
ATOM      7  N   UNL     1     -11.351  -7.966  14.766  0.00  0.00    -0.256 NA
ATOM     15  C   UNL     1      -9.400  -8.741  15.894  0.00  0.00    +0.234 A 
ATOM     20  C   UNL     1     -10.252  -8.745  14.811  0.00  0.00    +0.177 A 
ATOM     22  C   UNL     1     -10.716  -7.179  16.924  0.00  0.00    +0.134 A 
ATOM     23  C   UNL     1     -11.568  -7.183  15.842  0.00  0.00    +0.130 A 
ENDBRANCH   3  15
ENDBRANCH   8   3
TORSDOF 3
ENDMDL
MODEL 2
REMARK VINA RESULT:      -5.8     18.855     20.151
REMARK  Name = 75536901
REMARK  3 active torsions:
REMARK  status: ('A' for Active; 'I' for Inactive)
REMARK    1  A    between atoms: O_3  and  C_8
REMARK    2  A    between atoms: O_3  and  C_15
REMARK    3  A    between atoms: C_13  and  C_14
REMARK                            x       y       z     vdW  Elec       q    Type
REMARK                         _______ _______ _______ _____ _____    ______ ____
ROOT
ATOM      2  O   UNL     1     -11.982  10.737  14.683  0.00  0.00    -0.375 OA
ATOM      4  O   UNL     1      -9.744   9.561  18.795  0.00  0.00    -0.270 OA
ATOM      5  N   UNL     1     -11.301   8.938  17.157  0.00  0.00    -0.292 N 
ATOM      8  C   UNL     1     -13.223   8.795  15.483  0.00  0.00    +0.218 C 
ATOM      9  C   UNL     1     -12.619   8.383  16.829  0.00  0.00    +0.155 C 
ATOM     10  C   UNL     1     -10.454   9.413  16.062  0.00  0.00    +0.136 C 
ATOM     11  C   UNL     1     -13.212  10.306  15.257  0.00  0.00    +0.206 C 
ATOM     12  C   UNL     1     -10.888  10.795  15.592  0.00  0.00    +0.179 C 
ATOM     13  C   UNL     1     -10.827   9.072  18.472  0.00  0.00    +0.247 C 
ENDROOT
BRANCH  13  14
ATOM      1  F   UNL     1     -12.170   5.607  21.589  0.00  0.00    -0.205 F 
ATOM     14  C   UNL     1     -11.678   8.595  19.573  0.00  0.00    +0.040 A 
ATOM     16  C   UNL     1     -11.517   7.301  20.069  0.00  0.00    +0.051 A 
ATOM     17  C   UNL     1     -12.647   9.437  20.121  0.00  0.00    +0.013 A 
ATOM     18  C   UNL     1     -12.326   6.848  21.112  0.00  0.00    +0.124 A 
ATOM     19  C   UNL     1     -13.455   8.984  21.163  0.00  0.00    +0.004 A 
ATOM     21  C   UNL     1     -13.295   7.690  21.660  0.00  0.00    +0.038 A 
ENDBRANCH  13  14
BRANCH   8   3
ATOM      3  O   UNL     1     -14.575   8.334  15.480  0.00  0.00    -0.468 OA
BRANCH   3  15
ATOM      6  N   UNL     1     -16.070   6.731  14.705  0.00  0.00    -0.219 NA
ATOM      7  N   UNL     1     -14.287   6.116  12.628  0.00  0.00    -0.256 NA
ATOM     15  C   UNL     1     -14.889   7.366  14.567  0.00  0.00    +0.234 A 
ATOM     20  C   UNL     1     -14.013   7.064  13.547  0.00  0.00    +0.177 A 
ATOM     22  C   UNL     1     -16.344   5.783  13.786  0.00  0.00    +0.134 A 
ATOM     23  C   UNL     1     -15.468   5.481  12.767  0.00  0.00    +0.130 A 
ENDBRANCH   3  15
ENDBRANCH   8   3
TORSDOF 3
ENDMDL
MODEL 3
REMARK VINA RESULT:      -5.7      4.002      5.297
REMARK  Name = 75536901
REMARK  3 active torsions:
REMARK  status: ('A' for Active; 'I' for Inactive)
REMARK    1  A    between atoms: O_3  and  C_8
REMARK    2  A    between atoms: O_3  and  C_15
REMARK    3  A    between atoms: C_13  and  C_14
REMARK                            x       y       z     vdW  Elec       q    Type
REMARK                         _______ _______ _______ _____ _____    ______ ____
ROOT
ATOM      2  O   UNL     1      -4.236 -12.314  15.699  0.00  0.00    -0.375 OA
ATOM      4  O   UNL     1      -1.527 -10.784  12.008  0.00  0.00    -0.270 OA
ATOM      5  N   UNL     1      -3.500 -10.512  13.242  0.00  0.00    -0.292 N 
ATOM      8  C   UNL     1      -5.712 -10.795  14.487  0.00  0.00    +0.218 C 
ATOM      9  C   UNL     1      -4.953 -10.302  13.252  0.00  0.00    +0.155 C 
ATOM     10  C   UNL     1      -2.817 -10.703  14.522  0.00  0.00    +0.136 C 
ATOM     11  C   UNL     1      -5.382 -12.241  14.857  0.00  0.00    +0.206 C 
ATOM     12  C   UNL     1      -2.993 -12.129  15.031  0.00  0.00    +0.179 C 
ATOM     13  C   UNL     1      -2.739 -10.578  12.064  0.00  0.00    +0.247 C 
ENDROOT
BRANCH  13  14
ATOM      1  F   UNL     1      -5.027 -12.364   8.178  0.00  0.00    -0.205 F 
ATOM     14  C   UNL     1      -3.426 -10.385  10.777  0.00  0.00    +0.040 A 
ATOM     16  C   UNL     1      -3.911 -11.488  10.074  0.00  0.00    +0.051 A 
ATOM     17  C   UNL     1      -3.592  -9.100  10.261  0.00  0.00    +0.013 A 
ATOM     18  C   UNL     1      -4.561 -11.306   8.853  0.00  0.00    +0.124 A 
ATOM     19  C   UNL     1      -4.242  -8.918   9.041  0.00  0.00    +0.004 A 
ATOM     21  C   UNL     1      -4.727 -10.020   8.337  0.00  0.00    +0.038 A 
ENDBRANCH  13  14
BRANCH   8   3
ATOM      3  O   UNL     1      -7.103 -10.699  14.181  0.00  0.00    -0.468 OA
BRANCH   3  15
ATOM      6  N   UNL     1      -9.005  -9.407  14.533  0.00  0.00    -0.219 NA
ATOM      7  N   UNL     1      -8.174  -8.956  17.173  0.00  0.00    -0.256 NA
ATOM     15  C   UNL     1      -7.862  -9.930  15.021  0.00  0.00    +0.234 A 
ATOM     20  C   UNL     1      -7.454  -9.708  16.317  0.00  0.00    +0.177 A 
ATOM     22  C   UNL     1      -9.725  -8.656  15.389  0.00  0.00    +0.134 A 
ATOM     23  C   UNL     1      -9.317  -8.434  16.685  0.00  0.00    +0.130 A 
ENDBRANCH   3  15
ENDBRANCH   8   3
TORSDOF 3
ENDMDL
MODEL 4
REMARK VINA RESULT:      -5.7     25.818     28.439
REMARK  Name = 75536901
REMARK  3 active torsions:
REMARK  status: ('A' for Active; 'I' for Inactive)
REMARK    1  A    between atoms: O_3  and  C_8
REMARK    2  A    between atoms: O_3  and  C_15
REMARK    3  A    between atoms: C_13  and  C_14
REMARK                            x       y       z     vdW  Elec       q    Type
REMARK                         _______ _______ _______ _____ _____    ______ ____
ROOT
ATOM      2  O   UNL     1      11.622  10.014   4.238  0.00  0.00    -0.375 OA
ATOM      4  O   UNL     1       7.870   8.072   6.573  0.00  0.00    -0.270 OA
ATOM      5  N   UNL     1      10.150   8.610   6.623  0.00  0.00    -0.292 N 
ATOM      8  C   UNL     1      12.644   8.910   6.160  0.00  0.00    +0.218 C 
ATOM      9  C   UNL     1      11.527   8.205   6.936  0.00  0.00    +0.155 C 
ATOM     10  C   UNL     1       9.934   9.920   6.008  0.00  0.00    +0.136 C 
ATOM     11  C   UNL     1      12.419   8.907   4.648  0.00  0.00    +0.206 C 
ATOM     12  C   UNL     1      10.233   9.882   4.514  0.00  0.00    +0.179 C 
ATOM     13  C   UNL     1       9.035   7.787   6.849  0.00  0.00    +0.247 C 
ENDROOT
BRANCH  13  14
ATOM      1  F   UNL     1       9.064   4.889  10.738  0.00  0.00    -0.205 F 
ATOM     14  C   UNL     1       9.253   6.470   7.467  0.00  0.00    +0.040 A 
ATOM     16  C   UNL     1       9.051   6.301   8.837  0.00  0.00    +0.051 A 
ATOM     17  C   UNL     1       9.662   5.391   6.683  0.00  0.00    +0.013 A 
ATOM     18  C   UNL     1       9.259   5.052   9.424  0.00  0.00    +0.124 A 
ATOM     19  C   UNL     1       9.871   4.143   7.270  0.00  0.00    +0.004 A 
ATOM     21  C   UNL     1       9.668   3.973   8.640  0.00  0.00    +0.038 A 
ENDBRANCH  13  14
BRANCH   8   3
ATOM      3  O   UNL     1      13.853   8.209   6.452  0.00  0.00    -0.468 OA
BRANCH   3  15
ATOM      6  N   UNL     1      16.114   8.259   5.913  0.00  0.00    -0.219 NA
ATOM      7  N   UNL     1      16.169  10.995   6.526  0.00  0.00    -0.256 NA
ATOM     15  C   UNL     1      15.016   8.919   6.332  0.00  0.00    +0.234 A 
ATOM     20  C   UNL     1      15.043  10.263   6.633  0.00  0.00    +0.177 A 
ATOM     22  C   UNL     1      17.240   8.991   5.806  0.00  0.00    +0.134 A 
ATOM     23  C   UNL     1      17.267  10.335   6.107  0.00  0.00    +0.130 A 
ENDBRANCH   3  15
ENDBRANCH   8   3
TORSDOF 3
ENDMDL
MODEL 5
REMARK VINA RESULT:      -5.5     25.592     27.854
REMARK  Name = 75536901
REMARK  3 active torsions:
REMARK  status: ('A' for Active; 'I' for Inactive)
REMARK    1  A    between atoms: O_3  and  C_8
REMARK    2  A    between atoms: O_3  and  C_15
REMARK    3  A    between atoms: C_13  and  C_14
REMARK                            x       y       z     vdW  Elec       q    Type
REMARK                         _______ _______ _______ _____ _____    ______ ____
ROOT
ATOM      2  O   UNL     1      18.173  -5.726  28.934  0.00  0.00    -0.375 OA
ATOM      4  O   UNL     1      19.230  -5.199  24.254  0.00  0.00    -0.270 OA
ATOM      5  N   UNL     1      18.848  -4.147  26.313  0.00  0.00    -0.292 N 
ATOM      8  C   UNL     1      17.940  -3.327  28.554  0.00  0.00    +0.218 C 
ATOM      9  C   UNL     1      18.199  -3.068  27.067  0.00  0.00    +0.155 C 
ATOM     10  C   UNL     1      19.626  -5.142  27.053  0.00  0.00    +0.136 C 
ATOM     11  C   UNL     1      17.238  -4.658  28.819  0.00  0.00    +0.206 C 
ATOM     12  C   UNL     1      18.715  -6.179  27.700  0.00  0.00    +0.179 C 
ATOM     13  C   UNL     1      18.731  -4.294  24.921  0.00  0.00    +0.247 C 
ENDROOT
BRANCH  13  14
ATOM      1  F   UNL     1      14.717  -2.972  22.539  0.00  0.00    -0.205 F 
ATOM     14  C   UNL     1      17.950  -3.293  24.177  0.00  0.00    +0.040 A 
ATOM     16  C   UNL     1      16.678  -3.614  23.702  0.00  0.00    +0.051 A 
ATOM     17  C   UNL     1      18.481  -2.023  23.948  0.00  0.00    +0.013 A 
ATOM     18  C   UNL     1      15.938  -2.665  22.995  0.00  0.00    +0.124 A 
ATOM     19  C   UNL     1      17.742  -1.076  23.241  0.00  0.00    +0.004 A 
ATOM     21  C   UNL     1      16.470  -1.396  22.765  0.00  0.00    +0.038 A 
ENDBRANCH  13  14
BRANCH   8   3
ATOM      3  O   UNL     1      17.110  -2.262  29.019  0.00  0.00    -0.468 OA
BRANCH   3  15
ATOM      6  N   UNL     1      18.623  -1.198  30.428  0.00  0.00    -0.219 NA
ATOM      7  N   UNL     1      16.732  -1.315  32.497  0.00  0.00    -0.256 NA
ATOM     15  C   UNL     1      17.406  -1.750  30.253  0.00  0.00    +0.234 A 
ATOM     20  C   UNL     1      16.477  -1.808  31.268  0.00  0.00    +0.177 A 
ATOM     22  C   UNL     1      18.878  -0.705  31.657  0.00  0.00    +0.134 A 
ATOM     23  C   UNL     1      17.949  -0.763  32.673  0.00  0.00    +0.130 A 
ENDBRANCH   3  15
ENDBRANCH   8   3
TORSDOF 3
ENDMDL
MODEL 6
REMARK VINA RESULT:      -5.5     23.124     25.031
REMARK  Name = 75536901
REMARK  3 active torsions:
REMARK  status: ('A' for Active; 'I' for Inactive)
REMARK    1  A    between atoms: O_3  and  C_8
REMARK    2  A    between atoms: O_3  and  C_15
REMARK    3  A    between atoms: C_13  and  C_14
REMARK                            x       y       z     vdW  Elec       q    Type
REMARK                         _______ _______ _______ _____ _____    ______ ____
ROOT
ATOM      2  O   UNL     1      -6.318  -8.952  40.886  0.00  0.00    -0.375 OA
ATOM      4  O   UNL     1     -10.054  -6.304  39.361  0.00  0.00    -0.270 OA
ATOM      5  N   UNL     1      -7.735  -6.435  39.669  0.00  0.00    -0.292 N 
ATOM      8  C   UNL     1      -5.359  -6.733  40.555  0.00  0.00    +0.218 C 
ATOM      9  C   UNL     1      -6.494  -5.798  40.126  0.00  0.00    +0.155 C 
ATOM     10  C   UNL     1      -7.673  -7.817  39.192  0.00  0.00    +0.136 C 
ATOM     11  C   UNL     1      -5.805  -7.802  41.551  0.00  0.00    +0.206 C 
ATOM     12  C   UNL     1      -7.630  -8.799  40.357  0.00  0.00    +0.179 C 
ATOM     13  C   UNL     1      -8.986  -5.798  39.703  0.00  0.00    +0.247 C 
ENDROOT
BRANCH  13  14
ATOM      1  F   UNL     1      -9.595  -1.057  38.877  0.00  0.00    -0.205 F 
ATOM     14  C   UNL     1      -9.049  -4.408  40.183  0.00  0.00    +0.040 A 
ATOM     16  C   UNL     1      -9.297  -3.371  39.284  0.00  0.00    +0.051 A 
ATOM     17  C   UNL     1      -8.859  -4.129  41.537  0.00  0.00    +0.013 A 
ATOM     18  C   UNL     1      -9.355  -2.053  39.739  0.00  0.00    +0.124 A 
ATOM     19  C   UNL     1      -8.917  -2.812  41.991  0.00  0.00    +0.004 A 
ATOM     21  C   UNL     1      -9.166  -1.773  41.093  0.00  0.00    +0.038 A 
ENDBRANCH  13  14
BRANCH   8   3
ATOM      3  O   UNL     1      -4.361  -5.914  41.167  0.00  0.00    -0.468 OA
BRANCH   3  15
ATOM      6  N   UNL     1      -3.039  -5.559  39.288  0.00  0.00    -0.219 NA
ATOM      7  N   UNL     1      -0.780  -6.306  40.773  0.00  0.00    -0.256 NA
ATOM     15  C   UNL     1      -3.124  -5.921  40.583  0.00  0.00    +0.234 A 
ATOM     20  C   UNL     1      -2.015  -6.288  41.313  0.00  0.00    +0.177 A 
ATOM     22  C   UNL     1      -1.804  -5.577  38.748  0.00  0.00    +0.134 A 
ATOM     23  C   UNL     1      -0.694  -5.944  39.477  0.00  0.00    +0.130 A 
ENDBRANCH   3  15
ENDBRANCH   8   3
TORSDOF 3
ENDMDL
MODEL 7
REMARK VINA RESULT:      -5.5     26.092     28.525
REMARK  Name = 75536901
REMARK  3 active torsions:
REMARK  status: ('A' for Active; 'I' for Inactive)
REMARK    1  A    between atoms: O_3  and  C_8
REMARK    2  A    between atoms: O_3  and  C_15
REMARK    3  A    between atoms: C_13  and  C_14
REMARK                            x       y       z     vdW  Elec       q    Type
REMARK                         _______ _______ _______ _____ _____    ______ ____
ROOT
ATOM      2  O   UNL     1      14.100   9.716   5.501  0.00  0.00    -0.375 OA
ATOM      4  O   UNL     1      13.484   8.033   1.019  0.00  0.00    -0.270 OA
ATOM      5  N   UNL     1      12.838   7.915   3.268  0.00  0.00    -0.292 N 
ATOM      8  C   UNL     1      12.714   7.732   5.812  0.00  0.00    +0.218 C 
ATOM      9  C   UNL     1      12.514   7.088   4.438  0.00  0.00    +0.155 C 
ATOM     10  C   UNL     1      12.847   9.370   3.428  0.00  0.00    +0.136 C 
ATOM     11  C   UNL     1      14.090   8.375   5.980  0.00  0.00    +0.206 C 
ATOM     12  C   UNL     1      14.138   9.842   4.084  0.00  0.00    +0.179 C 
ATOM     13  C   UNL     1      13.176   7.379   2.015  0.00  0.00    +0.247 C 
ENDROOT
BRANCH  13  14
ATOM      1  F   UNL     1      15.515   3.151   1.600  0.00  0.00    -0.205 F 
ATOM     14  C   UNL     1      13.166   5.917   1.856  0.00  0.00    +0.040 A 
ATOM     16  C   UNL     1      14.369   5.213   1.802  0.00  0.00    +0.051 A 
ATOM     17  C   UNL     1      11.953   5.234   1.757  0.00  0.00    +0.013 A 
ATOM     18  C   UNL     1      14.361   3.826   1.650  0.00  0.00    +0.124 A 
ATOM     19  C   UNL     1      11.944   3.848   1.604  0.00  0.00    +0.004 A 
ATOM     21  C   UNL     1      13.148   3.143   1.551  0.00  0.00    +0.038 A 
ENDBRANCH  13  14
BRANCH   8   3
ATOM      3  O   UNL     1      12.565   6.692   6.780  0.00  0.00    -0.468 OA
BRANCH   3  15
ATOM      6  N   UNL     1      11.089   5.493   8.118  0.00  0.00    -0.219 NA
ATOM      7  N   UNL     1       9.227   7.577   7.879  0.00  0.00    -0.256 NA
ATOM     15  C   UNL     1      11.349   6.604   7.400  0.00  0.00    +0.234 A 
ATOM     20  C   UNL     1      10.435   7.628   7.283  0.00  0.00    +0.177 A 
ATOM     22  C   UNL     1       9.881   5.443   8.714  0.00  0.00    +0.134 A 
ATOM     23  C   UNL     1       8.967   6.466   8.597  0.00  0.00    +0.130 A 
ENDBRANCH   3  15
ENDBRANCH   8   3
TORSDOF 3
ENDMDL
MODEL 8
REMARK VINA RESULT:      -5.4     23.312     24.403
REMARK  Name = 75536901
REMARK  3 active torsions:
REMARK  status: ('A' for Active; 'I' for Inactive)
REMARK    1  A    between atoms: O_3  and  C_8
REMARK    2  A    between atoms: O_3  and  C_15
REMARK    3  A    between atoms: C_13  and  C_14
REMARK                            x       y       z     vdW  Elec       q    Type
REMARK                         _______ _______ _______ _____ _____    ______ ____
ROOT
ATOM      2  O   UNL     1      -8.371  -8.251  39.866  0.00  0.00    -0.375 OA
ATOM      4  O   UNL     1      -4.043  -8.389  41.999  0.00  0.00    -0.270 OA
ATOM      5  N   UNL     1      -5.886  -7.083  41.377  0.00  0.00    -0.292 N 
ATOM      8  C   UNL     1      -7.798  -5.899  40.167  0.00  0.00    +0.218 C 
ATOM      9  C   UNL     1      -6.399  -5.840  40.788  0.00  0.00    +0.155 C 
ATOM     10  C   UNL     1      -6.848  -8.111  41.777  0.00  0.00    +0.136 C 
ATOM     11  C   UNL     1      -7.974  -7.062  39.192  0.00  0.00    +0.206 C 
ATOM     12  C   UNL     1      -7.327  -8.912  40.573  0.00  0.00    +0.179 C 
ATOM     13  C   UNL     1      -4.517  -7.350  41.541  0.00  0.00    +0.247 C 
ENDROOT
BRANCH  13  14
ATOM      1  F   UNL     1      -1.749  -5.223  38.174  0.00  0.00    -0.205 F 
ATOM     14  C   UNL     1      -3.551  -6.316  41.139  0.00  0.00    +0.040 A 
ATOM     16  C   UNL     1      -3.099  -6.259  39.820  0.00  0.00    +0.051 A 
ATOM     17  C   UNL     1      -3.086  -5.394  42.077  0.00  0.00    +0.013 A 
ATOM     18  C   UNL     1      -2.181  -5.279  39.439  0.00  0.00    +0.124 A 
ATOM     19  C   UNL     1      -2.169  -4.415  41.696  0.00  0.00    +0.004 A 
ATOM     21  C   UNL     1      -1.717  -4.356  40.377  0.00  0.00    +0.038 A 
ENDBRANCH  13  14
BRANCH   8   3
ATOM      3  O   UNL     1      -7.989  -4.669  39.466  0.00  0.00    -0.468 OA
BRANCH   3  15
ATOM      6  N   UNL     1      -9.991  -4.391  40.615  0.00  0.00    -0.219 NA
ATOM      7  N   UNL     1      -9.804  -1.622  40.210  0.00  0.00    -0.256 NA
ATOM     15  C   UNL     1      -8.960  -3.835  39.948  0.00  0.00    +0.234 A 
ATOM     20  C   UNL     1      -8.868  -2.475  39.749  0.00  0.00    +0.177 A 
ATOM     22  C   UNL     1     -10.928  -3.538  41.075  0.00  0.00    +0.134 A 
ATOM     23  C   UNL     1     -10.836  -2.178  40.876  0.00  0.00    +0.130 A 
ENDBRANCH   3  15
ENDBRANCH   8   3
TORSDOF 3
ENDMDL
MODEL 9
REMARK VINA RESULT:      -5.4      2.073      2.993
REMARK  Name = 75536901
REMARK  3 active torsions:
REMARK  status: ('A' for Active; 'I' for Inactive)
REMARK    1  A    between atoms: O_3  and  C_8
REMARK    2  A    between atoms: O_3  and  C_15
REMARK    3  A    between atoms: C_13  and  C_14
REMARK                            x       y       z     vdW  Elec       q    Type
REMARK                         _______ _______ _______ _____ _____    ______ ____
ROOT
ATOM      2  O   UNL     1     -11.800 -11.053  18.559  0.00  0.00    -0.375 OA
ATOM      4  O   UNL     1      -7.445 -12.244  20.267  0.00  0.00    -0.270 OA
ATOM      5  N   UNL     1      -8.689 -10.834  18.869  0.00  0.00    -0.292 N 
ATOM      8  C   UNL     1     -10.258  -9.807  17.136  0.00  0.00    +0.218 C 
ATOM      9  C   UNL     1      -8.835 -10.172  17.566  0.00  0.00    +0.155 C 
ATOM     10  C   UNL     1      -9.758 -10.672  19.855  0.00  0.00    +0.136 C 
ATOM     11  C   UNL     1     -11.239 -10.973  17.253  0.00  0.00    +0.206 C 
ATOM     12  C   UNL     1     -10.932 -11.594  19.548  0.00  0.00    +0.179 C 
ATOM     13  C   UNL     1      -7.593 -11.645  19.202  0.00  0.00    +0.247 C 
ENDROOT
BRANCH  13  14
ATOM      1  F   UNL     1      -3.686  -9.953  16.877  0.00  0.00    -0.205 F 
ATOM     14  C   UNL     1      -6.517 -11.808  18.211  0.00  0.00    +0.040 A 
ATOM     16  C   UNL     1      -5.593 -10.783  18.010  0.00  0.00    +0.051 A 
ATOM     17  C   UNL     1      -6.423 -12.988  17.472  0.00  0.00    +0.013 A 
ATOM     18  C   UNL     1      -4.574 -10.936  17.069  0.00  0.00    +0.124 A 
ATOM     19  C   UNL     1      -5.405 -13.141  16.532  0.00  0.00    +0.004 A 
ATOM     21  C   UNL     1      -4.480 -12.116  16.331  0.00  0.00    +0.038 A 
ENDBRANCH  13  14
BRANCH   8   3
ATOM      3  O   UNL     1     -10.183  -9.396  15.770  0.00  0.00    -0.468 OA
BRANCH   3  15
ATOM      6  N   UNL     1     -11.566  -8.155  14.373  0.00  0.00    -0.219 NA
ATOM      7  N   UNL     1     -11.095  -5.894  15.965  0.00  0.00    -0.256 NA
ATOM     15  C   UNL     1     -10.768  -8.200  15.459  0.00  0.00    +0.234 A 
ATOM     20  C   UNL     1     -10.537  -7.090  16.240  0.00  0.00    +0.177 A 
ATOM     22  C   UNL     1     -12.124  -6.960  14.097  0.00  0.00    +0.134 A 
ATOM     23  C   UNL     1     -11.893  -5.850  14.879  0.00  0.00    +0.130 A 
ENDBRANCH   3  15
ENDBRANCH   8   3
TORSDOF 3
ENDMDL
MODEL 10
REMARK VINA RESULT:      -5.4      2.184      3.049
REMARK  Name = 75536901
REMARK  3 active torsions:
REMARK  status: ('A' for Active; 'I' for Inactive)
REMARK    1  A    between atoms: O_3  and  C_8
REMARK    2  A    between atoms: O_3  and  C_15
REMARK    3  A    between atoms: C_13  and  C_14
REMARK                            x       y       z     vdW  Elec       q    Type
REMARK                         _______ _______ _______ _____ _____    ______ ____
ROOT
ATOM      2  O   UNL     1     -11.652 -11.353  18.359  0.00  0.00    -0.375 OA
ATOM      4  O   UNL     1      -7.300 -12.193  20.270  0.00  0.00    -0.270 OA
ATOM      5  N   UNL     1      -8.589 -10.876  18.823  0.00  0.00    -0.292 N 
ATOM      8  C   UNL     1     -10.155  -9.965  17.023  0.00  0.00    +0.218 C 
ATOM      9  C   UNL     1      -8.728 -10.214  17.520  0.00  0.00    +0.155 C 
ATOM     10  C   UNL     1      -9.716 -10.816  19.756  0.00  0.00    +0.136 C 
ATOM     11  C   UNL     1     -11.038 -11.211  17.082  0.00  0.00    +0.206 C 
ATOM     12  C   UNL     1     -10.790 -11.831  19.385  0.00  0.00    +0.179 C 
ATOM     13  C   UNL     1      -7.446 -11.596  19.204  0.00  0.00    +0.247 C 
ENDROOT
BRANCH  13  14
ATOM      1  F   UNL     1      -4.973 -13.849  15.691  0.00  0.00    -0.205 F 
ATOM     14  C   UNL     1      -6.314 -11.656  18.266  0.00  0.00    +0.040 A 
ATOM     16  C   UNL     1      -6.178 -12.746  17.406  0.00  0.00    +0.051 A 
ATOM     17  C   UNL     1      -5.377 -10.622  18.237  0.00  0.00    +0.013 A 
ATOM     18  C   UNL     1      -5.103 -12.803  16.517  0.00  0.00    +0.124 A 
ATOM     19  C   UNL     1      -4.304 -10.680  17.349  0.00  0.00    +0.004 A 
ATOM     21  C   UNL     1      -4.167 -11.770  16.488  0.00  0.00    +0.038 A 
ENDBRANCH  13  14
BRANCH   8   3
ATOM      3  O   UNL     1     -10.048  -9.533  15.666  0.00  0.00    -0.468 OA
BRANCH   3  15
ATOM      6  N   UNL     1     -10.206  -7.246  16.052  0.00  0.00    -0.219 NA
ATOM      7  N   UNL     1     -12.163  -7.073  14.050  0.00  0.00    -0.256 NA
ATOM     15  C   UNL     1     -10.618  -8.328  15.361  0.00  0.00    +0.234 A 
ATOM     20  C   UNL     1     -11.579  -8.243  14.378  0.00  0.00    +0.177 A 
ATOM     22  C   UNL     1     -10.790  -6.076  15.724  0.00  0.00    +0.134 A 
ATOM     23  C   UNL     1     -11.751  -5.991  14.741  0.00  0.00    +0.130 A 
ENDBRANCH   3  15
ENDBRANCH   8   3
TORSDOF 3
ENDMDL
