MODEL 1
REMARK VINA RESULT:      -7.6      0.000      0.000
REMARK  Name = 40475061
REMARK  6 active torsions:
REMARK  status: ('A' for Active; 'I' for Inactive)
REMARK    1  A    between atoms: S_1  and  N_9
REMARK    2  A    between atoms: S_1  and  C_28
REMARK    3  A    between atoms: O_6  and  C_37
REMARK    4  A    between atoms: O_6  and  C_38
REMARK    5  A    between atoms: N_9  and  C_20
REMARK    6  A    between atoms: C_19  and  C_22
REMARK                            x       y       z     vdW  Elec       q    Type
REMARK                         _______ _______ _______ _____ _____    ______ ____
ROOT
ATOM      2  O   UNL     1      -7.937  -9.149  17.547  0.00  0.00    -0.266 OA
ATOM      3  O   UNL     1      -3.092 -10.521  16.322  0.00  0.00    -0.270 OA
ATOM      7  N   UNL     1      -4.475 -12.365  15.918  0.00  0.00    -0.297 N 
ATOM      8  N   UNL     1      -7.351 -11.201  16.579  0.00  0.00    -0.310 N 
ATOM     10  C   UNL     1      -5.977 -12.980  17.805  0.00  0.00    +0.027 C 
ATOM     11  C   UNL     1      -6.702 -13.377  15.485  0.00  0.00    +0.054 C 
ATOM     12  C   UNL     1      -6.703 -13.966  16.895  0.00  0.00    +0.018 C 
ATOM     13  C   UNL     1      -4.530 -12.770  17.322  0.00  0.00    +0.113 C 
ATOM     14  C   UNL     1      -6.770 -11.668  17.845  0.00  0.00    +0.130 C 
ATOM     15  C   UNL     1      -5.248 -13.214  14.996  0.00  0.00    +0.117 C 
ATOM     16  C   UNL     1      -7.405 -12.033  15.453  0.00  0.00    +0.027 A 
ATOM     17  C   UNL     1      -8.043 -11.631  14.337  0.00  0.00    +0.024 A 
ATOM     18  C   UNL     1      -7.937  -9.919  16.586  0.00  0.00    +0.274 A 
ATOM     19  C   UNL     1      -3.739 -11.234  15.557  0.00  0.00    +0.247 C 
ATOM     20  C   UNL     1      -8.604  -9.522  15.319  0.00  0.00    +0.112 A 
ATOM     21  C   UNL     1      -8.662 -10.336  14.265  0.00  0.00    +0.031 A 
ENDROOT
BRANCH  19  22
ATOM     22  C   UNL     1      -3.744 -10.834  14.146  0.00  0.00    +0.037 A 
ATOM     23  C   UNL     1      -4.853 -10.177  13.611  0.00  0.00    +0.021 A 
ATOM     24  C   UNL     1      -2.643 -11.110  13.339  0.00  0.00    +0.013 A 
ATOM     25  C   UNL     1      -4.874  -9.788  12.262  0.00  0.00    -0.017 A 
ATOM     26  C   UNL     1      -2.647 -10.731  11.997  0.00  0.00    +0.009 A 
ATOM     27  C   UNL     1      -3.755 -10.069  11.443  0.00  0.00    -0.018 A 
ATOM     29  C   UNL     1      -5.982  -9.126  11.709  0.00  0.00    +0.008 A 
ATOM     30  C   UNL     1      -3.778  -9.680  10.094  0.00  0.00    +0.008 A 
ATOM     33  C   UNL     1      -5.987  -8.748  10.365  0.00  0.00    +0.001 A 
ATOM     34  C   UNL     1      -4.886  -9.023   9.560  0.00  0.00    +0.001 A 
ENDBRANCH  19  22
BRANCH  20   9
ATOM      9  N   UNL     1      -9.211  -8.259  15.205  0.00  0.00    -0.211 N 
ATOM     39  H   UNL     1      -8.559  -7.484  15.390  0.00  0.00    +0.174 HD
BRANCH   9   1
ATOM      1  S   UNL     1     -10.743  -8.073  15.902  0.00  0.00    +0.073 S 
ATOM      4  O   UNL     1     -11.396  -9.364  15.994  0.00  0.00    -0.150 OA
ATOM      5  O   UNL     1     -10.647  -7.217  17.070  0.00  0.00    -0.150 OA
BRANCH   1  28
ATOM     28  C   UNL     1     -11.568  -7.150  14.639  0.00  0.00    +0.109 A 
ATOM     31  C   UNL     1     -12.057  -7.802  13.506  0.00  0.00    +0.032 A 
ATOM     32  C   UNL     1     -11.727  -5.770  14.774  0.00  0.00    +0.032 A 
ATOM     35  C   UNL     1     -12.705  -7.073  12.508  0.00  0.00    +0.047 A 
ATOM     36  C   UNL     1     -12.375  -5.043  13.777  0.00  0.00    +0.047 A 
ATOM     37  C   UNL     1     -12.864  -5.694  12.644  0.00  0.00    +0.120 A 
BRANCH  37   6
ATOM      6  O   UNL     1     -13.496  -4.984  11.670  0.00  0.00    -0.495 OA
ATOM     38  C   UNL     1     -13.204  -3.589  11.590  0.00  0.00    +0.277 C 
ENDBRANCH  37   6
ENDBRANCH   1  28
ENDBRANCH   9   1
ENDBRANCH  20   9
TORSDOF 5
ENDMDL
MODEL 2
REMARK VINA RESULT:      -7.2     24.739     28.548
REMARK  Name = 40475061
REMARK  6 active torsions:
REMARK  status: ('A' for Active; 'I' for Inactive)
REMARK    1  A    between atoms: S_1  and  N_9
REMARK    2  A    between atoms: S_1  and  C_28
REMARK    3  A    between atoms: O_6  and  C_37
REMARK    4  A    between atoms: O_6  and  C_38
REMARK    5  A    between atoms: N_9  and  C_20
REMARK    6  A    between atoms: C_19  and  C_22
REMARK                            x       y       z     vdW  Elec       q    Type
REMARK                         _______ _______ _______ _____ _____    ______ ____
ROOT
ATOM      2  O   UNL     1      13.834   5.920   0.292  0.00  0.00    -0.266 OA
ATOM      3  O   UNL     1      10.949   9.541  -2.036  0.00  0.00    -0.270 OA
ATOM      7  N   UNL     1       9.943   7.467  -2.438  0.00  0.00    -0.297 N 
ATOM      8  N   UNL     1      11.795   5.495  -0.780  0.00  0.00    -0.310 N 
ATOM     10  C   UNL     1      11.477   5.712  -3.312  0.00  0.00    +0.027 C 
ATOM     11  C   UNL     1       9.571   5.073  -1.889  0.00  0.00    +0.054 C 
ATOM     12  C   UNL     1      10.379   4.670  -3.121  0.00  0.00    +0.018 C 
ATOM     13  C   UNL     1      10.861   7.108  -3.518  0.00  0.00    +0.113 C 
ATOM     14  C   UNL     1      12.416   5.668  -2.100  0.00  0.00    +0.130 C 
ATOM     15  C   UNL     1       8.923   6.453  -2.127  0.00  0.00    +0.117 C 
ATOM     16  C   UNL     1      10.448   5.128  -0.653  0.00  0.00    +0.027 A 
ATOM     17  C   UNL     1       9.925   4.862   0.559  0.00  0.00    +0.024 A 
ATOM     18  C   UNL     1      12.642   5.618   0.340  0.00  0.00    +0.274 A 
ATOM     19  C   UNL     1      10.099   8.691  -1.782  0.00  0.00    +0.247 C 
ATOM     20  C   UNL     1      12.002   5.335   1.651  0.00  0.00    +0.112 A 
ATOM     21  C   UNL     1      10.724   4.969   1.749  0.00  0.00    +0.031 A 
ENDROOT
BRANCH  19  22
ATOM     22  C   UNL     1       9.187   8.996  -0.674  0.00  0.00    +0.037 A 
ATOM     23  C   UNL     1       9.420   8.453   0.590  0.00  0.00    +0.021 A 
ATOM     24  C   UNL     1       8.089   9.826  -0.884  0.00  0.00    +0.013 A 
ATOM     25  C   UNL     1       8.557   8.734   1.661  0.00  0.00    -0.017 A 
ATOM     26  C   UNL     1       7.222  10.116   0.169  0.00  0.00    +0.009 A 
ATOM     27  C   UNL     1       7.441   9.578   1.448  0.00  0.00    -0.018 A 
ATOM     29  C   UNL     1       8.777   8.197   2.940  0.00  0.00    +0.008 A 
ATOM     30  C   UNL     1       6.578   9.858   2.519  0.00  0.00    +0.008 A 
ATOM     33  C   UNL     1       7.908   8.486   3.993  0.00  0.00    +0.001 A 
ATOM     34  C   UNL     1       6.812   9.317   3.783  0.00  0.00    +0.001 A 
ENDBRANCH  19  22
BRANCH  20   9
ATOM      9  N   UNL     1      12.746   5.441   2.839  0.00  0.00    -0.211 N 
ATOM     39  H   UNL     1      12.600   4.644   3.474  0.00  0.00    +0.174 HD
BRANCH   9   1
ATOM      1  S   UNL     1      12.773   6.953   3.600  0.00  0.00    +0.073 S 
ATOM      4  O   UNL     1      14.138   7.301   3.946  0.00  0.00    -0.150 OA
ATOM      5  O   UNL     1      11.946   7.887   2.859  0.00  0.00    -0.150 OA
BRANCH   1  28
ATOM     28  C   UNL     1      11.924   6.578   5.105  0.00  0.00    +0.109 A 
ATOM     31  C   UNL     1      12.476   6.954   6.330  0.00  0.00    +0.032 A 
ATOM     32  C   UNL     1      10.704   5.901   5.068  0.00  0.00    +0.032 A 
ATOM     35  C   UNL     1      11.808   6.654   7.517  0.00  0.00    +0.047 A 
ATOM     36  C   UNL     1      10.036   5.603   6.255  0.00  0.00    +0.047 A 
ATOM     37  C   UNL     1      10.588   5.979   7.479  0.00  0.00    +0.120 A 
BRANCH  37   6
ATOM      6  O   UNL     1       9.937   5.687   8.638  0.00  0.00    -0.495 OA
ATOM     38  C   UNL     1       9.500   4.339   8.817  0.00  0.00    +0.277 C 
ENDBRANCH  37   6
ENDBRANCH   1  28
ENDBRANCH   9   1
ENDBRANCH  20   9
TORSDOF 5
ENDMDL
MODEL 3
REMARK VINA RESULT:      -7.2      2.300      3.991
REMARK  Name = 40475061
REMARK  6 active torsions:
REMARK  status: ('A' for Active; 'I' for Inactive)
REMARK    1  A    between atoms: S_1  and  N_9
REMARK    2  A    between atoms: S_1  and  C_28
REMARK    3  A    between atoms: O_6  and  C_37
REMARK    4  A    between atoms: O_6  and  C_38
REMARK    5  A    between atoms: N_9  and  C_20
REMARK    6  A    between atoms: C_19  and  C_22
REMARK                            x       y       z     vdW  Elec       q    Type
REMARK                         _______ _______ _______ _____ _____    ______ ____
ROOT
ATOM      2  O   UNL     1      -5.185 -13.670  17.470  0.00  0.00    -0.266 OA
ATOM      3  O   UNL     1      -1.243 -12.421  14.346  0.00  0.00    -0.270 OA
ATOM      7  N   UNL     1      -2.476 -14.108  13.292  0.00  0.00    -0.297 N 
ATOM      8  N   UNL     1      -4.879 -14.544  15.317  0.00  0.00    -0.310 N 
ATOM     10  C   UNL     1      -2.942 -16.103  14.706  0.00  0.00    +0.027 C 
ATOM     11  C   UNL     1      -4.559 -15.424  12.977  0.00  0.00    +0.054 C 
ATOM     12  C   UNL     1      -3.891 -16.630  13.635  0.00  0.00    +0.018 C 
ATOM     13  C   UNL     1      -1.877 -15.187  14.076  0.00  0.00    +0.113 C 
ATOM     14  C   UNL     1      -3.763 -15.379  15.781  0.00  0.00    +0.130 C 
ATOM     15  C   UNL     1      -3.485 -14.539  12.311  0.00  0.00    +0.117 C 
ATOM     16  C   UNL     1      -5.335 -14.607  13.993  0.00  0.00    +0.027 A 
ATOM     17  C   UNL     1      -6.429 -13.921  13.615  0.00  0.00    +0.024 A 
ATOM     18  C   UNL     1      -5.527 -13.755  16.290  0.00  0.00    +0.274 A 
ATOM     19  C   UNL     1      -2.085 -12.788  13.528  0.00  0.00    +0.247 C 
ATOM     20  C   UNL     1      -6.713 -13.002  15.807  0.00  0.00    +0.112 A 
ATOM     21  C   UNL     1      -7.142 -13.091  14.548  0.00  0.00    +0.031 A 
ENDROOT
BRANCH  19  22
ATOM     22  C   UNL     1      -2.740 -11.729  12.753  0.00  0.00    +0.037 A 
ATOM     23  C   UNL     1      -4.064 -11.383  13.028  0.00  0.00    +0.021 A 
ATOM     24  C   UNL     1      -2.043 -11.070  11.744  0.00  0.00    +0.013 A 
ATOM     25  C   UNL     1      -4.707 -10.372  12.295  0.00  0.00    -0.017 A 
ATOM     26  C   UNL     1      -2.667 -10.063  11.007  0.00  0.00    +0.009 A 
ATOM     27  C   UNL     1      -3.998  -9.703  11.270  0.00  0.00    -0.018 A 
ATOM     29  C   UNL     1      -6.039 -10.011  12.558  0.00  0.00    +0.008 A 
ATOM     30  C   UNL     1      -4.643  -8.692  10.537  0.00  0.00    +0.008 A 
ATOM     33  C   UNL     1      -6.663  -9.005  11.819  0.00  0.00    +0.001 A 
ATOM     34  C   UNL     1      -5.965  -8.346  10.812  0.00  0.00    +0.001 A 
ENDBRANCH  19  22
BRANCH  20   9
ATOM      9  N   UNL     1      -7.429 -12.171  16.685  0.00  0.00    -0.211 N 
ATOM     39  H   UNL     1      -8.445 -12.190  16.515  0.00  0.00    +0.174 HD
BRANCH   9   1
ATOM      1  S   UNL     1      -6.793 -10.630  16.980  0.00  0.00    +0.073 S 
ATOM      4  O   UNL     1      -6.639 -10.431  18.408  0.00  0.00    -0.150 OA
ATOM      5  O   UNL     1      -5.680 -10.382  16.084  0.00  0.00    -0.150 OA
BRANCH   1  28
ATOM     28  C   UNL     1      -8.137  -9.612  16.445  0.00  0.00    +0.109 A 
ATOM     31  C   UNL     1      -8.757  -8.747  17.346  0.00  0.00    +0.032 A 
ATOM     32  C   UNL     1      -8.578  -9.679  15.123  0.00  0.00    +0.032 A 
ATOM     35  C   UNL     1      -9.820  -7.946  16.924  0.00  0.00    +0.047 A 
ATOM     36  C   UNL     1      -9.640  -8.879  14.702  0.00  0.00    +0.047 A 
ATOM     37  C   UNL     1     -10.261  -8.013  15.603  0.00  0.00    +0.120 A 
BRANCH  37   6
ATOM      6  O   UNL     1     -11.297  -7.233  15.192  0.00  0.00    -0.495 OA
ATOM     38  C   UNL     1     -11.480  -5.987  15.865  0.00  0.00    +0.277 C 
ENDBRANCH  37   6
ENDBRANCH   1  28
ENDBRANCH   9   1
ENDBRANCH  20   9
TORSDOF 5
ENDMDL
MODEL 4
REMARK VINA RESULT:      -7.1      3.655      7.091
REMARK  Name = 40475061
REMARK  6 active torsions:
REMARK  status: ('A' for Active; 'I' for Inactive)
REMARK    1  A    between atoms: S_1  and  N_9
REMARK    2  A    between atoms: S_1  and  C_28
REMARK    3  A    between atoms: O_6  and  C_37
REMARK    4  A    between atoms: O_6  and  C_38
REMARK    5  A    between atoms: N_9  and  C_20
REMARK    6  A    between atoms: C_19  and  C_22
REMARK                            x       y       z     vdW  Elec       q    Type
REMARK                         _______ _______ _______ _____ _____    ______ ____
ROOT
ATOM      2  O   UNL     1      -4.529 -13.969  16.750  0.00  0.00    -0.266 OA
ATOM      3  O   UNL     1      -9.631 -13.160  17.166  0.00  0.00    -0.270 OA
ATOM      7  N   UNL     1      -8.542 -11.274  18.021  0.00  0.00    -0.297 N 
ATOM      8  N   UNL     1      -5.492 -11.964  17.488  0.00  0.00    -0.310 N 
ATOM     10  C   UNL     1      -6.768 -11.760  19.698  0.00  0.00    +0.027 C 
ATOM     11  C   UNL     1      -6.553  -9.799  18.223  0.00  0.00    +0.054 C 
ATOM     12  C   UNL     1      -6.334 -10.298  19.651  0.00  0.00    +0.018 C 
ATOM     13  C   UNL     1      -8.253 -11.892  19.315  0.00  0.00    +0.113 C 
ATOM     14  C   UNL     1      -5.858 -12.576  18.772  0.00  0.00    +0.130 C 
ATOM     15  C   UNL     1      -8.051  -9.894  17.868  0.00  0.00    +0.117 C 
ATOM     16  C   UNL     1      -5.741 -10.609  17.230  0.00  0.00    +0.027 A 
ATOM     17  C   UNL     1      -5.297 -10.038  16.095  0.00  0.00    +0.024 A 
ATOM     18  C   UNL     1      -4.792 -12.779  16.574  0.00  0.00    +0.274 A 
ATOM     19  C   UNL     1      -9.219 -12.008  17.044  0.00  0.00    +0.247 C 
ATOM     20  C   UNL     1      -4.350 -12.098  15.331  0.00  0.00    +0.112 A 
ATOM     21  C   UNL     1      -4.579 -10.804  15.112  0.00  0.00    +0.031 A 
ENDROOT
BRANCH  19  22
ATOM     22  C   UNL     1      -9.451 -11.370  15.744  0.00  0.00    +0.037 A 
ATOM     23  C   UNL     1      -8.449 -11.384  14.773  0.00  0.00    +0.021 A 
ATOM     24  C   UNL     1     -10.669 -10.751  15.479  0.00  0.00    +0.013 A 
ATOM     25  C   UNL     1      -8.654 -10.778  13.523  0.00  0.00    -0.017 A 
ATOM     26  C   UNL     1     -10.890 -10.144  14.243  0.00  0.00    +0.009 A 
ATOM     27  C   UNL     1      -9.892 -10.148  13.254  0.00  0.00    -0.018 A 
ATOM     29  C   UNL     1      -7.657 -10.783  12.535  0.00  0.00    +0.008 A 
ATOM     30  C   UNL     1     -10.096  -9.541  12.004  0.00  0.00    +0.008 A 
ATOM     33  C   UNL     1      -7.877 -10.174  11.298  0.00  0.00    +0.001 A 
ATOM     34  C   UNL     1      -9.095  -9.556  11.033  0.00  0.00    +0.001 A 
ENDBRANCH  19  22
BRANCH  20   9
ATOM      9  N   UNL     1      -3.656 -12.816  14.340  0.00  0.00    -0.211 N 
ATOM     39  H   UNL     1      -3.667 -13.833  14.501  0.00  0.00    +0.174 HD
BRANCH   9   1
ATOM      1  S   UNL     1      -2.159 -12.197  13.846  0.00  0.00    +0.073 S 
ATOM      4  O   UNL     1      -1.660 -11.272  14.845  0.00  0.00    -0.150 OA
ATOM      5  O   UNL     1      -1.319 -13.276  13.364  0.00  0.00    -0.150 OA
BRANCH   1  28
ATOM     28  C   UNL     1      -2.648 -11.242  12.439  0.00  0.00    +0.109 A 
ATOM     31  C   UNL     1      -3.842 -11.534  11.780  0.00  0.00    +0.032 A 
ATOM     32  C   UNL     1      -1.836 -10.201  11.986  0.00  0.00    +0.032 A 
ATOM     35  C   UNL     1      -4.226 -10.783  10.667  0.00  0.00    +0.047 A 
ATOM     36  C   UNL     1      -2.220  -9.451  10.875  0.00  0.00    +0.047 A 
ATOM     37  C   UNL     1      -3.414  -9.742  10.216  0.00  0.00    +0.120 A 
BRANCH  37   6
ATOM      6  O   UNL     1      -3.789  -9.011   9.131  0.00  0.00    -0.495 OA
ATOM     38  C   UNL     1      -4.829  -9.546   8.313  0.00  0.00    +0.277 C 
ENDBRANCH  37   6
ENDBRANCH   1  28
ENDBRANCH   9   1
ENDBRANCH  20   9
TORSDOF 5
ENDMDL
MODEL 5
REMARK VINA RESULT:      -7.1      1.414      1.853
REMARK  Name = 40475061
REMARK  6 active torsions:
REMARK  status: ('A' for Active; 'I' for Inactive)
REMARK    1  A    between atoms: S_1  and  N_9
REMARK    2  A    between atoms: S_1  and  C_28
REMARK    3  A    between atoms: O_6  and  C_37
REMARK    4  A    between atoms: O_6  and  C_38
REMARK    5  A    between atoms: N_9  and  C_20
REMARK    6  A    between atoms: C_19  and  C_22
REMARK                            x       y       z     vdW  Elec       q    Type
REMARK                         _______ _______ _______ _____ _____    ______ ____
ROOT
ATOM      2  O   UNL     1      -9.336  -8.109  17.737  0.00  0.00    -0.266 OA
ATOM      3  O   UNL     1      -4.608 -10.225  17.629  0.00  0.00    -0.270 OA
ATOM      7  N   UNL     1      -6.153 -11.918  17.156  0.00  0.00    -0.297 N 
ATOM      8  N   UNL     1      -8.897 -10.326  17.120  0.00  0.00    -0.310 N 
ATOM     10  C   UNL     1      -8.042 -12.090  18.768  0.00  0.00    +0.027 C 
ATOM     11  C   UNL     1      -8.391 -12.690  16.405  0.00  0.00    +0.054 C 
ATOM     12  C   UNL     1      -8.731 -13.086  17.841  0.00  0.00    +0.018 C 
ATOM     13  C   UNL     1      -6.517 -12.126  18.557  0.00  0.00    +0.113 C 
ATOM     14  C   UNL     1      -8.626 -10.694  18.516  0.00  0.00    +0.130 C 
ATOM     15  C   UNL     1      -6.865 -12.775  16.195  0.00  0.00    +0.117 C 
ATOM     16  C   UNL     1      -8.871 -11.284  16.097  0.00  0.00    +0.027 A 
ATOM     17  C   UNL     1      -9.233 -10.953  14.844  0.00  0.00    +0.024 A 
ATOM     18  C   UNL     1      -9.279  -8.990  16.880  0.00  0.00    +0.274 A 
ATOM     19  C   UNL     1      -5.205 -10.944  16.830  0.00  0.00    +0.247 C 
ATOM     20  C   UNL     1      -9.643  -8.681  15.473  0.00  0.00    +0.112 A 
ATOM     21  C   UNL     1      -9.631  -9.610  14.518  0.00  0.00    +0.031 A 
ENDROOT
BRANCH  19  22
ATOM     22  C   UNL     1      -4.899 -10.733  15.411  0.00  0.00    +0.037 A 
ATOM     23  C   UNL     1      -5.803 -10.051  14.597  0.00  0.00    +0.021 A 
ATOM     24  C   UNL     1      -3.707 -11.214  14.877  0.00  0.00    +0.013 A 
ATOM     25  C   UNL     1      -5.526  -9.840  13.237  0.00  0.00    -0.017 A 
ATOM     26  C   UNL     1      -3.415 -11.014  13.528  0.00  0.00    +0.009 A 
ATOM     27  C   UNL     1      -4.314 -10.329  12.694  0.00  0.00    -0.018 A 
ATOM     29  C   UNL     1      -6.425  -9.156  12.404  0.00  0.00    +0.008 A 
ATOM     30  C   UNL     1      -4.038 -10.120  11.333  0.00  0.00    +0.008 A 
ATOM     33  C   UNL     1      -6.134  -8.956  11.053  0.00  0.00    +0.001 A 
ATOM     34  C   UNL     1      -4.942  -9.437  10.520  0.00  0.00    +0.001 A 
ENDBRANCH  19  22
BRANCH  20   9
ATOM      9  N   UNL     1     -10.026  -7.377  15.113  0.00  0.00    -0.211 N 
ATOM     39  H   UNL     1      -9.322  -6.669  15.365  0.00  0.00    +0.174 HD
BRANCH   9   1
ATOM      1  S   UNL     1     -11.626  -6.926  15.436  0.00  0.00    +0.073 S 
ATOM      4  O   UNL     1     -12.428  -8.111  15.672  0.00  0.00    -0.150 OA
ATOM      5  O   UNL     1     -11.643  -5.831  16.387  0.00  0.00    -0.150 OA
BRANCH   1  28
ATOM     28  C   UNL     1     -12.105  -6.267  13.866  0.00  0.00    +0.109 A 
ATOM     31  C   UNL     1     -12.126  -4.887  13.666  0.00  0.00    +0.032 A 
ATOM     32  C   UNL     1     -12.465  -7.129  12.829  0.00  0.00    +0.032 A 
ATOM     35  C   UNL     1     -12.507  -4.367  12.428  0.00  0.00    +0.047 A 
ATOM     36  C   UNL     1     -12.846  -6.609  11.592  0.00  0.00    +0.047 A 
ATOM     37  C   UNL     1     -12.867  -5.229  11.392  0.00  0.00    +0.120 A 
BRANCH  37   6
ATOM      6  O   UNL     1     -13.239  -4.722  10.185  0.00  0.00    -0.495 OA
ATOM     38  C   UNL     1     -12.290  -3.902   9.504  0.00  0.00    +0.277 C 
ENDBRANCH  37   6
ENDBRANCH   1  28
ENDBRANCH   9   1
ENDBRANCH  20   9
TORSDOF 5
ENDMDL
MODEL 6
REMARK VINA RESULT:      -7.1     18.379     20.664
REMARK  Name = 40475061
REMARK  6 active torsions:
REMARK  status: ('A' for Active; 'I' for Inactive)
REMARK    1  A    between atoms: S_1  and  N_9
REMARK    2  A    between atoms: S_1  and  C_28
REMARK    3  A    between atoms: O_6  and  C_37
REMARK    4  A    between atoms: O_6  and  C_38
REMARK    5  A    between atoms: N_9  and  C_20
REMARK    6  A    between atoms: C_19  and  C_22
REMARK                            x       y       z     vdW  Elec       q    Type
REMARK                         _______ _______ _______ _____ _____    ______ ____
ROOT
ATOM      2  O   UNL     1     -12.016  10.935  20.729  0.00  0.00    -0.266 OA
ATOM      3  O   UNL     1     -15.091  11.379  16.582  0.00  0.00    -0.270 OA
ATOM      7  N   UNL     1     -13.222  10.122  15.948  0.00  0.00    -0.297 N 
ATOM      8  N   UNL     1     -11.628   9.869  18.679  0.00  0.00    -0.310 N 
ATOM     10  C   UNL     1     -11.028  11.138  16.538  0.00  0.00    +0.027 C 
ATOM     11  C   UNL     1     -11.266   8.687  16.482  0.00  0.00    +0.054 C 
ATOM     12  C   UNL     1     -10.329   9.843  16.135  0.00  0.00    +0.018 C 
ATOM     13  C   UNL     1     -12.358  11.289  15.778  0.00  0.00    +0.113 C 
ATOM     14  C   UNL     1     -11.228  11.138  18.059  0.00  0.00    +0.130 C 
ATOM     15  C   UNL     1     -12.576   8.826  15.680  0.00  0.00    +0.117 C 
ATOM     16  C   UNL     1     -11.577   8.663  17.967  0.00  0.00    +0.027 A 
ATOM     17  C   UNL     1     -11.837   7.494  18.584  0.00  0.00    +0.024 A 
ATOM     18  C   UNL     1     -11.969   9.911  20.047  0.00  0.00    +0.274 A 
ATOM     19  C   UNL     1     -14.546  10.300  16.357  0.00  0.00    +0.247 C 
ATOM     20  C   UNL     1     -12.269   8.594  20.665  0.00  0.00    +0.112 A 
ATOM     21  C   UNL     1     -12.195   7.456  19.975  0.00  0.00    +0.031 A 
ENDROOT
BRANCH  19  22
ATOM     22  C   UNL     1     -15.369   9.103  16.560  0.00  0.00    +0.037 A 
ATOM     23  C   UNL     1     -15.368   8.459  17.797  0.00  0.00    +0.021 A 
ATOM     24  C   UNL     1     -16.149   8.608  15.518  0.00  0.00    +0.013 A 
ATOM     25  C   UNL     1     -16.149   7.311  18.009  0.00  0.00    -0.017 A 
ATOM     26  C   UNL     1     -16.931   7.470  15.710  0.00  0.00    +0.009 A 
ATOM     27  C   UNL     1     -16.942   6.809  16.949  0.00  0.00    -0.018 A 
ATOM     29  C   UNL     1     -16.160   6.651  19.248  0.00  0.00    +0.008 A 
ATOM     30  C   UNL     1     -17.722   5.660  17.161  0.00  0.00    +0.008 A 
ATOM     33  C   UNL     1     -16.942   5.510  19.440  0.00  0.00    +0.001 A 
ATOM     34  C   UNL     1     -17.722   5.017  18.398  0.00  0.00    +0.001 A 
ENDBRANCH  19  22
BRANCH  20   9
ATOM      9  N   UNL     1     -12.634   8.516  22.020  0.00  0.00    -0.211 N 
ATOM     39  H   UNL     1     -12.194   7.723  22.508  0.00  0.00    +0.174 HD
BRANCH   9   1
ATOM      1  S   UNL     1     -14.268   8.753  22.393  0.00  0.00    +0.073 S 
ATOM      4  O   UNL     1     -14.385   9.413  23.679  0.00  0.00    -0.150 OA
ATOM      5  O   UNL     1     -14.962   9.284  21.234  0.00  0.00    -0.150 OA
BRANCH   1  28
ATOM     28  C   UNL     1     -14.803   7.080  22.605  0.00  0.00    +0.109 A 
ATOM     31  C   UNL     1     -16.097   6.813  23.050  0.00  0.00    +0.032 A 
ATOM     32  C   UNL     1     -13.927   6.029  22.332  0.00  0.00    +0.032 A 
ATOM     35  C   UNL     1     -16.517   5.493  23.220  0.00  0.00    +0.047 A 
ATOM     36  C   UNL     1     -14.347   4.710  22.502  0.00  0.00    +0.047 A 
ATOM     37  C   UNL     1     -15.642   4.442  22.947  0.00  0.00    +0.120 A 
BRANCH  37   6
ATOM      6  O   UNL     1     -16.052   3.155  23.114  0.00  0.00    -0.495 OA
ATOM     38  C   UNL     1     -16.422   2.757  24.433  0.00  0.00    +0.277 C 
ENDBRANCH  37   6
ENDBRANCH   1  28
ENDBRANCH   9   1
ENDBRANCH  20   9
TORSDOF 5
ENDMDL
MODEL 7
REMARK VINA RESULT:      -7.0     18.959     22.257
REMARK  Name = 40475061
REMARK  6 active torsions:
REMARK  status: ('A' for Active; 'I' for Inactive)
REMARK    1  A    between atoms: S_1  and  N_9
REMARK    2  A    between atoms: S_1  and  C_28
REMARK    3  A    between atoms: O_6  and  C_37
REMARK    4  A    between atoms: O_6  and  C_38
REMARK    5  A    between atoms: N_9  and  C_20
REMARK    6  A    between atoms: C_19  and  C_22
REMARK                            x       y       z     vdW  Elec       q    Type
REMARK                         _______ _______ _______ _____ _____    ______ ____
ROOT
ATOM      2  O   UNL     1     -14.792   9.211  24.979  0.00  0.00    -0.266 OA
ATOM      3  O   UNL     1     -12.278   6.262  21.539  0.00  0.00    -0.270 OA
ATOM      7  N   UNL     1     -14.356   6.815  20.615  0.00  0.00    -0.297 N 
ATOM      8  N   UNL     1     -15.582   8.731  22.826  0.00  0.00    -0.310 N 
ATOM     10  C   UNL     1     -16.308   6.386  22.098  0.00  0.00    +0.027 C 
ATOM     11  C   UNL     1     -16.382   8.246  20.486  0.00  0.00    +0.054 C 
ATOM     12  C   UNL     1     -17.208   7.124  21.113  0.00  0.00    +0.018 C 
ATOM     13  C   UNL     1     -15.085   5.798  21.371  0.00  0.00    +0.113 C 
ATOM     14  C   UNL     1     -15.904   7.352  23.218  0.00  0.00    +0.130 C 
ATOM     15  C   UNL     1     -15.186   7.641  19.722  0.00  0.00    +0.117 C 
ATOM     16  C   UNL     1     -15.877   9.210  21.543  0.00  0.00    +0.027 A 
ATOM     17  C   UNL     1     -15.681  10.506  21.237  0.00  0.00    +0.024 A 
ATOM     18  C   UNL     1     -15.056   9.569  23.831  0.00  0.00    +0.274 A 
ATOM     19  C   UNL     1     -12.977   6.948  20.794  0.00  0.00    +0.247 C 
ATOM     20  C   UNL     1     -14.839  10.981  23.426  0.00  0.00    +0.112 A 
ATOM     21  C   UNL     1     -15.144  11.422  22.206  0.00  0.00    +0.031 A 
ENDROOT
BRANCH  19  22
ATOM     22  C   UNL     1     -12.287   8.009  20.053  0.00  0.00    +0.037 A 
ATOM     23  C   UNL     1     -11.936   7.810  18.717  0.00  0.00    +0.021 A 
ATOM     24  C   UNL     1     -11.981   9.213  20.681  0.00  0.00    +0.013 A 
ATOM     25  C   UNL     1     -11.275   8.815  17.992  0.00  0.00    -0.017 A 
ATOM     26  C   UNL     1     -11.325  10.222  19.976  0.00  0.00    +0.009 A 
ATOM     27  C   UNL     1     -10.965  10.039  18.632  0.00  0.00    -0.018 A 
ATOM     29  C   UNL     1     -10.915   8.632  16.648  0.00  0.00    +0.008 A 
ATOM     30  C   UNL     1     -10.302  11.043  17.907  0.00  0.00    +0.008 A 
ATOM     33  C   UNL     1     -10.257   9.641  15.943  0.00  0.00    +0.001 A 
ATOM     34  C   UNL     1      -9.953  10.844  16.571  0.00  0.00    +0.001 A 
ENDBRANCH  19  22
BRANCH  20   9
ATOM      9  N   UNL     1     -14.305  11.905  24.342  0.00  0.00    -0.211 N 
ATOM     39  H   UNL     1     -14.824  12.795  24.361  0.00  0.00    +0.174 HD
BRANCH   9   1
ATOM      1  S   UNL     1     -12.620  12.070  24.376  0.00  0.00    +0.073 S 
ATOM      4  O   UNL     1     -12.026  11.215  23.367  0.00  0.00    -0.150 OA
ATOM      5  O   UNL     1     -12.268  13.476  24.442  0.00  0.00    -0.150 OA
BRANCH   1  28
ATOM     28  C   UNL     1     -12.254  11.361  25.955  0.00  0.00    +0.109 A 
ATOM     31  C   UNL     1     -13.089  11.613  27.043  0.00  0.00    +0.032 A 
ATOM     32  C   UNL     1     -11.126  10.554  26.111  0.00  0.00    +0.032 A 
ATOM     35  C   UNL     1     -12.797  11.056  28.289  0.00  0.00    +0.047 A 
ATOM     36  C   UNL     1     -10.835   9.997  27.357  0.00  0.00    +0.047 A 
ATOM     37  C   UNL     1     -11.670  10.249  28.445  0.00  0.00    +0.120 A 
BRANCH  37   6
ATOM      6  O   UNL     1     -11.386   9.707  29.661  0.00  0.00    -0.495 OA
ATOM     38  C   UNL     1     -12.360   9.872  30.691  0.00  0.00    +0.277 C 
ENDBRANCH  37   6
ENDBRANCH   1  28
ENDBRANCH   9   1
ENDBRANCH  20   9
TORSDOF 5
ENDMDL
MODEL 8
REMARK VINA RESULT:      -7.0      2.279      3.504
REMARK  Name = 40475061
REMARK  6 active torsions:
REMARK  status: ('A' for Active; 'I' for Inactive)
REMARK    1  A    between atoms: S_1  and  N_9
REMARK    2  A    between atoms: S_1  and  C_28
REMARK    3  A    between atoms: O_6  and  C_37
REMARK    4  A    between atoms: O_6  and  C_38
REMARK    5  A    between atoms: N_9  and  C_20
REMARK    6  A    between atoms: C_19  and  C_22
REMARK                            x       y       z     vdW  Elec       q    Type
REMARK                         _______ _______ _______ _____ _____    ______ ____
ROOT
ATOM      2  O   UNL     1      -7.856  -9.197  17.425  0.00  0.00    -0.266 OA
ATOM      3  O   UNL     1      -2.999 -10.546  16.225  0.00  0.00    -0.270 OA
ATOM      7  N   UNL     1      -4.374 -12.389  15.791  0.00  0.00    -0.297 N 
ATOM      8  N   UNL     1      -7.258 -11.238  16.442  0.00  0.00    -0.310 N 
ATOM     10  C   UNL     1      -5.889 -13.026  17.660  0.00  0.00    +0.027 C 
ATOM     11  C   UNL     1      -6.595 -13.402  15.331  0.00  0.00    +0.054 C 
ATOM     12  C   UNL     1      -6.606 -14.004  16.735  0.00  0.00    +0.018 C 
ATOM     13  C   UNL     1      -4.440 -12.807  17.191  0.00  0.00    +0.113 C 
ATOM     14  C   UNL     1      -6.686 -11.716  17.707  0.00  0.00    +0.130 C 
ATOM     15  C   UNL     1      -5.138 -13.230  14.855  0.00  0.00    +0.117 C 
ATOM     16  C   UNL     1      -7.301 -12.059  15.306  0.00  0.00    +0.027 A 
ATOM     17  C   UNL     1      -7.932 -11.647  14.190  0.00  0.00    +0.024 A 
ATOM     18  C   UNL     1      -7.847  -9.957  16.456  0.00  0.00    +0.274 A 
ATOM     19  C   UNL     1      -3.638 -11.252  15.447  0.00  0.00    +0.247 C 
ATOM     20  C   UNL     1      -8.506  -9.549  15.189  0.00  0.00    +0.112 A 
ATOM     21  C   UNL     1      -8.553 -10.352  14.126  0.00  0.00    +0.031 A 
ENDROOT
BRANCH  19  22
ATOM     22  C   UNL     1      -3.633 -10.838  14.040  0.00  0.00    +0.037 A 
ATOM     23  C   UNL     1      -4.743 -10.188  13.501  0.00  0.00    +0.021 A 
ATOM     24  C   UNL     1      -2.521 -11.095  13.242  0.00  0.00    +0.013 A 
ATOM     25  C   UNL     1      -4.755  -9.785  12.156  0.00  0.00    -0.017 A 
ATOM     26  C   UNL     1      -2.516 -10.702  11.904  0.00  0.00    +0.009 A 
ATOM     27  C   UNL     1      -3.625 -10.046  11.346  0.00  0.00    -0.018 A 
ATOM     29  C   UNL     1      -5.864  -9.129  11.598  0.00  0.00    +0.008 A 
ATOM     30  C   UNL     1      -3.638  -9.644  10.000  0.00  0.00    +0.008 A 
ATOM     33  C   UNL     1      -5.859  -8.737  10.258  0.00  0.00    +0.001 A 
ATOM     34  C   UNL     1      -4.747  -8.993   9.462  0.00  0.00    +0.001 A 
ENDBRANCH  19  22
BRANCH  20   9
ATOM      9  N   UNL     1      -9.114  -8.286  15.082  0.00  0.00    -0.211 N 
ATOM     39  H   UNL     1      -8.738  -7.603  15.755  0.00  0.00    +0.174 HD
BRANCH   9   1
ATOM      1  S   UNL     1     -10.798  -8.254  14.911  0.00  0.00    +0.073 S 
ATOM      4  O   UNL     1     -11.289  -6.914  15.170  0.00  0.00    -0.150 OA
ATOM      5  O   UNL     1     -11.179  -8.950  13.697  0.00  0.00    -0.150 OA
BRANCH   1  28
ATOM     28  C   UNL     1     -11.286  -9.270  16.275  0.00  0.00    +0.109 A 
ATOM     31  C   UNL     1     -11.712 -10.579  16.052  0.00  0.00    +0.032 A 
ATOM     32  C   UNL     1     -11.248  -8.759  17.573  0.00  0.00    +0.032 A 
ATOM     35  C   UNL     1     -12.100 -11.379  17.128  0.00  0.00    +0.047 A 
ATOM     36  C   UNL     1     -11.636  -9.559  18.648  0.00  0.00    +0.047 A 
ATOM     37  C   UNL     1     -12.062 -10.868  18.425  0.00  0.00    +0.120 A 
BRANCH  37   6
ATOM      6  O   UNL     1     -12.440 -11.649  19.474  0.00  0.00    -0.495 OA
ATOM     38  C   UNL     1     -11.408 -12.119  20.340  0.00  0.00    +0.277 C 
ENDBRANCH  37   6
ENDBRANCH   1  28
ENDBRANCH   9   1
ENDBRANCH  20   9
TORSDOF 5
ENDMDL
MODEL 9
REMARK VINA RESULT:      -7.0      2.656      7.567
REMARK  Name = 40475061
REMARK  6 active torsions:
REMARK  status: ('A' for Active; 'I' for Inactive)
REMARK    1  A    between atoms: S_1  and  N_9
REMARK    2  A    between atoms: S_1  and  C_28
REMARK    3  A    between atoms: O_6  and  C_37
REMARK    4  A    between atoms: O_6  and  C_38
REMARK    5  A    between atoms: N_9  and  C_20
REMARK    6  A    between atoms: C_19  and  C_22
REMARK                            x       y       z     vdW  Elec       q    Type
REMARK                         _______ _______ _______ _____ _____    ______ ____
ROOT
ATOM      2  O   UNL     1     -12.077 -10.593  18.377  0.00  0.00    -0.266 OA
ATOM      3  O   UNL     1     -12.818 -10.792  13.252  0.00  0.00    -0.270 OA
ATOM      7  N   UNL     1     -12.743  -8.536  13.870  0.00  0.00    -0.297 N 
ATOM      8  N   UNL     1     -12.119  -8.715  16.976  0.00  0.00    -0.310 N 
ATOM     10  C   UNL     1     -14.233  -7.922  15.768  0.00  0.00    +0.027 C 
ATOM     11  C   UNL     1     -12.111  -6.717  15.439  0.00  0.00    +0.054 C 
ATOM     12  C   UNL     1     -13.579  -6.545  15.825  0.00  0.00    +0.018 C 
ATOM     13  C   UNL     1     -14.125  -8.509  14.349  0.00  0.00    +0.113 C 
ATOM     14  C   UNL     1     -13.575  -8.826  16.818  0.00  0.00    +0.130 C 
ATOM     15  C   UNL     1     -12.016  -7.263  13.999  0.00  0.00    +0.117 C 
ATOM     16  C   UNL     1     -11.402  -7.663  16.390  0.00  0.00    +0.027 A 
ATOM     17  C   UNL     1     -10.087  -7.512  16.639  0.00  0.00    +0.024 A 
ATOM     18  C   UNL     1     -11.500  -9.658  17.822  0.00  0.00    +0.274 A 
ATOM     19  C   UNL     1     -12.215  -9.725  13.361  0.00  0.00    +0.247 C 
ATOM     20  C   UNL     1     -10.045  -9.453  18.038  0.00  0.00    +0.112 A 
ATOM     21  C   UNL     1      -9.384  -8.435  17.487  0.00  0.00    +0.031 A 
ENDROOT
BRANCH  19  22
ATOM     22  C   UNL     1     -10.813  -9.725  12.933  0.00  0.00    +0.037 A 
ATOM     23  C   UNL     1      -9.796  -9.876  13.877  0.00  0.00    +0.021 A 
ATOM     24  C   UNL     1     -10.495  -9.574  11.586  0.00  0.00    +0.013 A 
ATOM     25  C   UNL     1      -8.448  -9.877  13.484  0.00  0.00    -0.017 A 
ATOM     26  C   UNL     1      -9.162  -9.573  11.178  0.00  0.00    +0.009 A 
ATOM     27  C   UNL     1      -8.126  -9.724  12.114  0.00  0.00    -0.018 A 
ATOM     29  C   UNL     1      -7.413 -10.028  14.420  0.00  0.00    +0.008 A 
ATOM     30  C   UNL     1      -6.777  -9.724  11.723  0.00  0.00    +0.008 A 
ATOM     33  C   UNL     1      -6.078 -10.026  14.013  0.00  0.00    +0.001 A 
ATOM     34  C   UNL     1      -5.761  -9.876  12.666  0.00  0.00    +0.001 A 
ENDBRANCH  19  22
BRANCH  20   9
ATOM      9  N   UNL     1      -9.319 -10.341  18.852  0.00  0.00    -0.211 N 
ATOM     39  H   UNL     1      -8.543  -9.882  19.350  0.00  0.00    +0.174 HD
BRANCH   9   1
ATOM      1  S   UNL     1      -8.938 -11.854  18.194  0.00  0.00    +0.073 S 
ATOM      4  O   UNL     1      -9.068 -12.876  19.215  0.00  0.00    -0.150 OA
ATOM      5  O   UNL     1      -9.602 -12.011  16.914  0.00  0.00    -0.150 OA
BRANCH   1  28
ATOM     28  C   UNL     1      -7.212 -11.645  17.870  0.00  0.00    +0.109 A 
ATOM     31  C   UNL     1      -6.551 -12.528  17.015  0.00  0.00    +0.032 A 
ATOM     32  C   UNL     1      -6.510 -10.601  18.473  0.00  0.00    +0.032 A 
ATOM     35  C   UNL     1      -5.189 -12.365  16.763  0.00  0.00    +0.047 A 
ATOM     36  C   UNL     1      -5.148 -10.439  18.220  0.00  0.00    +0.047 A 
ATOM     37  C   UNL     1      -4.488 -11.321  17.366  0.00  0.00    +0.120 A 
BRANCH  37   6
ATOM      6  O   UNL     1      -3.159 -11.163  17.119  0.00  0.00    -0.495 OA
ATOM     38  C   UNL     1      -2.775 -10.892  15.771  0.00  0.00    +0.277 C 
ENDBRANCH  37   6
ENDBRANCH   1  28
ENDBRANCH   9   1
ENDBRANCH  20   9
TORSDOF 5
ENDMDL
MODEL 10
REMARK VINA RESULT:      -6.9      8.107     12.102
REMARK  Name = 40475061
REMARK  6 active torsions:
REMARK  status: ('A' for Active; 'I' for Inactive)
REMARK    1  A    between atoms: S_1  and  N_9
REMARK    2  A    between atoms: S_1  and  C_28
REMARK    3  A    between atoms: O_6  and  C_37
REMARK    4  A    between atoms: O_6  and  C_38
REMARK    5  A    between atoms: N_9  and  C_20
REMARK    6  A    between atoms: C_19  and  C_22
REMARK                            x       y       z     vdW  Elec       q    Type
REMARK                         _______ _______ _______ _____ _____    ______ ____
ROOT
ATOM      2  O   UNL     1     -12.535  -7.681   9.159  0.00  0.00    -0.266 OA
ATOM      3  O   UNL     1     -16.572  -4.843  10.742  0.00  0.00    -0.270 OA
ATOM      7  N   UNL     1     -14.707  -4.183  11.993  0.00  0.00    -0.297 N 
ATOM      8  N   UNL     1     -12.391  -5.933  10.713  0.00  0.00    -0.310 N 
ATOM     10  C   UNL     1     -13.440  -6.049  13.045  0.00  0.00    +0.027 C 
ATOM     11  C   UNL     1     -12.253  -4.011  12.338  0.00  0.00    +0.054 C 
ATOM     12  C   UNL     1     -12.338  -5.070  13.435  0.00  0.00    +0.018 C 
ATOM     13  C   UNL     1     -14.787  -5.317  12.914  0.00  0.00    +0.113 C 
ATOM     14  C   UNL     1     -13.037  -6.755  11.744  0.00  0.00    +0.130 C 
ATOM     15  C   UNL     1     -13.594  -3.254  12.247  0.00  0.00    +0.117 C 
ATOM     16  C   UNL     1     -11.931  -4.639  10.995  0.00  0.00    +0.027 A 
ATOM     17  C   UNL     1     -11.240  -3.944  10.072  0.00  0.00    +0.024 A 
ATOM     18  C   UNL     1     -12.170  -6.545   9.461  0.00  0.00    +0.274 A 
ATOM     19  C   UNL     1     -15.641  -4.069  10.959  0.00  0.00    +0.247 C 
ATOM     20  C   UNL     1     -11.425  -5.719   8.477  0.00  0.00    +0.112 A 
ATOM     21  C   UNL     1     -10.978  -4.498   8.771  0.00  0.00    +0.031 A 
ENDROOT
BRANCH  19  22
ATOM     22  C   UNL     1     -15.501  -2.944  10.029  0.00  0.00    +0.037 A 
ATOM     23  C   UNL     1     -16.078  -1.711  10.335  0.00  0.00    +0.021 A 
ATOM     24  C   UNL     1     -14.794  -3.106   8.841  0.00  0.00    +0.013 A 
ATOM     25  C   UNL     1     -15.955  -0.624   9.456  0.00  0.00    -0.017 A 
ATOM     26  C   UNL     1     -14.662  -2.036   7.956  0.00  0.00    +0.009 A 
ATOM     27  C   UNL     1     -15.236  -0.789   8.248  0.00  0.00    -0.018 A 
ATOM     29  C   UNL     1     -16.529   0.624   9.748  0.00  0.00    +0.008 A 
ATOM     30  C   UNL     1     -15.114   0.299   7.368  0.00  0.00    +0.008 A 
ATOM     33  C   UNL     1     -16.398   1.694   8.862  0.00  0.00    +0.001 A 
ATOM     34  C   UNL     1     -15.690   1.531   7.675  0.00  0.00    +0.001 A 
ENDBRANCH  19  22
BRANCH  20   9
ATOM      9  N   UNL     1     -11.159  -6.221   7.190  0.00  0.00    -0.211 N 
ATOM     39  H   UNL     1     -11.995  -6.611   6.733  0.00  0.00    +0.174 HD
BRANCH   9   1
ATOM      1  S   UNL     1      -9.754  -7.145   6.998  0.00  0.00    +0.073 S 
ATOM      4  O   UNL     1      -8.600  -6.370   7.410  0.00  0.00    -0.150 OA
ATOM      5  O   UNL     1      -9.968  -8.477   7.533  0.00  0.00    -0.150 OA
BRANCH   1  28
ATOM     28  C   UNL     1      -9.694  -7.289   5.236  0.00  0.00    +0.109 A 
ATOM     31  C   UNL     1     -10.799  -6.922   4.469  0.00  0.00    +0.032 A 
ATOM     32  C   UNL     1      -8.541  -7.772   4.615  0.00  0.00    +0.032 A 
ATOM     35  C   UNL     1     -10.753  -7.039   3.079  0.00  0.00    +0.047 A 
ATOM     36  C   UNL     1      -8.495  -7.889   3.226  0.00  0.00    +0.047 A 
ATOM     37  C   UNL     1      -9.601  -7.522   2.458  0.00  0.00    +0.120 A 
BRANCH  37   6
ATOM      6  O   UNL     1      -9.556  -7.636   1.103  0.00  0.00    -0.495 OA
ATOM     38  C   UNL     1     -10.151  -8.799   0.528  0.00  0.00    +0.277 C 
ENDBRANCH  37   6
ENDBRANCH   1  28
ENDBRANCH   9   1
ENDBRANCH  20   9
TORSDOF 5
ENDMDL
