MODEL 1
REMARK VINA RESULT:      -8.3      0.000      0.000
REMARK  Name = 7143712
REMARK  4 active torsions:
REMARK  status: ('A' for Active; 'I' for Inactive)
REMARK    1  A    between atoms: S_1  and  C_18
REMARK    2  A    between atoms: S_1  and  C_25
REMARK    3  A    between atoms: C_15  and  C_18
REMARK    4  A    between atoms: C_16  and  C_19
REMARK                            x       y       z     vdW  Elec       q    Type
REMARK                         _______ _______ _______ _____ _____    ______ ____
ROOT
ATOM      2  O   UNL     1      15.249   5.919  19.761  0.00  0.00    -0.267 OA
ATOM      3  O   UNL     1      13.608   8.514  15.382  0.00  0.00    -0.275 OA
ATOM      4  N   UNL     1      12.983   9.665  17.301  0.00  0.00    -0.300 N 
ATOM      5  N   UNL     1      14.216   8.011  19.738  0.00  0.00    -0.311 N 
ATOM      6  C   UNL     1      11.776   8.332  19.036  0.00  0.00    +0.027 C 
ATOM      7  C   UNL     1      13.120  10.278  19.709  0.00  0.00    +0.054 C 
ATOM      8  C   UNL     1      11.811   9.536  19.970  0.00  0.00    +0.018 C 
ATOM      9  C   UNL     1      11.842   8.787  17.567  0.00  0.00    +0.113 C 
ATOM     10  C   UNL     1      12.928   7.390  19.399  0.00  0.00    +0.130 C 
ATOM     11  C   UNL     1      13.150  10.776  18.251  0.00  0.00    +0.117 C 
ATOM     12  C   UNL     1      14.317   9.384  19.971  0.00  0.00    +0.027 A 
ATOM     13  C   UNL     1      15.475   9.912  20.397  0.00  0.00    +0.022 A 
ATOM     14  C   UNL     1      15.308   7.140  19.922  0.00  0.00    +0.259 A 
ATOM     15  C   UNL     1      13.765   9.454  16.166  0.00  0.00    +0.225 C 
ATOM     16  C   UNL     1      16.603   7.766  20.365  0.00  0.00    +0.047 A 
ATOM     17  C   UNL     1      16.634   9.088  20.591  0.00  0.00    +0.015 A 
ENDROOT
BRANCH  16  19
ATOM     19  C   UNL     1      17.822   6.957  20.543  0.00  0.00    -0.012 A 
ATOM     20  C   UNL     1      18.650   7.170  21.645  0.00  0.00    +0.017 A 
ATOM     21  C   UNL     1      18.148   5.977  19.608  0.00  0.00    +0.009 A 
ATOM     22  C   UNL     1      19.815   6.407  21.828  0.00  0.00    -0.017 A 
ATOM     23  C   UNL     1      19.301   5.209  19.773  0.00  0.00    +0.009 A 
ATOM     24  C   UNL     1      20.145   5.411  20.877  0.00  0.00    -0.018 A 
ATOM     26  C   UNL     1      20.658   6.609  22.932  0.00  0.00    +0.008 A 
ATOM     27  C   UNL     1      21.309   4.648  21.060  0.00  0.00    +0.008 A 
ATOM     28  C   UNL     1      21.812   5.842  23.097  0.00  0.00    +0.001 A 
ATOM     29  C   UNL     1      22.136   4.863  22.162  0.00  0.00    +0.001 A 
ENDBRANCH  16  19
BRANCH  15  18
ATOM     18  C   UNL     1      14.868  10.449  15.911  0.00  0.00    +0.164 C 
BRANCH  18   1
ATOM      1  S   UNL     1      14.252  11.658  14.731  0.00  0.00    -0.155 S 
ATOM     25  C   UNL     1      15.657  11.679  13.591  0.00  0.00    +0.085 C 
ENDBRANCH  18   1
ENDBRANCH  15  18
TORSDOF 3
ENDMDL
MODEL 2
REMARK VINA RESULT:      -7.6     28.005     31.845
REMARK  Name = 7143712
REMARK  4 active torsions:
REMARK  status: ('A' for Active; 'I' for Inactive)
REMARK    1  A    between atoms: S_1  and  C_18
REMARK    2  A    between atoms: S_1  and  C_25
REMARK    3  A    between atoms: C_15  and  C_18
REMARK    4  A    between atoms: C_16  and  C_19
REMARK                            x       y       z     vdW  Elec       q    Type
REMARK                         _______ _______ _______ _____ _____    ______ ____
ROOT
ATOM      2  O   UNL     1     -13.318   4.870  22.198  0.00  0.00    -0.267 OA
ATOM      3  O   UNL     1     -17.959   2.298  21.531  0.00  0.00    -0.275 OA
ATOM      4  N   UNL     1     -18.107   3.818  23.282  0.00  0.00    -0.300 N 
ATOM      5  N   UNL     1     -15.291   5.322  23.358  0.00  0.00    -0.311 N 
ATOM      6  C   UNL     1     -16.319   3.669  25.020  0.00  0.00    +0.027 C 
ATOM      7  C   UNL     1     -17.429   5.821  24.593  0.00  0.00    +0.054 C 
ATOM      8  C   UNL     1     -16.885   4.913  25.694  0.00  0.00    +0.018 C 
ATOM      9  C   UNL     1     -17.417   2.938  24.227  0.00  0.00    +0.113 C 
ATOM     10  C   UNL     1     -15.142   4.080  24.129  0.00  0.00    +0.130 C 
ATOM     11  C   UNL     1     -18.565   5.099  23.842  0.00  0.00    +0.117 C 
ATOM     12  C   UNL     1     -16.335   6.213  23.617  0.00  0.00    +0.027 A 
ATOM     13  C   UNL     1     -16.384   7.396  22.985  0.00  0.00    +0.022 A 
ATOM     14  C   UNL     1     -14.274   5.615  22.429  0.00  0.00    +0.259 A 
ATOM     15  C   UNL     1     -18.352   3.376  21.981  0.00  0.00    +0.225 C 
ATOM     16  C   UNL     1     -14.375   6.933  21.709  0.00  0.00    +0.047 A 
ATOM     17  C   UNL     1     -15.390   7.755  22.014  0.00  0.00    +0.015 A 
ENDROOT
BRANCH  16  19
ATOM     19  C   UNL     1     -13.392   7.320  20.683  0.00  0.00    -0.012 A 
ATOM     20  C   UNL     1     -13.812   7.609  19.384  0.00  0.00    +0.017 A 
ATOM     21  C   UNL     1     -12.040   7.399  21.009  0.00  0.00    +0.009 A 
ATOM     22  C   UNL     1     -12.887   7.979  18.394  0.00  0.00    -0.017 A 
ATOM     23  C   UNL     1     -11.107   7.766  20.039  0.00  0.00    +0.009 A 
ATOM     24  C   UNL     1     -11.514   8.059  18.727  0.00  0.00    -0.018 A 
ATOM     26  C   UNL     1     -13.294   8.273  17.083  0.00  0.00    +0.008 A 
ATOM     27  C   UNL     1     -10.589   8.430  17.738  0.00  0.00    +0.008 A 
ATOM     28  C   UNL     1     -12.361   8.638  16.113  0.00  0.00    +0.001 A 
ATOM     29  C   UNL     1     -11.010   8.717  16.440  0.00  0.00    +0.001 A 
ENDBRANCH  16  19
BRANCH  15  18
ATOM     18  C   UNL     1     -19.144   4.301  21.092  0.00  0.00    +0.164 C 
BRANCH  18   1
ATOM      1  S   UNL     1     -18.432   4.214  19.442  0.00  0.00    -0.155 S 
ATOM     25  C   UNL     1     -16.941   5.199  19.728  0.00  0.00    +0.085 C 
ENDBRANCH  18   1
ENDBRANCH  15  18
TORSDOF 3
ENDMDL
MODEL 3
REMARK VINA RESULT:      -7.4     26.821     29.401
REMARK  Name = 7143712
REMARK  4 active torsions:
REMARK  status: ('A' for Active; 'I' for Inactive)
REMARK    1  A    between atoms: S_1  and  C_18
REMARK    2  A    between atoms: S_1  and  C_25
REMARK    3  A    between atoms: C_15  and  C_18
REMARK    4  A    between atoms: C_16  and  C_19
REMARK                            x       y       z     vdW  Elec       q    Type
REMARK                         _______ _______ _______ _____ _____    ______ ____
ROOT
ATOM      2  O   UNL     1     -12.483  10.210  20.540  0.00  0.00    -0.267 OA
ATOM      3  O   UNL     1     -14.367  12.690  16.193  0.00  0.00    -0.275 OA
ATOM      4  N   UNL     1     -12.116  12.175  15.934  0.00  0.00    -0.300 N 
ATOM      5  N   UNL     1     -11.290  10.570  18.568  0.00  0.00    -0.311 N 
ATOM      6  C   UNL     1     -10.603  12.907  17.783  0.00  0.00    +0.027 C 
ATOM      7  C   UNL     1     -10.013  10.941  16.429  0.00  0.00    +0.054 C 
ATOM      8  C   UNL     1      -9.444  12.186  17.105  0.00  0.00    +0.018 C 
ATOM      9  C   UNL     1     -11.668  13.308  16.748  0.00  0.00    +0.113 C 
ATOM     10  C   UNL     1     -11.176  12.001  18.878  0.00  0.00    +0.130 C 
ATOM     11  C   UNL     1     -11.038  11.357  15.356  0.00  0.00    +0.117 C 
ATOM     12  C   UNL     1     -10.672  10.023  17.441  0.00  0.00    +0.027 A 
ATOM     13  C   UNL     1     -10.688   8.695  17.241  0.00  0.00    +0.022 A 
ATOM     14  C   UNL     1     -11.956   9.769  19.516  0.00  0.00    +0.259 A 
ATOM     15  C   UNL     1     -13.478  11.992  15.698  0.00  0.00    +0.225 C 
ATOM     16  C   UNL     1     -11.988   8.288  19.247  0.00  0.00    +0.047 A 
ATOM     17  C   UNL     1     -11.361   7.820  18.158  0.00  0.00    +0.015 A 
ENDROOT
BRANCH  16  19
ATOM     19  C   UNL     1     -12.697   7.363  20.148  0.00  0.00    -0.012 A 
ATOM     20  C   UNL     1     -14.090   7.289  20.120  0.00  0.00    +0.017 A 
ATOM     21  C   UNL     1     -11.976   6.560  21.029  0.00  0.00    +0.009 A 
ATOM     22  C   UNL     1     -14.780   6.412  20.973  0.00  0.00    -0.017 A 
ATOM     23  C   UNL     1     -12.644   5.683  21.883  0.00  0.00    +0.009 A 
ATOM     24  C   UNL     1     -14.046   5.597  21.867  0.00  0.00    -0.018 A 
ATOM     26  C   UNL     1     -16.182   6.325  20.957  0.00  0.00    +0.008 A 
ATOM     27  C   UNL     1     -14.736   4.720  22.720  0.00  0.00    +0.008 A 
ATOM     28  C   UNL     1     -16.850   5.449  21.813  0.00  0.00    +0.001 A 
ATOM     29  C   UNL     1     -16.129   4.647  22.692  0.00  0.00    +0.001 A 
ENDBRANCH  16  19
BRANCH  15  18
ATOM     18  C   UNL     1     -13.858  10.858  14.781  0.00  0.00    +0.164 C 
BRANCH  18   1
ATOM      1  S   UNL     1     -14.246   9.432  15.807  0.00  0.00    -0.155 S 
ATOM     25  C   UNL     1     -13.465   8.144  14.803  0.00  0.00    +0.085 C 
ENDBRANCH  18   1
ENDBRANCH  15  18
TORSDOF 3
ENDMDL
MODEL 4
REMARK VINA RESULT:      -7.3      3.129      7.439
REMARK  Name = 7143712
REMARK  4 active torsions:
REMARK  status: ('A' for Active; 'I' for Inactive)
REMARK    1  A    between atoms: S_1  and  C_18
REMARK    2  A    between atoms: S_1  and  C_25
REMARK    3  A    between atoms: C_15  and  C_18
REMARK    4  A    between atoms: C_16  and  C_19
REMARK                            x       y       z     vdW  Elec       q    Type
REMARK                         _______ _______ _______ _____ _____    ______ ____
ROOT
ATOM      2  O   UNL     1      13.743  11.928  18.357  0.00  0.00    -0.267 OA
ATOM      3  O   UNL     1      15.794   8.439  21.853  0.00  0.00    -0.275 OA
ATOM      4  N   UNL     1      13.610   7.866  21.306  0.00  0.00    -0.300 N 
ATOM      5  N   UNL     1      12.689   9.985  19.102  0.00  0.00    -0.311 N 
ATOM      6  C   UNL     1      11.911   9.684  21.522  0.00  0.00    +0.027 C 
ATOM      7  C   UNL     1      11.562   7.875  19.892  0.00  0.00    +0.054 C 
ATOM      8  C   UNL     1      10.859   8.758  20.922  0.00  0.00    +0.018 C 
ATOM      9  C   UNL     1      13.025   8.868  22.199  0.00  0.00    +0.113 C 
ATOM     10  C   UNL     1      12.455  10.596  20.418  0.00  0.00    +0.130 C 
ATOM     11  C   UNL     1      12.639   7.023  20.592  0.00  0.00    +0.117 C 
ATOM     12  C   UNL     1      12.200   8.712  18.799  0.00  0.00    +0.027 A 
ATOM     13  C   UNL     1      12.320   8.223  17.555  0.00  0.00    +0.022 A 
ATOM     14  C   UNL     1      13.330  10.787  18.138  0.00  0.00    +0.259 A 
ATOM     15  C   UNL     1      14.996   7.721  21.246  0.00  0.00    +0.225 C 
ATOM     16  C   UNL     1      13.482  10.197  16.762  0.00  0.00    +0.047 A 
ATOM     17  C   UNL     1      12.975   8.978  16.526  0.00  0.00    +0.015 A 
ENDROOT
BRANCH  16  19
ATOM     19  C   UNL     1      14.178  10.929  15.689  0.00  0.00    -0.012 A 
ATOM     20  C   UNL     1      15.572  10.992  15.675  0.00  0.00    +0.017 A 
ATOM     21  C   UNL     1      13.444  11.560  14.687  0.00  0.00    +0.009 A 
ATOM     22  C   UNL     1      16.250  11.686  14.660  0.00  0.00    -0.017 A 
ATOM     23  C   UNL     1      14.100  12.254  13.671  0.00  0.00    +0.009 A 
ATOM     24  C   UNL     1      15.502  12.326  13.642  0.00  0.00    -0.018 A 
ATOM     26  C   UNL     1      17.652  11.759  14.631  0.00  0.00    +0.008 A 
ATOM     27  C   UNL     1      16.180  13.021  12.627  0.00  0.00    +0.008 A 
ATOM     28  C   UNL     1      18.308  12.454  13.615  0.00  0.00    +0.001 A 
ATOM     29  C   UNL     1      17.573  13.083  12.614  0.00  0.00    +0.001 A 
ENDBRANCH  16  19
BRANCH  15  18
ATOM     18  C   UNL     1      15.522   6.612  20.371  0.00  0.00    +0.164 C 
BRANCH  18   1
ATOM      1  S   UNL     1      17.309   6.796  20.270  0.00  0.00    -0.155 S 
ATOM     25  C   UNL     1      17.631   5.658  18.900  0.00  0.00    +0.085 C 
ENDBRANCH  18   1
ENDBRANCH  15  18
TORSDOF 3
ENDMDL
MODEL 5
REMARK VINA RESULT:      -7.2     27.675     30.246
REMARK  Name = 7143712
REMARK  4 active torsions:
REMARK  status: ('A' for Active; 'I' for Inactive)
REMARK    1  A    between atoms: S_1  and  C_18
REMARK    2  A    between atoms: S_1  and  C_25
REMARK    3  A    between atoms: C_15  and  C_18
REMARK    4  A    between atoms: C_16  and  C_19
REMARK                            x       y       z     vdW  Elec       q    Type
REMARK                         _______ _______ _______ _____ _____    ______ ____
ROOT
ATOM      2  O   UNL     1      -6.232 -13.113  15.408  0.00  0.00    -0.267 OA
ATOM      3  O   UNL     1     -11.082 -11.069  16.354  0.00  0.00    -0.275 OA
ATOM      4  N   UNL     1      -9.951 -11.454  18.346  0.00  0.00    -0.300 N 
ATOM      5  N   UNL     1      -7.055 -12.503  17.503  0.00  0.00    -0.311 N 
ATOM      6  C   UNL     1      -8.987 -13.741  18.636  0.00  0.00    +0.027 C 
ATOM      7  C   UNL     1      -7.938 -11.823  19.763  0.00  0.00    +0.054 C 
ATOM      8  C   UNL     1      -8.332 -13.288  19.936  0.00  0.00    +0.018 C 
ATOM      9  C   UNL     1     -10.234 -12.891  18.336  0.00  0.00    +0.113 C 
ATOM     10  C   UNL     1      -7.954 -13.665  17.508  0.00  0.00    +0.130 C 
ATOM     11  C   UNL     1      -9.201 -10.973  19.517  0.00  0.00    +0.117 C 
ATOM     12  C   UNL     1      -6.970 -11.650  18.607  0.00  0.00    +0.027 A 
ATOM     13  C   UNL     1      -6.057 -10.666  18.630  0.00  0.00    +0.022 A 
ATOM     14  C   UNL     1      -6.211 -12.360  16.384  0.00  0.00    +0.259 A 
ATOM     15  C   UNL     1     -10.456 -10.645  17.328  0.00  0.00    +0.225 C 
ATOM     16  C   UNL     1      -5.223 -11.226  16.423  0.00  0.00    +0.047 A 
ATOM     17  C   UNL     1      -5.176 -10.452  17.518  0.00  0.00    +0.015 A 
ENDROOT
BRANCH  16  19
ATOM     19  C   UNL     1      -4.325 -10.955  15.287  0.00  0.00    -0.012 A 
ATOM     20  C   UNL     1      -4.851 -10.542  14.062  0.00  0.00    +0.017 A 
ATOM     21  C   UNL     1      -2.949 -11.112  15.434  0.00  0.00    +0.009 A 
ATOM     22  C   UNL     1      -4.008 -10.281  12.969  0.00  0.00    -0.017 A 
ATOM     23  C   UNL     1      -2.096 -10.857  14.360  0.00  0.00    +0.009 A 
ATOM     24  C   UNL     1      -2.610 -10.440  13.121  0.00  0.00    -0.018 A 
ATOM     26  C   UNL     1      -4.521  -9.863  11.730  0.00  0.00    +0.008 A 
ATOM     27  C   UNL     1      -1.767 -10.179  12.029  0.00  0.00    +0.008 A 
ATOM     28  C   UNL     1      -3.669  -9.609  10.656  0.00  0.00    +0.001 A 
ATOM     29  C   UNL     1      -2.294  -9.766  10.805  0.00  0.00    +0.001 A 
ENDBRANCH  16  19
BRANCH  15  18
ATOM     18  C   UNL     1     -10.197  -9.165  17.451  0.00  0.00    +0.164 C 
BRANCH  18   1
ATOM      1  S   UNL     1      -9.708  -8.559  15.829  0.00  0.00    -0.155 S 
ATOM     25  C   UNL     1     -10.444  -6.908  15.913  0.00  0.00    +0.085 C 
ENDBRANCH  18   1
ENDBRANCH  15  18
TORSDOF 3
ENDMDL
MODEL 6
REMARK VINA RESULT:      -7.2     13.542     18.151
REMARK  Name = 7143712
REMARK  4 active torsions:
REMARK  status: ('A' for Active; 'I' for Inactive)
REMARK    1  A    between atoms: S_1  and  C_18
REMARK    2  A    between atoms: S_1  and  C_25
REMARK    3  A    between atoms: C_15  and  C_18
REMARK    4  A    between atoms: C_16  and  C_19
REMARK                            x       y       z     vdW  Elec       q    Type
REMARK                         _______ _______ _______ _____ _____    ______ ____
ROOT
ATOM      2  O   UNL     1       9.978   7.164   1.939  0.00  0.00    -0.267 OA
ATOM      3  O   UNL     1      12.560   9.754   5.841  0.00  0.00    -0.275 OA
ATOM      4  N   UNL     1      10.844   8.454   6.714  0.00  0.00    -0.300 N 
ATOM      5  N   UNL     1       9.586   6.901   4.224  0.00  0.00    -0.311 N 
ATOM      6  C   UNL     1       8.594   8.763   5.673  0.00  0.00    +0.027 C 
ATOM      7  C   UNL     1       9.180   6.603   6.692  0.00  0.00    +0.054 C 
ATOM      8  C   UNL     1       8.054   7.621   6.526  0.00  0.00    +0.018 C 
ATOM      9  C   UNL     1       9.805   9.422   6.357  0.00  0.00    +0.113 C 
ATOM     10  C   UNL     1       8.943   8.221   4.283  0.00  0.00    +0.130 C 
ATOM     11  C   UNL     1      10.366   7.259   7.427  0.00  0.00    +0.117 C 
ATOM     12  C   UNL     1       9.641   6.073   5.347  0.00  0.00    +0.027 A 
ATOM     13  C   UNL     1      10.124   4.825   5.241  0.00  0.00    +0.022 A 
ATOM     14  C   UNL     1      10.041   6.476   2.960  0.00  0.00    +0.259 A 
ATOM     15  C   UNL     1      12.180   8.746   6.441  0.00  0.00    +0.225 C 
ATOM     16  C   UNL     1      10.611   5.085   2.880  0.00  0.00    +0.047 A 
ATOM     17  C   UNL     1      10.620   4.330   3.989  0.00  0.00    +0.015 A 
ENDROOT
BRANCH  16  19
ATOM     19  C   UNL     1      11.159   4.556   1.620  0.00  0.00    -0.012 A 
ATOM     20  C   UNL     1      10.460   4.728   0.425  0.00  0.00    +0.017 A 
ATOM     21  C   UNL     1      12.378   3.881   1.620  0.00  0.00    +0.009 A 
ATOM     22  C   UNL     1      10.969   4.228  -0.785  0.00  0.00    -0.017 A 
ATOM     23  C   UNL     1      12.900   3.378   0.428  0.00  0.00    +0.009 A 
ATOM     24  C   UNL     1      12.208   3.543  -0.783  0.00  0.00    -0.018 A 
ATOM     26  C   UNL     1      10.278   4.394  -1.996  0.00  0.00    +0.008 A 
ATOM     27  C   UNL     1      12.717   3.044  -1.992  0.00  0.00    +0.008 A 
ATOM     28  C   UNL     1      10.799   3.890  -3.188  0.00  0.00    +0.001 A 
ATOM     29  C   UNL     1      12.017   3.217  -3.186  0.00  0.00    +0.001 A 
ENDBRANCH  16  19
BRANCH  15  18
ATOM     18  C   UNL     1      13.201   7.742   6.915  0.00  0.00    +0.164 C 
BRANCH  18   1
ATOM      1  S   UNL     1      14.333   7.428   5.552  0.00  0.00    -0.155 S 
ATOM     25  C   UNL     1      15.787   8.294   6.192  0.00  0.00    +0.085 C 
ENDBRANCH  18   1
ENDBRANCH  15  18
TORSDOF 3
ENDMDL
MODEL 7
REMARK VINA RESULT:      -7.1      1.857      2.357
REMARK  Name = 7143712
REMARK  4 active torsions:
REMARK  status: ('A' for Active; 'I' for Inactive)
REMARK    1  A    between atoms: S_1  and  C_18
REMARK    2  A    between atoms: S_1  and  C_25
REMARK    3  A    between atoms: C_15  and  C_18
REMARK    4  A    between atoms: C_16  and  C_19
REMARK                            x       y       z     vdW  Elec       q    Type
REMARK                         _______ _______ _______ _____ _____    ______ ____
ROOT
ATOM      2  O   UNL     1      16.267   6.433  19.185  0.00  0.00    -0.267 OA
ATOM      3  O   UNL     1      13.533  10.324  16.739  0.00  0.00    -0.275 OA
ATOM      4  N   UNL     1      12.538   9.770  18.764  0.00  0.00    -0.300 N 
ATOM      5  N   UNL     1      14.438   7.569  20.083  0.00  0.00    -0.311 N 
ATOM      6  C   UNL     1      12.074   7.343  19.130  0.00  0.00    +0.027 C 
ATOM      7  C   UNL     1      12.477   8.812  21.060  0.00  0.00    +0.054 C 
ATOM      8  C   UNL     1      11.621   7.655  20.551  0.00  0.00    +0.018 C 
ATOM      9  C   UNL     1      11.891   8.572  18.223  0.00  0.00    +0.113 C 
ATOM     10  C   UNL     1      13.529   6.866  19.167  0.00  0.00    +0.130 C 
ATOM     11  C   UNL     1      12.244  10.054  20.177  0.00  0.00    +0.117 C 
ATOM     12  C   UNL     1      13.950   8.447  21.054  0.00  0.00    +0.027 A 
ATOM     13  C   UNL     1      14.784   8.985  21.957  0.00  0.00    +0.022 A 
ATOM     14  C   UNL     1      15.803   7.229  20.004  0.00  0.00    +0.259 A 
ATOM     15  C   UNL     1      13.299  10.582  17.922  0.00  0.00    +0.225 C 
ATOM     16  C   UNL     1      16.720   7.876  21.007  0.00  0.00    +0.047 A 
ATOM     17  C   UNL     1      16.190   8.696  21.926  0.00  0.00    +0.015 A 
ENDROOT
BRANCH  16  19
ATOM     19  C   UNL     1      18.172   7.630  20.985  0.00  0.00    -0.012 A 
ATOM     20  C   UNL     1      18.661   6.343  20.754  0.00  0.00    +0.017 A 
ATOM     21  C   UNL     1      19.060   8.682  21.195  0.00  0.00    +0.009 A 
ATOM     22  C   UNL     1      20.042   6.092  20.731  0.00  0.00    -0.017 A 
ATOM     23  C   UNL     1      20.435   8.452  21.175  0.00  0.00    +0.009 A 
ATOM     24  C   UNL     1      20.943   7.163  20.944  0.00  0.00    -0.018 A 
ATOM     26  C   UNL     1      20.550   4.803  20.500  0.00  0.00    +0.008 A 
ATOM     27  C   UNL     1      22.325   6.913  20.920  0.00  0.00    +0.008 A 
ATOM     28  C   UNL     1      21.925   4.573  20.481  0.00  0.00    +0.001 A 
ATOM     29  C   UNL     1      22.811   5.626  20.690  0.00  0.00    +0.001 A 
ENDBRANCH  16  19
BRANCH  15  18
ATOM     18  C   UNL     1      13.861  11.842  18.527  0.00  0.00    +0.164 C 
BRANCH  18   1
ATOM      1  S   UNL     1      15.546  11.492  19.052  0.00  0.00    -0.155 S 
ATOM     25  C   UNL     1      16.160  13.190  19.176  0.00  0.00    +0.085 C 
ENDBRANCH  18   1
ENDBRANCH  15  18
TORSDOF 3
ENDMDL
MODEL 8
REMARK VINA RESULT:      -7.1     27.381     30.265
REMARK  Name = 7143712
REMARK  4 active torsions:
REMARK  status: ('A' for Active; 'I' for Inactive)
REMARK    1  A    between atoms: S_1  and  C_18
REMARK    2  A    between atoms: S_1  and  C_25
REMARK    3  A    between atoms: C_15  and  C_18
REMARK    4  A    between atoms: C_16  and  C_19
REMARK                            x       y       z     vdW  Elec       q    Type
REMARK                         _______ _______ _______ _____ _____    ______ ____
ROOT
ATOM      2  O   UNL     1      -6.661 -10.319  14.082  0.00  0.00    -0.267 OA
ATOM      3  O   UNL     1      -4.103 -14.783  12.621  0.00  0.00    -0.275 OA
ATOM      4  N   UNL     1      -2.588 -13.096  13.127  0.00  0.00    -0.300 N 
ATOM      5  N   UNL     1      -4.349 -10.624  14.120  0.00  0.00    -0.311 N 
ATOM      6  C   UNL     1      -2.963 -10.905  11.987  0.00  0.00    +0.027 C 
ATOM      7  C   UNL     1      -1.854 -10.964  14.181  0.00  0.00    +0.054 C 
ATOM      8  C   UNL     1      -1.832 -10.296  12.808  0.00  0.00    +0.018 C 
ATOM      9  C   UNL     1      -2.765 -12.423  11.839  0.00  0.00    +0.113 C 
ATOM     10  C   UNL     1      -4.299 -10.561  12.653  0.00  0.00    +0.130 C 
ATOM     11  C   UNL     1      -1.600 -12.476  14.024  0.00  0.00    +0.117 C 
ATOM     12  C   UNL     1      -3.182 -10.736  14.879  0.00  0.00    +0.027 A 
ATOM     13  C   UNL     1      -3.240 -10.671  16.218  0.00  0.00    +0.022 A 
ATOM     14  C   UNL     1      -5.614 -10.457  14.717  0.00  0.00    +0.259 A 
ATOM     15  C   UNL     1      -3.278 -14.280  13.387  0.00  0.00    +0.225 C 
ATOM     16  C   UNL     1      -5.652 -10.424  16.222  0.00  0.00    +0.047 A 
ATOM     17  C   UNL     1      -4.496 -10.517  16.895  0.00  0.00    +0.015 A 
ENDROOT
BRANCH  16  19
ATOM     19  C   UNL     1      -6.925 -10.300  16.951  0.00  0.00    -0.012 A 
ATOM     20  C   UNL     1      -7.336 -11.312  17.820  0.00  0.00    +0.017 A 
ATOM     21  C   UNL     1      -7.722  -9.172  16.774  0.00  0.00    +0.009 A 
ATOM     22  C   UNL     1      -8.547 -11.209  18.522  0.00  0.00    -0.017 A 
ATOM     23  C   UNL     1      -8.929  -9.052  17.464  0.00  0.00    +0.009 A 
ATOM     24  C   UNL     1      -9.356 -10.061  18.342  0.00  0.00    -0.018 A 
ATOM     26  C   UNL     1      -8.974 -12.219  19.400  0.00  0.00    +0.008 A 
ATOM     27  C   UNL     1     -10.567  -9.958  19.044  0.00  0.00    +0.008 A 
ATOM     28  C   UNL     1     -10.182 -12.100  20.089  0.00  0.00    +0.001 A 
ATOM     29  C   UNL     1     -10.976 -10.971  19.912  0.00  0.00    +0.001 A 
ENDBRANCH  16  19
BRANCH  15  18
ATOM     18  C   UNL     1      -2.980 -14.961  14.699  0.00  0.00    +0.164 C 
BRANCH  18   1
ATOM      1  S   UNL     1      -4.530 -15.603  15.346  0.00  0.00    -0.155 S 
ATOM     25  C   UNL     1      -5.172 -14.084  16.093  0.00  0.00    +0.085 C 
ENDBRANCH  18   1
ENDBRANCH  15  18
TORSDOF 3
ENDMDL
MODEL 9
REMARK VINA RESULT:      -7.1     15.326     19.615
REMARK  Name = 7143712
REMARK  4 active torsions:
REMARK  status: ('A' for Active; 'I' for Inactive)
REMARK    1  A    between atoms: S_1  and  C_18
REMARK    2  A    between atoms: S_1  and  C_25
REMARK    3  A    between atoms: C_15  and  C_18
REMARK    4  A    between atoms: C_16  and  C_19
REMARK                            x       y       z     vdW  Elec       q    Type
REMARK                         _______ _______ _______ _____ _____    ______ ____
ROOT
ATOM      2  O   UNL     1      12.854   3.745   1.834  0.00  0.00    -0.267 OA
ATOM      3  O   UNL     1      14.928   6.244  -2.415  0.00  0.00    -0.275 OA
ATOM      4  N   UNL     1      12.891   5.265  -2.952  0.00  0.00    -0.300 N 
ATOM      5  N   UNL     1      11.799   3.999  -0.231  0.00  0.00    -0.311 N 
ATOM      6  C   UNL     1      12.643   2.851  -2.358  0.00  0.00    +0.027 C 
ATOM      7  C   UNL     1      10.654   4.294  -2.456  0.00  0.00    +0.054 C 
ATOM      8  C   UNL     1      11.185   2.904  -2.798  0.00  0.00    +0.018 C 
ATOM      9  C   UNL     1      13.467   3.925  -3.089  0.00  0.00    +0.113 C 
ATOM     10  C   UNL     1      12.707   3.015  -0.836  0.00  0.00    +0.130 C 
ATOM     11  C   UNL     1      11.451   5.358  -3.236  0.00  0.00    +0.117 C 
ATOM     12  C   UNL     1      10.756   4.567  -0.966  0.00  0.00    +0.027 A 
ATOM     13  C   UNL     1       9.867   5.371  -0.363  0.00  0.00    +0.022 A 
ATOM     14  C   UNL     1      11.968   4.254   1.144  0.00  0.00    +0.259 A 
ATOM     15  C   UNL     1      13.722   6.344  -2.651  0.00  0.00    +0.225 C 
ATOM     16  C   UNL     1      10.977   5.188   1.784  0.00  0.00    +0.047 A 
ATOM     17  C   UNL     1       9.986   5.688   1.031  0.00  0.00    +0.015 A 
ENDROOT
BRANCH  16  19
ATOM     19  C   UNL     1      11.087   5.562   3.205  0.00  0.00    -0.012 A 
ATOM     20  C   UNL     1      10.334   4.887   4.167  0.00  0.00    +0.017 A 
ATOM     21  C   UNL     1      11.943   6.591   3.590  0.00  0.00    +0.009 A 
ATOM     22  C   UNL     1      10.427   5.232   5.525  0.00  0.00    -0.017 A 
ATOM     23  C   UNL     1      12.050   6.947   4.934  0.00  0.00    +0.009 A 
ATOM     24  C   UNL     1      11.299   6.277   5.914  0.00  0.00    -0.018 A 
ATOM     26  C   UNL     1       9.677   4.562   6.505  0.00  0.00    +0.008 A 
ATOM     27  C   UNL     1      11.392   6.622   7.273  0.00  0.00    +0.008 A 
ATOM     28  C   UNL     1       9.782   4.919   7.849  0.00  0.00    +0.001 A 
ATOM     29  C   UNL     1      10.639   5.947   8.232  0.00  0.00    +0.001 A 
ENDBRANCH  16  19
BRANCH  15  18
ATOM     18  C   UNL     1      13.074   7.705  -2.611  0.00  0.00    +0.164 C 
BRANCH  18   1
ATOM      1  S   UNL     1      13.630   8.532  -1.113  0.00  0.00    -0.155 S 
ATOM     25  C   UNL     1      12.089   8.461  -0.166  0.00  0.00    +0.085 C 
ENDBRANCH  18   1
ENDBRANCH  15  18
TORSDOF 3
ENDMDL
MODEL 10
REMARK VINA RESULT:      -6.9     22.539     24.315
REMARK  Name = 7143712
REMARK  4 active torsions:
REMARK  status: ('A' for Active; 'I' for Inactive)
REMARK    1  A    between atoms: S_1  and  C_18
REMARK    2  A    between atoms: S_1  and  C_25
REMARK    3  A    between atoms: C_15  and  C_18
REMARK    4  A    between atoms: C_16  and  C_19
REMARK                            x       y       z     vdW  Elec       q    Type
REMARK                         _______ _______ _______ _____ _____    ______ ____
ROOT
ATOM      2  O   UNL     1       9.612  -9.373  32.536  0.00  0.00    -0.267 OA
ATOM      3  O   UNL     1       9.084  -7.899  37.649  0.00  0.00    -0.275 OA
ATOM      4  N   UNL     1       8.543  -6.142  36.228  0.00  0.00    -0.300 N 
ATOM      5  N   UNL     1       8.775  -7.323  33.271  0.00  0.00    -0.311 N 
ATOM      6  C   UNL     1      10.231  -5.593  34.470  0.00  0.00    +0.027 C 
ATOM      7  C   UNL     1       7.851  -5.119  34.068  0.00  0.00    +0.054 C 
ATOM      8  C   UNL     1       9.265  -4.574  33.877  0.00  0.00    +0.018 C 
ATOM      9  C   UNL     1       9.943  -5.801  35.967  0.00  0.00    +0.113 C 
ATOM     10  C   UNL     1      10.122  -6.899  33.677  0.00  0.00    +0.130 C 
ATOM     11  C   UNL     1       7.555  -5.271  35.573  0.00  0.00    +0.117 C 
ATOM     12  C   UNL     1       7.683  -6.458  33.374  0.00  0.00    +0.027 A 
ATOM     13  C   UNL     1       6.486  -6.822  32.887  0.00  0.00    +0.022 A 
ATOM     14  C   UNL     1       8.665  -8.595  32.676  0.00  0.00    +0.259 A 
ATOM     15  C   UNL     1       8.240  -7.180  37.110  0.00  0.00    +0.225 C 
ATOM     16  C   UNL     1       7.303  -8.990  32.172  0.00  0.00    +0.047 A 
ATOM     17  C   UNL     1       6.297  -8.109  32.282  0.00  0.00    +0.015 A 
ENDROOT
BRANCH  16  19
ATOM     19  C   UNL     1       7.063 -10.316  31.576  0.00  0.00    -0.012 A 
ATOM     20  C   UNL     1       7.597 -10.628  30.325  0.00  0.00    +0.017 A 
ATOM     21  C   UNL     1       6.302 -11.260  32.262  0.00  0.00    +0.009 A 
ATOM     22  C   UNL     1       7.377 -11.887  29.744  0.00  0.00    -0.017 A 
ATOM     23  C   UNL     1       6.073 -12.516  31.700  0.00  0.00    +0.009 A 
ATOM     24  C   UNL     1       6.604 -12.846  30.442  0.00  0.00    -0.018 A 
ATOM     26  C   UNL     1       7.908 -12.217  28.486  0.00  0.00    +0.008 A 
ATOM     27  C   UNL     1       6.384 -14.105  29.861  0.00  0.00    +0.008 A 
ATOM     28  C   UNL     1       7.678 -13.473  27.924  0.00  0.00    +0.001 A 
ATOM     29  C   UNL     1       6.918 -14.415  28.610  0.00  0.00    +0.001 A 
ENDBRANCH  16  19
BRANCH  15  18
ATOM     18  C   UNL     1       6.779  -7.417  37.397  0.00  0.00    +0.164 C 
BRANCH  18   1
ATOM      1  S   UNL     1       6.196  -8.681  36.257  0.00  0.00    -0.155 S 
ATOM     25  C   UNL     1       4.485  -8.808  36.832  0.00  0.00    +0.085 C 
ENDBRANCH  18   1
ENDBRANCH  15  18
TORSDOF 3
ENDMDL
