MODEL 1
REMARK VINA RESULT:      -5.8      0.000      0.000
REMARK  Name = 7675130
REMARK  7 active torsions:
REMARK  status: ('A' for Active; 'I' for Inactive)
REMARK    1  A    between atoms: N_7  and  C_18
REMARK    2  A    between atoms: C_15  and  C_16
REMARK    3  A    between atoms: C_15  and  C_19
REMARK    4  A    between atoms: C_15  and  C_20
REMARK    5  A    between atoms: C_15  and  C_21
REMARK    6  A    between atoms: C_16  and  C_17
REMARK    7  A    between atoms: C_18  and  C_22
REMARK                            x       y       z     vdW  Elec       q    Type
REMARK                         _______ _______ _______ _____ _____    ______ ____
ROOT
ATOM      1  O   UNL     1     -16.833   5.077  27.951  0.00  0.00    -0.273 OA
ATOM      2  O   UNL     1     -16.756   0.578  26.956  0.00  0.00    -0.252 OA
ATOM      3  O   UNL     1     -13.083   2.078  32.602  0.00  0.00    -0.276 OA
ATOM      5  N   UNL     1     -16.177   1.798  28.869  0.00  0.00    -0.271 N 
ATOM      6  N   UNL     1     -14.185   2.620  30.629  0.00  0.00    -0.298 N 
ATOM      7  N   UNL     1     -16.997   2.899  27.119  0.00  0.00    -0.215 N 
ATOM      9  C   UNL     1     -16.178   3.177  29.308  0.00  0.00    +0.181 C 
ATOM     10  C   UNL     1     -14.774   3.608  29.707  0.00  0.00    +0.139 C 
ATOM     11  C   UNL     1     -15.579   0.788  29.723  0.00  0.00    +0.129 C 
ATOM     12  C   UNL     1     -14.176   1.234  30.131  0.00  0.00    +0.127 C 
ATOM     13  C   UNL     1     -16.703   3.865  28.060  0.00  0.00    +0.246 C 
ATOM     14  C   UNL     1     -16.665   1.631  27.572  0.00  0.00    +0.312 C 
ATOM     17  C   UNL     1     -13.613   2.915  31.866  0.00  0.00    +0.216 C 
ENDROOT
BRANCH  17  16
ATOM     16  C   UNL     1     -13.665   4.356  32.306  0.00  0.00    +0.102 C 
BRANCH  16  15
ATOM     15  C   UNL     1     -14.774   4.626  33.340  0.00  0.00    -0.029 C 
ATOM     19  C   UNL     1     -14.216   4.597  34.773  0.00  0.00    +0.011 C 
ATOM     20  C   UNL     1     -15.912   3.600  33.214  0.00  0.00    +0.011 C 
ATOM     21  C   UNL     1     -15.345   6.030  33.065  0.00  0.00    +0.011 C 
ENDBRANCH  16  15
ENDBRANCH  17  16
BRANCH   7  18
ATOM     18  C   UNL     1     -17.528   3.180  25.800  0.00  0.00    +0.213 C 
BRANCH  18  22
ATOM      4  O   UNL     1     -16.082   2.453  23.997  0.00  0.00    -0.274 OA
ATOM      8  N   UNL     1     -15.708   4.506  24.964  0.00  0.00    -0.328 N 
ATOM     22  C   UNL     1     -16.392   3.319  24.813  0.00  0.00    +0.228 C 
ATOM     23  H   UNL     1     -14.911   4.727  24.375  0.00  0.00    +0.145 HD
ATOM     24  H   UNL     1     -15.965   5.200  25.658  0.00  0.00    +0.145 HD
ENDBRANCH  18  22
ENDBRANCH   7  18
TORSDOF 4
ENDMDL
MODEL 2
REMARK VINA RESULT:      -5.7     21.115     23.753
REMARK  Name = 7675130
REMARK  7 active torsions:
REMARK  status: ('A' for Active; 'I' for Inactive)
REMARK    1  A    between atoms: N_7  and  C_18
REMARK    2  A    between atoms: C_15  and  C_16
REMARK    3  A    between atoms: C_15  and  C_19
REMARK    4  A    between atoms: C_15  and  C_20
REMARK    5  A    between atoms: C_15  and  C_21
REMARK    6  A    between atoms: C_16  and  C_17
REMARK    7  A    between atoms: C_18  and  C_22
REMARK                            x       y       z     vdW  Elec       q    Type
REMARK                         _______ _______ _______ _____ _____    ______ ____
ROOT
ATOM      1  O   UNL     1      -7.097 -10.703  15.980  0.00  0.00    -0.273 OA
ATOM      2  O   UNL     1      -3.482 -11.888  18.579  0.00  0.00    -0.252 OA
ATOM      3  O   UNL     1      -1.661 -10.332  12.108  0.00  0.00    -0.276 OA
ATOM      5  N   UNL     1      -3.672 -10.827  16.501  0.00  0.00    -0.271 N 
ATOM      6  N   UNL     1      -3.191 -10.902  13.761  0.00  0.00    -0.298 N 
ATOM      7  N   UNL     1      -5.535 -11.384  17.580  0.00  0.00    -0.215 N 
ATOM      9  C   UNL     1      -4.722 -10.385  15.610  0.00  0.00    +0.181 C 
ATOM     10  C   UNL     1      -4.576 -11.046  14.247  0.00  0.00    +0.139 C 
ATOM     11  C   UNL     1      -2.292 -10.738  16.060  0.00  0.00    +0.129 C 
ATOM     12  C   UNL     1      -2.155 -11.392  14.685  0.00  0.00    +0.127 C 
ATOM     13  C   UNL     1      -5.950 -10.833  16.384  0.00  0.00    +0.246 C 
ATOM     14  C   UNL     1      -4.152 -11.416  17.671  0.00  0.00    +0.312 C 
ATOM     17  C   UNL     1      -2.825 -10.400  12.513  0.00  0.00    +0.216 C 
ENDROOT
BRANCH  17  16
ATOM     16  C   UNL     1      -3.944  -9.916  11.626  0.00  0.00    +0.102 C 
BRANCH  16  15
ATOM     15  C   UNL     1      -4.373 -10.960  10.579  0.00  0.00    -0.029 C 
ATOM     19  C   UNL     1      -5.861 -11.316  10.726  0.00  0.00    +0.011 C 
ATOM     20  C   UNL     1      -3.527 -12.240  10.694  0.00  0.00    +0.011 C 
ATOM     21  C   UNL     1      -4.150 -10.348   9.183  0.00  0.00    +0.011 C 
ENDBRANCH  16  15
ENDBRANCH  17  16
BRANCH   7  18
ATOM     18  C   UNL     1      -6.431 -11.917  18.586  0.00  0.00    +0.213 C 
BRANCH  18  22
ATOM      4  O   UNL     1      -6.323 -10.369  20.446  0.00  0.00    -0.274 OA
ATOM      8  N   UNL     1      -8.173 -10.338  19.081  0.00  0.00    -0.328 N 
ATOM     22  C   UNL     1      -6.931 -10.796  19.468  0.00  0.00    +0.228 C 
ATOM     23  H   UNL     1      -8.637  -9.595  19.593  0.00  0.00    +0.145 HD
ATOM     24  H   UNL     1      -8.670 -10.718  18.282  0.00  0.00    +0.145 HD
ENDBRANCH  18  22
ENDBRANCH   7  18
TORSDOF 4
ENDMDL
MODEL 3
REMARK VINA RESULT:      -5.5     33.019     34.263
REMARK  Name = 7675130
REMARK  7 active torsions:
REMARK  status: ('A' for Active; 'I' for Inactive)
REMARK    1  A    between atoms: N_7  and  C_18
REMARK    2  A    between atoms: C_15  and  C_16
REMARK    3  A    between atoms: C_15  and  C_19
REMARK    4  A    between atoms: C_15  and  C_20
REMARK    5  A    between atoms: C_15  and  C_21
REMARK    6  A    between atoms: C_16  and  C_17
REMARK    7  A    between atoms: C_18  and  C_22
REMARK                            x       y       z     vdW  Elec       q    Type
REMARK                         _______ _______ _______ _____ _____    ______ ____
ROOT
ATOM      1  O   UNL     1      18.840   8.786  22.280  0.00  0.00    -0.273 OA
ATOM      2  O   UNL     1      18.564   5.034  19.621  0.00  0.00    -0.252 OA
ATOM      3  O   UNL     1      12.530   8.345  20.118  0.00  0.00    -0.276 OA
ATOM      5  N   UNL     1      17.157   6.880  19.923  0.00  0.00    -0.271 N 
ATOM      6  N   UNL     1      14.700   7.857  20.791  0.00  0.00    -0.298 N 
ATOM      7  N   UNL     1      19.078   6.818  21.042  0.00  0.00    -0.215 N 
ATOM      9  C   UNL     1      17.140   8.107  20.690  0.00  0.00    +0.181 C 
ATOM     10  C   UNL     1      15.908   8.160  21.581  0.00  0.00    +0.139 C 
ATOM     11  C   UNL     1      15.981   6.515  19.154  0.00  0.00    +0.129 C 
ATOM     12  C   UNL     1      14.746   6.585  20.051  0.00  0.00    +0.127 C 
ATOM     13  C   UNL     1      18.448   7.976  21.453  0.00  0.00    +0.246 C 
ATOM     14  C   UNL     1      18.306   6.117  20.129  0.00  0.00    +0.312 C 
ATOM     17  C   UNL     1      13.549   8.642  20.748  0.00  0.00    +0.216 C 
ENDROOT
BRANCH  17  16
ATOM     16  C   UNL     1      13.582   9.931  21.530  0.00  0.00    +0.102 C 
BRANCH  16  15
ATOM     15  C   UNL     1      13.890  11.156  20.650  0.00  0.00    -0.029 C 
ATOM     19  C   UNL     1      12.647  12.044  20.480  0.00  0.00    +0.011 C 
ATOM     20  C   UNL     1      14.407  10.729  19.266  0.00  0.00    +0.011 C 
ATOM     21  C   UNL     1      14.988  11.977  21.352  0.00  0.00    +0.011 C 
ENDBRANCH  16  15
ENDBRANCH  17  16
BRANCH   7  18
ATOM     18  C   UNL     1      20.357   6.364  21.548  0.00  0.00    +0.213 C 
BRANCH  18  22
ATOM      4  O   UNL     1      21.874   7.387  19.961  0.00  0.00    -0.274 OA
ATOM      8  N   UNL     1      21.650   5.098  19.968  0.00  0.00    -0.328 N 
ATOM     22  C   UNL     1      21.377   6.367  20.433  0.00  0.00    +0.228 C 
ATOM     23  H   UNL     1      22.307   4.952  19.209  0.00  0.00    +0.145 HD
ATOM     24  H   UNL     1      21.212   4.269  20.356  0.00  0.00    +0.145 HD
ENDBRANCH  18  22
ENDBRANCH   7  18
TORSDOF 4
ENDMDL
MODEL 4
REMARK VINA RESULT:      -5.2     19.905     21.995
REMARK  Name = 7675130
REMARK  7 active torsions:
REMARK  status: ('A' for Active; 'I' for Inactive)
REMARK    1  A    between atoms: N_7  and  C_18
REMARK    2  A    between atoms: C_15  and  C_16
REMARK    3  A    between atoms: C_15  and  C_19
REMARK    4  A    between atoms: C_15  and  C_20
REMARK    5  A    between atoms: C_15  and  C_21
REMARK    6  A    between atoms: C_16  and  C_17
REMARK    7  A    between atoms: C_18  and  C_22
REMARK                            x       y       z     vdW  Elec       q    Type
REMARK                         _______ _______ _______ _____ _____    ______ ____
ROOT
ATOM      1  O   UNL     1      -5.330 -10.899  13.531  0.00  0.00    -0.273 OA
ATOM      2  O   UNL     1      -1.894 -10.830  16.599  0.00  0.00    -0.252 OA
ATOM      3  O   UNL     1      -8.099 -10.943  19.614  0.00  0.00    -0.276 OA
ATOM      5  N   UNL     1      -4.178 -11.315  16.774  0.00  0.00    -0.271 N 
ATOM      6  N   UNL     1      -6.663 -10.622  17.817  0.00  0.00    -0.298 N 
ATOM      7  N   UNL     1      -3.349 -10.825  14.769  0.00  0.00    -0.215 N 
ATOM      9  C   UNL     1      -5.331 -11.395  15.904  0.00  0.00    +0.181 C 
ATOM     10  C   UNL     1      -6.418 -10.439  16.374  0.00  0.00    +0.139 C 
ATOM     11  C   UNL     1      -4.366 -11.454  18.207  0.00  0.00    +0.129 C 
ATOM     12  C   UNL     1      -5.469 -10.502  18.669  0.00  0.00    +0.127 C 
ATOM     13  C   UNL     1      -4.703 -11.010  14.575  0.00  0.00    +0.246 C 
ATOM     14  C   UNL     1      -3.001 -10.980  16.102  0.00  0.00    +0.312 C 
ATOM     17  C   UNL     1      -7.911 -10.839  18.399  0.00  0.00    +0.216 C 
ENDROOT
BRANCH  17  16
ATOM     16  C   UNL     1      -9.084 -10.954  17.459  0.00  0.00    +0.102 C 
BRANCH  16  15
ATOM     15  C   UNL     1     -10.031  -9.742  17.533  0.00  0.00    -0.029 C 
ATOM     19  C   UNL     1      -9.249  -8.420  17.450  0.00  0.00    +0.011 C 
ATOM     20  C   UNL     1     -10.860  -9.765  18.828  0.00  0.00    +0.011 C 
ATOM     21  C   UNL     1     -10.992  -9.820  16.333  0.00  0.00    +0.011 C 
ENDBRANCH  16  15
ENDBRANCH  17  16
BRANCH   7  18
ATOM     18  C   UNL     1      -2.420 -10.455  13.721  0.00  0.00    +0.213 C 
BRANCH  18  22
ATOM      4  O   UNL     1      -1.407 -12.597  13.214  0.00  0.00    -0.274 OA
ATOM      8  N   UNL     1      -2.690 -11.566  11.608  0.00  0.00    -0.328 N 
ATOM     22  C   UNL     1      -2.118 -11.660  12.859  0.00  0.00    +0.228 C 
ATOM     23  H   UNL     1      -2.558 -12.298  10.919  0.00  0.00    +0.145 HD
ATOM     24  H   UNL     1      -3.257 -10.773  11.326  0.00  0.00    +0.145 HD
ENDBRANCH  18  22
ENDBRANCH   7  18
TORSDOF 4
ENDMDL
MODEL 5
REMARK VINA RESULT:      -5.2     31.889     33.185
REMARK  Name = 7675130
REMARK  7 active torsions:
REMARK  status: ('A' for Active; 'I' for Inactive)
REMARK    1  A    between atoms: N_7  and  C_18
REMARK    2  A    between atoms: C_15  and  C_16
REMARK    3  A    between atoms: C_15  and  C_19
REMARK    4  A    between atoms: C_15  and  C_20
REMARK    5  A    between atoms: C_15  and  C_21
REMARK    6  A    between atoms: C_16  and  C_17
REMARK    7  A    between atoms: C_18  and  C_22
REMARK                            x       y       z     vdW  Elec       q    Type
REMARK                         _______ _______ _______ _____ _____    ______ ____
ROOT
ATOM      1  O   UNL     1      18.105  10.234  21.408  0.00  0.00    -0.273 OA
ATOM      2  O   UNL     1      18.221   5.761  20.308  0.00  0.00    -0.252 OA
ATOM      3  O   UNL     1      11.818   8.331  20.173  0.00  0.00    -0.276 OA
ATOM      5  N   UNL     1      16.588   7.422  20.065  0.00  0.00    -0.271 N 
ATOM      6  N   UNL     1      14.065   8.369  20.761  0.00  0.00    -0.298 N 
ATOM      7  N   UNL     1      18.553   7.989  20.939  0.00  0.00    -0.215 N 
ATOM      9  C   UNL     1      16.439   8.834  20.340  0.00  0.00    +0.181 C 
ATOM     10  C   UNL     1      15.257   9.073  21.268  0.00  0.00    +0.139 C 
ATOM     11  C   UNL     1      15.436   6.671  19.596  0.00  0.00    +0.129 C 
ATOM     12  C   UNL     1      14.250   6.927  20.524  0.00  0.00    +0.127 C 
ATOM     13  C   UNL     1      17.789   9.138  20.968  0.00  0.00    +0.246 C 
ATOM     14  C   UNL     1      17.841   6.919  20.417  0.00  0.00    +0.312 C 
ATOM     17  C   UNL     1      12.815   8.950  20.553  0.00  0.00    +0.216 C 
ENDROOT
BRANCH  17  16
ATOM     16  C   UNL     1      12.708  10.431  20.815  0.00  0.00    +0.102 C 
BRANCH  16  15
ATOM     15  C   UNL     1      12.067  10.753  22.177  0.00  0.00    -0.029 C 
ATOM     19  C   UNL     1      13.137  11.091  23.229  0.00  0.00    +0.011 C 
ATOM     20  C   UNL     1      11.210   9.578  22.678  0.00  0.00    +0.011 C 
ATOM     21  C   UNL     1      11.156  11.981  21.992  0.00  0.00    +0.011 C 
ENDBRANCH  16  15
ENDBRANCH  17  16
BRANCH   7  18
ATOM     18  C   UNL     1      19.906   7.897  21.447  0.00  0.00    +0.213 C 
BRANCH  18  22
ATOM      4  O   UNL     1      19.925   6.294  23.263  0.00  0.00    -0.274 OA
ATOM      8  N   UNL     1      19.743   8.533  23.758  0.00  0.00    -0.328 N 
ATOM     22  C   UNL     1      19.879   7.466  22.895  0.00  0.00    +0.228 C 
ATOM     23  H   UNL     1      19.697   8.389  24.761  0.00  0.00    +0.145 HD
ATOM     24  H   UNL     1      19.685   9.493  23.433  0.00  0.00    +0.145 HD
ENDBRANCH  18  22
ENDBRANCH   7  18
TORSDOF 4
ENDMDL
MODEL 6
REMARK VINA RESULT:      -5.0     17.222     19.657
REMARK  Name = 7675130
REMARK  7 active torsions:
REMARK  status: ('A' for Active; 'I' for Inactive)
REMARK    1  A    between atoms: N_7  and  C_18
REMARK    2  A    between atoms: C_15  and  C_16
REMARK    3  A    between atoms: C_15  and  C_19
REMARK    4  A    between atoms: C_15  and  C_20
REMARK    5  A    between atoms: C_15  and  C_21
REMARK    6  A    between atoms: C_16  and  C_17
REMARK    7  A    between atoms: C_18  and  C_22
REMARK                            x       y       z     vdW  Elec       q    Type
REMARK                         _______ _______ _______ _____ _____    ______ ____
ROOT
ATOM      1  O   UNL     1      -6.550  -9.714  16.024  0.00  0.00    -0.273 OA
ATOM      2  O   UNL     1      -7.087 -11.477  20.247  0.00  0.00    -0.252 OA
ATOM      3  O   UNL     1     -13.018  -9.134  17.610  0.00  0.00    -0.276 OA
ATOM      5  N   UNL     1      -8.599 -10.917  18.549  0.00  0.00    -0.271 N 
ATOM      6  N   UNL     1     -10.703  -9.305  17.701  0.00  0.00    -0.298 N 
ATOM      7  N   UNL     1      -6.425 -10.647  18.163  0.00  0.00    -0.215 N 
ATOM      9  C   UNL     1      -8.558 -10.392  17.201  0.00  0.00    +0.181 C 
ATOM     10  C   UNL     1      -9.367  -9.107  17.108  0.00  0.00    +0.139 C 
ATOM     11  C   UNL     1      -9.886 -11.100  19.194  0.00  0.00    +0.129 C 
ATOM     12  C   UNL     1     -10.698  -9.810  19.084  0.00  0.00    +0.127 C 
ATOM     13  C   UNL     1      -7.062 -10.194  17.026  0.00  0.00    +0.246 C 
ATOM     14  C   UNL     1      -7.335 -11.072  19.120  0.00  0.00    +0.312 C 
ATOM     17  C   UNL     1     -11.912  -9.005  17.077  0.00  0.00    +0.216 C 
ENDROOT
BRANCH  17  16
ATOM     16  C   UNL     1     -11.832  -8.495  15.660  0.00  0.00    +0.102 C 
BRANCH  16  15
ATOM     15  C   UNL     1     -12.253  -7.020  15.530  0.00  0.00    -0.029 C 
ATOM     19  C   UNL     1     -11.382  -6.113  16.416  0.00  0.00    +0.011 C 
ATOM     20  C   UNL     1     -13.733  -6.831  15.904  0.00  0.00    +0.011 C 
ATOM     21  C   UNL     1     -12.061  -6.601  14.061  0.00  0.00    +0.011 C 
ENDBRANCH  16  15
ENDBRANCH  17  16
BRANCH   7  18
ATOM     18  C   UNL     1      -4.990 -10.624  18.357  0.00  0.00    +0.213 C 
BRANCH  18  22
ATOM      4  O   UNL     1      -4.793 -12.841  17.400  0.00  0.00    -0.274 OA
ATOM      8  N   UNL     1      -3.529 -12.311  19.246  0.00  0.00    -0.328 N 
ATOM     22  C   UNL     1      -4.439 -12.028  18.250  0.00  0.00    +0.228 C 
ATOM     23  H   UNL     1      -3.088 -13.223  19.305  0.00  0.00    +0.145 HD
ATOM     24  H   UNL     1      -3.264 -11.633  19.953  0.00  0.00    +0.145 HD
ENDBRANCH  18  22
ENDBRANCH   7  18
TORSDOF 4
ENDMDL
MODEL 7
REMARK VINA RESULT:      -5.0     20.914     22.953
REMARK  Name = 7675130
REMARK  7 active torsions:
REMARK  status: ('A' for Active; 'I' for Inactive)
REMARK    1  A    between atoms: N_7  and  C_18
REMARK    2  A    between atoms: C_15  and  C_16
REMARK    3  A    between atoms: C_15  and  C_19
REMARK    4  A    between atoms: C_15  and  C_20
REMARK    5  A    between atoms: C_15  and  C_21
REMARK    6  A    between atoms: C_16  and  C_17
REMARK    7  A    between atoms: C_18  and  C_22
REMARK                            x       y       z     vdW  Elec       q    Type
REMARK                         _______ _______ _______ _____ _____    ______ ____
ROOT
ATOM      1  O   UNL     1      -6.672  -9.488  12.986  0.00  0.00    -0.273 OA
ATOM      2  O   UNL     1      -2.280 -10.713  12.319  0.00  0.00    -0.252 OA
ATOM      3  O   UNL     1      -4.245 -11.473  18.890  0.00  0.00    -0.276 OA
ATOM      5  N   UNL     1      -3.789 -11.081  14.070  0.00  0.00    -0.271 N 
ATOM      6  N   UNL     1      -4.467 -10.639  16.733  0.00  0.00    -0.298 N 
ATOM      7  N   UNL     1      -4.500  -9.977  12.275  0.00  0.00    -0.215 N 
ATOM      9  C   UNL     1      -5.169 -10.779  14.384  0.00  0.00    +0.181 C 
ATOM     10  C   UNL     1      -5.257  -9.980  15.676  0.00  0.00    +0.139 C 
ATOM     11  C   UNL     1      -2.956 -11.699  15.086  0.00  0.00    +0.129 C 
ATOM     12  C   UNL     1      -3.060 -10.900  16.384  0.00  0.00    +0.127 C 
ATOM     13  C   UNL     1      -5.570  -9.996  13.146  0.00  0.00    +0.246 C 
ATOM     14  C   UNL     1      -3.392 -10.609  12.819  0.00  0.00    +0.312 C 
ATOM     17  C   UNL     1      -4.937 -10.965  18.004  0.00  0.00    +0.216 C 
ENDROOT
BRANCH  17  16
ATOM     16  C   UNL     1      -6.389 -10.669  18.282  0.00  0.00    +0.102 C 
BRANCH  16  15
ATOM     15  C   UNL     1      -7.270 -11.932  18.273  0.00  0.00    -0.029 C 
ATOM     19  C   UNL     1      -7.536 -12.434  19.702  0.00  0.00    +0.011 C 
ATOM     20  C   UNL     1      -6.619 -13.056  17.449  0.00  0.00    +0.011 C 
ATOM     21  C   UNL     1      -8.617 -11.564  17.624  0.00  0.00    +0.011 C 
ENDBRANCH  16  15
ENDBRANCH  17  16
BRANCH   7  18
ATOM     18  C   UNL     1      -4.513  -9.326  10.981  0.00  0.00    +0.213 C 
BRANCH  18  22
ATOM      4  O   UNL     1      -4.172 -10.891   9.164  0.00  0.00    -0.274 OA
ATOM      8  N   UNL     1      -6.319 -10.444   9.859  0.00  0.00    -0.328 N 
ATOM     22  C   UNL     1      -4.948 -10.309   9.920  0.00  0.00    +0.228 C 
ATOM     23  H   UNL     1      -6.752 -11.063   9.182  0.00  0.00    +0.145 HD
ATOM     24  H   UNL     1      -6.945  -9.939  10.478  0.00  0.00    +0.145 HD
ENDBRANCH  18  22
ENDBRANCH   7  18
TORSDOF 4
ENDMDL
MODEL 8
REMARK VINA RESULT:      -5.0     36.233     38.854
REMARK  Name = 7675130
REMARK  7 active torsions:
REMARK  status: ('A' for Active; 'I' for Inactive)
REMARK    1  A    between atoms: N_7  and  C_18
REMARK    2  A    between atoms: C_15  and  C_16
REMARK    3  A    between atoms: C_15  and  C_19
REMARK    4  A    between atoms: C_15  and  C_20
REMARK    5  A    between atoms: C_15  and  C_21
REMARK    6  A    between atoms: C_16  and  C_17
REMARK    7  A    between atoms: C_18  and  C_22
REMARK                            x       y       z     vdW  Elec       q    Type
REMARK                         _______ _______ _______ _____ _____    ______ ____
ROOT
ATOM      1  O   UNL     1       9.417   4.715  -0.322  0.00  0.00    -0.273 OA
ATOM      2  O   UNL     1      13.900   3.893  -0.996  0.00  0.00    -0.252 OA
ATOM      3  O   UNL     1      12.696   7.124   4.981  0.00  0.00    -0.276 OA
ATOM      5  N   UNL     1      12.658   4.504   0.892  0.00  0.00    -0.271 N 
ATOM      6  N   UNL     1      12.120   6.411   2.847  0.00  0.00    -0.298 N 
ATOM      7  N   UNL     1      11.578   4.163  -1.022  0.00  0.00    -0.215 N 
ATOM      9  C   UNL     1      11.276   4.762   1.234  0.00  0.00    +0.181 C 
ATOM     10  C   UNL     1      11.121   6.171   1.789  0.00  0.00    +0.139 C 
ATOM     11  C   UNL     1      13.687   4.755   1.885  0.00  0.00    +0.129 C 
ATOM     12  C   UNL     1      13.516   6.165   2.448  0.00  0.00    +0.127 C 
ATOM     13  C   UNL     1      10.612   4.555  -0.117  0.00  0.00    +0.246 C 
ATOM     14  C   UNL     1      12.838   4.146  -0.444  0.00  0.00    +0.312 C 
ATOM     17  C   UNL     1      11.839   6.885   4.127  0.00  0.00    +0.216 C 
ENDROOT
BRANCH  17  16
ATOM     16  C   UNL     1      10.385   7.108   4.459  0.00  0.00    +0.102 C 
BRANCH  16  15
ATOM     15  C   UNL     1       9.825   6.052   5.429  0.00  0.00    -0.029 C 
ATOM     19  C   UNL     1      10.363   6.265   6.853  0.00  0.00    +0.011 C 
ATOM     20  C   UNL     1      10.169   4.629   4.960  0.00  0.00    +0.011 C 
ATOM     21  C   UNL     1       8.292   6.203   5.457  0.00  0.00    +0.011 C 
ENDBRANCH  16  15
ENDBRANCH  17  16
BRANCH   7  18
ATOM     18  C   UNL     1      11.315   3.867  -2.416  0.00  0.00    +0.213 C 
BRANCH  18  22
ATOM      4  O   UNL     1       9.878   1.954  -2.790  0.00  0.00    -0.274 OA
ATOM      8  N   UNL     1      12.117   1.603  -2.400  0.00  0.00    -0.328 N 
ATOM     22  C   UNL     1      11.004   2.397  -2.575  0.00  0.00    +0.228 C 
ATOM     23  H   UNL     1      12.051   0.593  -2.465  0.00  0.00    +0.145 HD
ATOM     24  H   UNL     1      13.036   1.987  -2.201  0.00  0.00    +0.145 HD
ENDBRANCH  18  22
ENDBRANCH   7  18
TORSDOF 4
ENDMDL
MODEL 9
REMARK VINA RESULT:      -4.7     34.883     37.343
REMARK  Name = 7675130
REMARK  7 active torsions:
REMARK  status: ('A' for Active; 'I' for Inactive)
REMARK    1  A    between atoms: N_7  and  C_18
REMARK    2  A    between atoms: C_15  and  C_16
REMARK    3  A    between atoms: C_15  and  C_19
REMARK    4  A    between atoms: C_15  and  C_20
REMARK    5  A    between atoms: C_15  and  C_21
REMARK    6  A    between atoms: C_16  and  C_17
REMARK    7  A    between atoms: C_18  and  C_22
REMARK                            x       y       z     vdW  Elec       q    Type
REMARK                         _______ _______ _______ _____ _____    ______ ____
ROOT
ATOM      1  O   UNL     1      14.328   6.789   3.568  0.00  0.00    -0.273 OA
ATOM      2  O   UNL     1      10.959   5.034   0.961  0.00  0.00    -0.252 OA
ATOM      3  O   UNL     1       8.595   7.630   6.901  0.00  0.00    -0.276 OA
ATOM      5  N   UNL     1      10.959   6.449   2.825  0.00  0.00    -0.271 N 
ATOM      6  N   UNL     1      10.264   6.837   5.492  0.00  0.00    -0.298 N 
ATOM      7  N   UNL     1      12.914   5.782   2.003  0.00  0.00    -0.215 N 
ATOM      9  C   UNL     1      11.925   7.079   3.699  0.00  0.00    +0.181 C 
ATOM     10  C   UNL     1      11.686   6.661   5.143  0.00  0.00    +0.139 C 
ATOM     11  C   UNL     1       9.546   6.562   3.141  0.00  0.00    +0.129 C 
ATOM     12  C   UNL     1       9.316   6.155   4.596  0.00  0.00    +0.127 C 
ATOM     13  C   UNL     1      13.220   6.548   3.109  0.00  0.00    +0.246 C 
ATOM     14  C   UNL     1      11.544   5.682   1.818  0.00  0.00    +0.312 C 
ATOM     17  C   UNL     1       9.789   7.536   6.601  0.00  0.00    +0.216 C 
ENDROOT
BRANCH  17  16
ATOM     16  C   UNL     1      10.822   8.209   7.468  0.00  0.00    +0.102 C 
BRANCH  16  15
ATOM     15  C   UNL     1      10.752   9.746   7.397  0.00  0.00    -0.029 C 
ATOM     19  C   UNL     1       9.804  10.309   8.469  0.00  0.00    +0.011 C 
ATOM     20  C   UNL     1      10.291  10.217   6.008  0.00  0.00    +0.011 C 
ATOM     21  C   UNL     1      12.167  10.295   7.657  0.00  0.00    +0.011 C 
ENDBRANCH  16  15
ENDBRANCH  17  16
BRANCH   7  18
ATOM     18  C   UNL     1      13.900   5.115   1.177  0.00  0.00    +0.213 C 
BRANCH  18  22
ATOM      4  O   UNL     1      13.306   2.828   1.713  0.00  0.00    -0.274 OA
ATOM      8  N   UNL     1      15.418   3.579   2.228  0.00  0.00    -0.328 N 
ATOM     22  C   UNL     1      14.150   3.721   1.706  0.00  0.00    +0.228 C 
ATOM     23  H   UNL     1      15.718   2.698   2.632  0.00  0.00    +0.145 HD
ATOM     24  H   UNL     1      16.094   4.335   2.233  0.00  0.00    +0.145 HD
ENDBRANCH  18  22
ENDBRANCH   7  18
TORSDOF 4
ENDMDL
MODEL 10
REMARK VINA RESULT:      -4.7     21.996     24.139
REMARK  Name = 7675130
REMARK  7 active torsions:
REMARK  status: ('A' for Active; 'I' for Inactive)
REMARK    1  A    between atoms: N_7  and  C_18
REMARK    2  A    between atoms: C_15  and  C_16
REMARK    3  A    between atoms: C_15  and  C_19
REMARK    4  A    between atoms: C_15  and  C_20
REMARK    5  A    between atoms: C_15  and  C_21
REMARK    6  A    between atoms: C_16  and  C_17
REMARK    7  A    between atoms: C_18  and  C_22
REMARK                            x       y       z     vdW  Elec       q    Type
REMARK                         _______ _______ _______ _____ _____    ______ ____
ROOT
ATOM      1  O   UNL     1      -7.243 -10.811  12.285  0.00  0.00    -0.273 OA
ATOM      2  O   UNL     1      -3.527 -12.081   9.875  0.00  0.00    -0.252 OA
ATOM      3  O   UNL     1      -2.066 -10.891  16.513  0.00  0.00    -0.276 OA
ATOM      5  N   UNL     1      -3.969 -11.944  12.170  0.00  0.00    -0.271 N 
ATOM      6  N   UNL     1      -3.397 -10.743  14.615  0.00  0.00    -0.298 N 
ATOM      7  N   UNL     1      -5.601 -11.441  10.746  0.00  0.00    -0.215 N 
ATOM      9  C   UNL     1      -5.074 -11.593  13.035  0.00  0.00    +0.181 C 
ATOM     10  C   UNL     1      -4.684 -10.447  13.957  0.00  0.00    +0.139 C 
ATOM     11  C   UNL     1      -2.670 -12.212  12.762  0.00  0.00    +0.129 C 
ATOM     12  C   UNL     1      -2.291 -11.065  13.698  0.00  0.00    +0.127 C 
ATOM     13  C   UNL     1      -6.127 -11.224  12.004  0.00  0.00    +0.246 C 
ATOM     14  C   UNL     1      -4.280 -11.858  10.813  0.00  0.00    +0.312 C 
ATOM     17  C   UNL     1      -3.164 -10.686  15.988  0.00  0.00    +0.216 C 
ENDROOT
BRANCH  17  16
ATOM     16  C   UNL     1      -4.348 -10.353  16.860  0.00  0.00    +0.102 C 
BRANCH  16  15
ATOM     15  C   UNL     1      -4.930 -11.586  17.575  0.00  0.00    -0.029 C 
ATOM     19  C   UNL     1      -4.789 -12.849  16.708  0.00  0.00    +0.011 C 
ATOM     20  C   UNL     1      -6.411 -11.374  17.932  0.00  0.00    +0.011 C 
ATOM     21  C   UNL     1      -4.136 -11.795  18.878  0.00  0.00    +0.011 C 
ENDBRANCH  16  15
ENDBRANCH  17  16
BRANCH   7  18
ATOM     18  C   UNL     1      -6.320 -11.206   9.511  0.00  0.00    +0.213 C 
BRANCH  18  22
ATOM      4  O   UNL     1      -5.207  -9.436   8.287  0.00  0.00    -0.274 OA
ATOM      8  N   UNL     1      -6.984  -8.901   9.646  0.00  0.00    -0.328 N 
ATOM     22  C   UNL     1      -6.100  -9.781   9.058  0.00  0.00    +0.228 C 
ATOM     23  H   UNL     1      -6.943  -7.908   9.442  0.00  0.00    +0.145 HD
ATOM     24  H   UNL     1      -7.702  -9.202  10.297  0.00  0.00    +0.145 HD
ENDBRANCH  18  22
ENDBRANCH   7  18
TORSDOF 4
ENDMDL
