REMARK  Name = 11913101
REMARK  7 active torsions:
REMARK  status: ('A' for Active; 'I' for Inactive)
REMARK    1  A    between atoms: O_3  and  C_15
REMARK    2  A    between atoms: O_3  and  C_19
REMARK    3  A    between atoms: O_7  and  C_34
REMARK    4  A    between atoms: O_7  and  C_36
REMARK    5  A    between atoms: N_8  and  C_14
REMARK    6  A    between atoms: N_11  and  C_23
REMARK    7  A    between atoms: C_20  and  C_24
REMARK                            x       y       z     vdW  Elec       q    Type
REMARK                         _______ _______ _______ _____ _____    ______ ____
ROOT
ATOM      1  O   UNL     1      -0.496   2.432  -1.215  0.00  0.00    -0.368 OA
ATOM      2  O   UNL     1      -2.087  -0.097  -1.911  0.00  0.00    -0.368 OA
ATOM     12  C   UNL     1      -2.003   0.676  -0.696  0.00  0.00    +0.173 C 
ATOM     13  C   UNL     1      -0.568   1.148  -0.575  0.00  0.00    +0.192 C 
ATOM     14  C   UNL     1      -2.796   1.954  -0.840  0.00  0.00    +0.130 C 
ATOM     15  C   UNL     1       0.190   0.095  -1.347  0.00  0.00    +0.235 C 
ATOM     16  C   UNL     1      -1.821   2.861  -1.568  0.00  0.00    +0.185 C 
ATOM     17  C   UNL     1      -0.771  -0.230  -2.469  0.00  0.00    +0.207 C 
ENDROOT
BRANCH  14   8
ATOM      8  N   UNL     1      -3.112   2.498   0.464  0.00  0.00    -0.306 N 
ATOM      9  N   UNL     1      -5.010   1.175   0.662  0.00  0.00    -0.214 NA
ATOM     10  N   UNL     1      -4.368   2.708   2.406  0.00  0.00    -0.223 NA
ATOM     18  C   UNL     1      -4.211   2.110   1.210  0.00  0.00    +0.216 A 
ATOM     20  C   UNL     1      -6.072   0.821   1.415  0.00  0.00    +0.076 A 
ATOM     21  C   UNL     1      -5.449   2.307   3.106  0.00  0.00    +0.116 A 
ATOM     22  C   UNL     1      -6.344   1.358   2.657  0.00  0.00    +0.048 A 
ATOM     42  H   UNL     1      -2.478   3.163   0.892  0.00  0.00    +0.149 HD
BRANCH  20  24
ATOM      5  O   UNL     1      -6.944  -3.633  -0.415  0.00  0.00    -0.453 OA
ATOM      6  O   UNL     1      -9.262  -3.122  -0.833  0.00  0.00    -0.453 OA
ATOM     24  C   UNL     1      -6.930  -0.182   0.832  0.00  0.00    +0.004 A 
ATOM     27  C   UNL     1      -6.411  -1.440   0.514  0.00  0.00    +0.059 A 
ATOM     28  C   UNL     1      -8.283   0.116   0.588  0.00  0.00    +0.014 A 
ATOM     29  C   UNL     1      -7.270  -2.365  -0.042  0.00  0.00    +0.167 A 
ATOM     30  C   UNL     1      -9.131  -0.840   0.024  0.00  0.00    +0.050 A 
ATOM     31  C   UNL     1      -8.593  -2.074  -0.281  0.00  0.00    +0.166 A 
ATOM     35  C   UNL     1      -8.212  -4.107  -0.915  0.00  0.00    +0.466 C 
ENDBRANCH  20  24
ENDBRANCH  14   8
BRANCH  15   3
ATOM      3  O   UNL     1       1.437   0.539  -1.830  0.00  0.00    -0.442 OA
BRANCH   3  19
ATOM      4  O   UNL     1       2.458  -0.276   0.047  0.00  0.00    -0.226 OA
ATOM     11  N   UNL     1       3.671   0.791  -1.647  0.00  0.00    -0.251 N 
ATOM     19  C   UNL     1       2.537   0.297  -1.033  0.00  0.00    +0.405 C 
ATOM     43  H   UNL     1       3.535   1.237  -2.551  0.00  0.00    +0.158 HD
BRANCH  11  23
ATOM     23  C   UNL     1       5.003   0.752  -1.175  0.00  0.00    +0.037 A 
ATOM     25  C   UNL     1       5.291   0.161   0.055  0.00  0.00    +0.027 A 
ATOM     26  C   UNL     1       6.030   1.307  -1.940  0.00  0.00    +0.027 A 
ATOM     32  C   UNL     1       6.605   0.125   0.521  0.00  0.00    +0.048 A 
ATOM     33  C   UNL     1       7.344   1.271  -1.473  0.00  0.00    +0.048 A 
ATOM     34  C   UNL     1       7.631   0.680  -0.243  0.00  0.00    +0.129 A 
BRANCH  34   7
ATOM      7  O   UNL     1       8.913   0.646   0.213  0.00  0.00    -0.456 OA
BRANCH   7  36
ATOM     36  C   UNL     1       9.375  -0.545   0.749  0.00  0.00    +0.128 A 
ATOM     37  C   UNL     1       9.117  -1.750   0.096  0.00  0.00    +0.046 A 
ATOM     38  C   UNL     1      10.097  -0.538   1.942  0.00  0.00    +0.046 A 
ATOM     39  C   UNL     1       9.581  -2.949   0.637  0.00  0.00    +0.004 A 
ATOM     40  C   UNL     1      10.561  -1.737   2.483  0.00  0.00    +0.004 A 
ATOM     41  C   UNL     1      10.303  -2.943   1.830  0.00  0.00    +0.000 A 
ENDBRANCH   7  36
ENDBRANCH  34   7
ENDBRANCH  11  23
ENDBRANCH   3  19
ENDBRANCH  15   3
TORSDOF 7
