REMARK  Name = 7144102
REMARK  7 active torsions:
REMARK  status: ('A' for Active; 'I' for Inactive)
REMARK    1  A    between atoms: O_3  and  C_21
REMARK    2  A    between atoms: O_3  and  C_27
REMARK    3  A    between atoms: O_4  and  C_26
REMARK    4  A    between atoms: O_4  and  C_28
REMARK    5  A    between atoms: C_14  and  C_19
REMARK    6  A    between atoms: C_16  and  C_20
REMARK    7  A    between atoms: C_20  and  C_21
REMARK                            x       y       z     vdW  Elec       q    Type
REMARK                         _______ _______ _______ _____ _____    ______ ____
ROOT
ATOM      1  O   UNL     1      -2.492   2.780   2.181  0.00  0.00    -0.268 OA
ATOM      2  O   UNL     1      -3.888  -1.212  -0.958  0.00  0.00    -0.276 OA
ATOM      5  N   UNL     1      -1.887  -0.295  -1.700  0.00  0.00    -0.300 N 
ATOM      6  N   UNL     1      -1.166   1.948   0.439  0.00  0.00    -0.311 N 
ATOM      7  C   UNL     1      -1.878   2.176  -2.013  0.00  0.00    +0.027 C 
ATOM      8  C   UNL     1       0.214   1.016  -1.445  0.00  0.00    +0.054 C 
ATOM      9  C   UNL     1      -0.385   2.132  -2.300  0.00  0.00    +0.018 C 
ATOM     10  C   UNL     1      -2.541   0.833  -2.363  0.00  0.00    +0.113 C 
ATOM     11  C   UNL     1      -2.079   2.548  -0.544  0.00  0.00    +0.130 C 
ATOM     12  C   UNL     1      -0.425  -0.332  -1.839  0.00  0.00    +0.117 C 
ATOM     13  C   UNL     1       0.013   1.281   0.050  0.00  0.00    +0.034 A 
ATOM     14  C   UNL     1       0.903   0.876   0.992  0.00  0.00    +0.002 A 
ATOM     15  C   UNL     1      -1.485   2.191   1.787  0.00  0.00    +0.252 A 
ATOM     16  C   UNL     1      -2.660  -1.265  -1.063  0.00  0.00    +0.218 C 
ATOM     17  C   UNL     1       0.606   1.105   2.393  0.00  0.00    +0.015 A 
ATOM     18  C   UNL     1      -0.514   1.707   2.794  0.00  0.00    +0.071 A 
ENDROOT
BRANCH  14  19
ATOM     19  C   UNL     1       2.162   0.188   0.631  0.00  0.00    -0.016 A 
ATOM     22  C   UNL     1       2.185  -1.198   0.516  0.00  0.00    +0.012 A 
ATOM     23  C   UNL     1       3.316   0.934   0.407  0.00  0.00    +0.012 A 
ATOM     24  C   UNL     1       3.372  -1.846   0.175  0.00  0.00    +0.046 A 
ATOM     25  C   UNL     1       4.503   0.287   0.066  0.00  0.00    +0.046 A 
ATOM     26  C   UNL     1       4.532  -1.103  -0.050  0.00  0.00    +0.120 A 
BRANCH  26   4
ATOM      4  O   UNL     1       5.690  -1.735  -0.384  0.00  0.00    -0.495 OA
ATOM     28  C   UNL     1       6.838  -0.916  -0.600  0.00  0.00    +0.277 C 
ENDBRANCH  26   4
ENDBRANCH  14  19
BRANCH  16  20
ATOM     20  C   UNL     1      -1.919  -2.435  -0.466  0.00  0.00    +0.124 C 
BRANCH  20  21
ATOM     21  C   UNL     1      -2.906  -3.382   0.181  0.00  0.00    +0.168 C 
BRANCH  21   3
ATOM      3  O   UNL     1      -3.590  -2.712   1.232  0.00  0.00    -0.382 OA
ATOM     27  C   UNL     1      -4.517  -3.571   1.881  0.00  0.00    +0.194 C 
ENDBRANCH  21   3
ENDBRANCH  20  21
ENDBRANCH  16  20
TORSDOF 5
