MODEL 1
REMARK VINA RESULT:      -7.4      0.000      0.000
REMARK  Name = 75536274
REMARK  11 active torsions:
REMARK  status: ('A' for Active; 'I' for Inactive)
REMARK    1  A    between atoms: O_2  and  C_11
REMARK    2  A    between atoms: O_5  and  C_20
REMARK    3  A    between atoms: O_5  and  C_22
REMARK    4  A    between atoms: O_6  and  C_21
REMARK    5  A    between atoms: O_6  and  C_23
REMARK    6  A    between atoms: N_7  and  C_15
REMARK    7  A    between atoms: C_9  and  C_15
REMARK    8  A    between atoms: C_10  and  C_14
REMARK    9  A    between atoms: C_14  and  C_16
REMARK   10  A    between atoms: C_18  and  C_20
REMARK   11  A    between atoms: C_19  and  C_21
REMARK                            x       y       z     vdW  Elec       q    Type
REMARK                         _______ _______ _______ _____ _____    ______ ____
ROOT
ATOM      1  O   UNL     1      10.624   8.115  19.835  0.00  0.00    -0.369 OA
ATOM      9  C   UNL     1      10.860   7.824  21.219  0.00  0.00    +0.164 C 
ATOM     10  C   UNL     1      11.799   8.260  19.035  0.00  0.00    +0.125 C 
ATOM     11  C   UNL     1      11.732   6.573  21.386  0.00  0.00    +0.145 C 
ATOM     12  C   UNL     1      12.643   6.988  19.080  0.00  0.00    +0.034 C 
ATOM     13  C   UNL     1      12.988   6.621  20.520  0.00  0.00    +0.036 C 
ENDROOT
BRANCH  11   2
ATOM      2  O   UNL     1      10.974   5.427  20.993  0.00  0.00    -0.389 OA
ATOM     29  H   UNL     1      10.144   5.745  20.597  0.00  0.00    +0.210 HD
ENDBRANCH  11   2
BRANCH  10  14
ATOM     14  C   UNL     1      11.350   8.565  17.611  0.00  0.00    +0.090 C 
BRANCH  14  16
ATOM      3  O   UNL     1      13.677   9.663  15.087  0.00  0.00    -0.357 OA
ATOM      8  N   UNL     1      12.600   8.898  15.518  0.00  0.00    -0.083 NA
ATOM     16  C   UNL     1      12.445   9.212  16.807  0.00  0.00    +0.086 A 
ATOM     17  C   UNL     1      13.387  10.162  17.241  0.00  0.00    +0.073 A 
ATOM     19  C   UNL     1      14.137  10.412  16.121  0.00  0.00    +0.163 A 
BRANCH  19  21
ATOM     21  C   UNL     1      15.282  11.286  15.840  0.00  0.00    +0.236 C 
BRANCH  21   6
ATOM      6  O   UNL     1      14.933  12.652  16.078  0.00  0.00    -0.375 OA
ATOM     23  C   UNL     1      14.171  13.182  15.006  0.00  0.00    +0.194 C 
ENDBRANCH  21   6
ENDBRANCH  19  21
ENDBRANCH  14  16
ENDBRANCH  10  14
BRANCH   9  15
ATOM     15  C   UNL     1      11.418   9.044  21.949  0.00  0.00    +0.138 C 
BRANCH  15   7
ATOM      4  O   UNL     1      13.690  10.565  21.007  0.00  0.00    -0.272 OA
ATOM      7  N   UNL     1      12.793   8.849  22.298  0.00  0.00    -0.310 N 
ATOM     18  C   UNL     1      13.829   9.633  21.794  0.00  0.00    +0.251 C 
ATOM     30  H   UNL     1      13.019   8.075  22.916  0.00  0.00    +0.149 HD
BRANCH  18  20
ATOM     20  C   UNL     1      15.178   9.207  22.331  0.00  0.00    +0.324 C 
BRANCH  20   5
ATOM      5  O   UNL     1      16.192   9.444  21.376  0.00  0.00    -0.483 OA
BRANCH   5  22
ATOM     22  C   UNL     1      16.930   8.360  20.962  0.00  0.00    +0.121 A 
ATOM     24  C   UNL     1      18.213   8.156  21.467  0.00  0.00    +0.045 A 
ATOM     25  C   UNL     1      16.394   7.466  20.036  0.00  0.00    +0.045 A 
ATOM     26  C   UNL     1      18.962   7.057  21.047  0.00  0.00    +0.004 A 
ATOM     27  C   UNL     1      17.143   6.366  19.615  0.00  0.00    +0.004 A 
ATOM     28  C   UNL     1      18.427   6.162  20.120  0.00  0.00    +0.000 A 
ENDBRANCH   5  22
ENDBRANCH  20   5
ENDBRANCH  18  20
ENDBRANCH  15   7
ENDBRANCH   9  15
TORSDOF 10
ENDMDL
MODEL 2
REMARK VINA RESULT:      -6.5      3.329      5.503
REMARK  Name = 75536274
REMARK  11 active torsions:
REMARK  status: ('A' for Active; 'I' for Inactive)
REMARK    1  A    between atoms: O_2  and  C_11
REMARK    2  A    between atoms: O_5  and  C_20
REMARK    3  A    between atoms: O_5  and  C_22
REMARK    4  A    between atoms: O_6  and  C_21
REMARK    5  A    between atoms: O_6  and  C_23
REMARK    6  A    between atoms: N_7  and  C_15
REMARK    7  A    between atoms: C_9  and  C_15
REMARK    8  A    between atoms: C_10  and  C_14
REMARK    9  A    between atoms: C_14  and  C_16
REMARK   10  A    between atoms: C_18  and  C_20
REMARK   11  A    between atoms: C_19  and  C_21
REMARK                            x       y       z     vdW  Elec       q    Type
REMARK                         _______ _______ _______ _____ _____    ______ ____
ROOT
ATOM      1  O   UNL     1      12.643   7.768  21.748  0.00  0.00    -0.369 OA
ATOM      9  C   UNL     1      13.537   7.355  20.706  0.00  0.00    +0.164 C 
ATOM     10  C   UNL     1      11.814   8.888  21.429  0.00  0.00    +0.125 C 
ATOM     11  C   UNL     1      12.780   7.058  19.406  0.00  0.00    +0.145 C 
ATOM     12  C   UNL     1      10.953   8.591  20.203  0.00  0.00    +0.034 C 
ATOM     13  C   UNL     1      11.825   8.185  19.019  0.00  0.00    +0.036 C 
ENDROOT
BRANCH  11   2
ATOM      2  O   UNL     1      12.004   5.871  19.585  0.00  0.00    -0.389 OA
ATOM     29  H   UNL     1      12.500   5.283  20.182  0.00  0.00    +0.210 HD
ENDBRANCH  11   2
BRANCH  10  14
ATOM     14  C   UNL     1      10.944   9.176  22.647  0.00  0.00    +0.090 C 
BRANCH  14  16
ATOM      3  O   UNL     1      11.130  12.314  24.411  0.00  0.00    -0.357 OA
ATOM      8  N   UNL     1      11.023  10.929  24.372  0.00  0.00    -0.083 NA
ATOM     16  C   UNL     1      11.041  10.617  23.073  0.00  0.00    +0.086 A 
ATOM     17  C   UNL     1      11.156  11.753  22.253  0.00  0.00    +0.073 A 
ATOM     19  C   UNL     1      11.209  12.793  23.144  0.00  0.00    +0.163 A 
BRANCH  19  21
ATOM     21  C   UNL     1      11.327  14.249  22.999  0.00  0.00    +0.236 C 
BRANCH  21   6
ATOM      6  O   UNL     1      10.224  14.764  22.249  0.00  0.00    -0.375 OA
ATOM     23  C   UNL     1       9.050  14.829  23.042  0.00  0.00    +0.194 C 
ENDBRANCH  21   6
ENDBRANCH  19  21
ENDBRANCH  14  16
ENDBRANCH  10  14
BRANCH   9  15
ATOM     15  C   UNL     1      14.669   8.364  20.522  0.00  0.00    +0.138 C 
BRANCH  15   7
ATOM      4  O   UNL     1      16.674   6.680  19.295  0.00  0.00    -0.272 OA
ATOM      7  N   UNL     1      15.881   7.889  21.117  0.00  0.00    -0.310 N 
ATOM     18  C   UNL     1      16.796   7.077  20.450  0.00  0.00    +0.251 C 
ATOM     30  H   UNL     1      16.058   8.132  22.088  0.00  0.00    +0.149 HD
BRANCH  18  20
ATOM     20  C   UNL     1      17.986   6.727  21.317  0.00  0.00    +0.324 C 
BRANCH  20   5
ATOM      5  O   UNL     1      19.131   6.497  20.523  0.00  0.00    -0.483 OA
BRANCH   5  22
ATOM     22  C   UNL     1      20.144   5.754  21.081  0.00  0.00    +0.121 A 
ATOM     24  C   UNL     1      20.740   6.170  22.270  0.00  0.00    +0.045 A 
ATOM     25  C   UNL     1      20.574   4.584  20.456  0.00  0.00    +0.045 A 
ATOM     26  C   UNL     1      21.768   5.416  22.837  0.00  0.00    +0.004 A 
ATOM     27  C   UNL     1      21.602   3.829  21.023  0.00  0.00    +0.004 A 
ATOM     28  C   UNL     1      22.199   4.245  22.213  0.00  0.00    +0.000 A 
ENDBRANCH   5  22
ENDBRANCH  20   5
ENDBRANCH  18  20
ENDBRANCH  15   7
ENDBRANCH   9  15
TORSDOF 10
ENDMDL
MODEL 3
REMARK VINA RESULT:      -6.2     16.659     19.781
REMARK  Name = 75536274
REMARK  11 active torsions:
REMARK  status: ('A' for Active; 'I' for Inactive)
REMARK    1  A    between atoms: O_2  and  C_11
REMARK    2  A    between atoms: O_5  and  C_20
REMARK    3  A    between atoms: O_5  and  C_22
REMARK    4  A    between atoms: O_6  and  C_21
REMARK    5  A    between atoms: O_6  and  C_23
REMARK    6  A    between atoms: N_7  and  C_15
REMARK    7  A    between atoms: C_9  and  C_15
REMARK    8  A    between atoms: C_10  and  C_14
REMARK    9  A    between atoms: C_14  and  C_16
REMARK   10  A    between atoms: C_18  and  C_20
REMARK   11  A    between atoms: C_19  and  C_21
REMARK                            x       y       z     vdW  Elec       q    Type
REMARK                         _______ _______ _______ _____ _____    ______ ____
ROOT
ATOM      1  O   UNL     1      13.247   3.193   0.466  0.00  0.00    -0.369 OA
ATOM      9  C   UNL     1      13.865   4.143   1.344  0.00  0.00    +0.164 C 
ATOM     10  C   UNL     1      13.096   3.626  -0.888  0.00  0.00    +0.125 C 
ATOM     11  C   UNL     1      15.231   4.592   0.810  0.00  0.00    +0.145 C 
ATOM     12  C   UNL     1      14.452   3.973  -1.499  0.00  0.00    +0.034 C 
ATOM     13  C   UNL     1      15.171   5.021  -0.653  0.00  0.00    +0.036 C 
ENDROOT
BRANCH  11   2
ATOM      2  O   UNL     1      16.146   3.498   0.908  0.00  0.00    -0.389 OA
ATOM     29  H   UNL     1      15.767   2.753   0.408  0.00  0.00    +0.210 HD
ENDBRANCH  11   2
BRANCH  10  14
ATOM     14  C   UNL     1      12.427   2.494  -1.659  0.00  0.00    +0.090 C 
BRANCH  14  16
ATOM      3  O   UNL     1       9.281   2.825  -3.387  0.00  0.00    -0.357 OA
ATOM      8  N   UNL     1      10.281   2.070  -2.786  0.00  0.00    -0.083 NA
ATOM     16  C   UNL     1      11.185   2.961  -2.370  0.00  0.00    +0.086 A 
ATOM     17  C   UNL     1      10.813   4.282  -2.678  0.00  0.00    +0.073 A 
ATOM     19  C   UNL     1       9.609   4.140  -3.317  0.00  0.00    +0.163 A 
BRANCH  19  21
ATOM     21  C   UNL     1       8.655   5.086  -3.908  0.00  0.00    +0.236 C 
BRANCH  21   6
ATOM      6  O   UNL     1       8.344   4.703  -5.251  0.00  0.00    -0.375 OA
ATOM     23  C   UNL     1       9.137   5.418  -6.184  0.00  0.00    +0.194 C 
ENDBRANCH  21   6
ENDBRANCH  19  21
ENDBRANCH  14  16
ENDBRANCH  10  14
BRANCH   9  15
ATOM     15  C   UNL     1      12.925   5.311   1.638  0.00  0.00    +0.138 C 
BRANCH  15   7
ATOM      4  O   UNL     1      10.368   3.983   1.886  0.00  0.00    -0.272 OA
ATOM      7  N   UNL     1      12.183   5.083   2.841  0.00  0.00    -0.310 N 
ATOM     18  C   UNL     1      10.952   4.431   2.869  0.00  0.00    +0.251 C 
ATOM     30  H   UNL     1      12.564   5.451   3.709  0.00  0.00    +0.149 HD
BRANCH  18  20
ATOM     20  C   UNL     1      10.394   4.328   4.272  0.00  0.00    +0.324 C 
BRANCH  20   5
ATOM      5  O   UNL     1       9.519   5.404   4.541  0.00  0.00    -0.483 OA
BRANCH   5  22
ATOM     22  C   UNL     1       9.375   5.783   5.855  0.00  0.00    +0.121 A 
ATOM     24  C   UNL     1       8.813   7.021   6.166  0.00  0.00    +0.045 A 
ATOM     25  C   UNL     1       9.793   4.930   6.875  0.00  0.00    +0.045 A 
ATOM     26  C   UNL     1       8.668   7.406   7.499  0.00  0.00    +0.004 A 
ATOM     27  C   UNL     1       9.647   5.314   8.209  0.00  0.00    +0.004 A 
ATOM     28  C   UNL     1       9.085   6.552   8.520  0.00  0.00    +0.000 A 
ENDBRANCH   5  22
ENDBRANCH  20   5
ENDBRANCH  18  20
ENDBRANCH  15   7
ENDBRANCH   9  15
TORSDOF 10
ENDMDL
MODEL 4
REMARK VINA RESULT:      -6.2     26.798     30.571
REMARK  Name = 75536274
REMARK  11 active torsions:
REMARK  status: ('A' for Active; 'I' for Inactive)
REMARK    1  A    between atoms: O_2  and  C_11
REMARK    2  A    between atoms: O_5  and  C_20
REMARK    3  A    between atoms: O_5  and  C_22
REMARK    4  A    between atoms: O_6  and  C_21
REMARK    5  A    between atoms: O_6  and  C_23
REMARK    6  A    between atoms: N_7  and  C_15
REMARK    7  A    between atoms: C_9  and  C_15
REMARK    8  A    between atoms: C_10  and  C_14
REMARK    9  A    between atoms: C_14  and  C_16
REMARK   10  A    between atoms: C_18  and  C_20
REMARK   11  A    between atoms: C_19  and  C_21
REMARK                            x       y       z     vdW  Elec       q    Type
REMARK                         _______ _______ _______ _____ _____    ______ ____
ROOT
ATOM      1  O   UNL     1     -16.131   1.960  25.062  0.00  0.00    -0.369 OA
ATOM      9  C   UNL     1     -16.036   2.930  24.010  0.00  0.00    +0.164 C 
ATOM     10  C   UNL     1     -17.300   2.062  25.878  0.00  0.00    +0.125 C 
ATOM     11  C   UNL     1     -17.276   2.899  23.108  0.00  0.00    +0.145 C 
ATOM     12  C   UNL     1     -18.563   1.919  25.032  0.00  0.00    +0.034 C 
ATOM     13  C   UNL     1     -18.576   2.948  23.906  0.00  0.00    +0.036 C 
ENDROOT
BRANCH  11   2
ATOM      2  O   UNL     1     -17.269   1.683  22.357  0.00  0.00    -0.389 OA
ATOM     29  H   UNL     1     -17.526   0.964  22.960  0.00  0.00    +0.210 HD
ENDBRANCH  11   2
BRANCH  10  14
ATOM     14  C   UNL     1     -17.222   0.961  26.929  0.00  0.00    +0.090 C 
BRANCH  14  16
ATOM      3  O   UNL     1     -14.877   1.013  29.665  0.00  0.00    -0.357 OA
ATOM      8  N   UNL     1     -15.668   0.349  28.736  0.00  0.00    -0.083 NA
ATOM     16  C   UNL     1     -16.274   1.317  28.042  0.00  0.00    +0.086 A 
ATOM     17  C   UNL     1     -15.907   2.600  28.485  0.00  0.00    +0.073 A 
ATOM     19  C   UNL     1     -15.027   2.353  29.506  0.00  0.00    +0.163 A 
BRANCH  19  21
ATOM     21  C   UNL     1     -14.257   3.212  30.413  0.00  0.00    +0.236 C 
BRANCH  21   6
ATOM      6  O   UNL     1     -13.957   2.511  31.623  0.00  0.00    -0.375 OA
ATOM     23  C   UNL     1     -14.879   2.843  32.649  0.00  0.00    +0.194 C 
ENDBRANCH  21   6
ENDBRANCH  19  21
ENDBRANCH  14  16
ENDBRANCH  10  14
BRANCH   9  15
ATOM     15  C   UNL     1     -15.738   4.320  24.570  0.00  0.00    +0.138 C 
BRANCH  15   7
ATOM      4  O   UNL     1     -13.167   4.711  23.307  0.00  0.00    -0.272 OA
ATOM      7  N   UNL     1     -15.422   5.240  23.520  0.00  0.00    -0.310 N 
ATOM     18  C   UNL     1     -14.150   5.363  22.967  0.00  0.00    +0.251 C 
ATOM     30  H   UNL     1     -16.162   5.856  23.192  0.00  0.00    +0.149 HD
BRANCH  18  20
ATOM     20  C   UNL     1     -14.102   6.410  21.875  0.00  0.00    +0.324 C 
BRANCH  20   5
ATOM      5  O   UNL     1     -12.836   6.419  21.248  0.00  0.00    -0.483 OA
BRANCH   5  22
ATOM     22  C   UNL     1     -12.330   7.641  20.872  0.00  0.00    +0.121 A 
ATOM     24  C   UNL     1     -12.852   8.811  21.422  0.00  0.00    +0.045 A 
ATOM     25  C   UNL     1     -11.295   7.709  19.939  0.00  0.00    +0.045 A 
ATOM     26  C   UNL     1     -12.339  10.051  21.041  0.00  0.00    +0.004 A 
ATOM     27  C   UNL     1     -10.782   8.949  19.558  0.00  0.00    +0.004 A 
ATOM     28  C   UNL     1     -11.303  10.119  20.108  0.00  0.00    +0.000 A 
ENDBRANCH   5  22
ENDBRANCH  20   5
ENDBRANCH  18  20
ENDBRANCH  15   7
ENDBRANCH   9  15
TORSDOF 10
ENDMDL
MODEL 5
REMARK VINA RESULT:      -6.2     26.751     30.603
REMARK  Name = 75536274
REMARK  11 active torsions:
REMARK  status: ('A' for Active; 'I' for Inactive)
REMARK    1  A    between atoms: O_2  and  C_11
REMARK    2  A    between atoms: O_5  and  C_20
REMARK    3  A    between atoms: O_5  and  C_22
REMARK    4  A    between atoms: O_6  and  C_21
REMARK    5  A    between atoms: O_6  and  C_23
REMARK    6  A    between atoms: N_7  and  C_15
REMARK    7  A    between atoms: C_9  and  C_15
REMARK    8  A    between atoms: C_10  and  C_14
REMARK    9  A    between atoms: C_14  and  C_16
REMARK   10  A    between atoms: C_18  and  C_20
REMARK   11  A    between atoms: C_19  and  C_21
REMARK                            x       y       z     vdW  Elec       q    Type
REMARK                         _______ _______ _______ _____ _____    ______ ____
ROOT
ATOM      1  O   UNL     1     -15.907   3.320  26.732  0.00  0.00    -0.369 OA
ATOM      9  C   UNL     1     -15.907   3.080  25.319  0.00  0.00    +0.164 C 
ATOM     10  C   UNL     1     -17.172   3.687  27.286  0.00  0.00    +0.125 C 
ATOM     11  C   UNL     1     -16.944   2.018  24.933  0.00  0.00    +0.145 C 
ATOM     12  C   UNL     1     -18.212   2.599  27.025  0.00  0.00    +0.034 C 
ATOM     13  C   UNL     1     -18.319   2.304  25.532  0.00  0.00    +0.036 C 
ENDROOT
BRANCH  11   2
ATOM      2  O   UNL     1     -16.509   0.748  25.425  0.00  0.00    -0.389 OA
ATOM     29  H   UNL     1     -15.691   0.894  25.932  0.00  0.00    +0.210 HD
ENDBRANCH  11   2
BRANCH  10  14
ATOM     14  C   UNL     1     -16.974   3.901  28.782  0.00  0.00    +0.090 C 
BRANCH  14  16
ATOM      3  O   UNL     1     -14.136   2.171  30.176  0.00  0.00    -0.357 OA
ATOM      8  N   UNL     1     -14.758   3.307  29.672  0.00  0.00    -0.083 NA
ATOM     16  C   UNL     1     -15.997   2.914  29.362  0.00  0.00    +0.086 A 
ATOM     17  C   UNL     1     -16.211   1.553  29.645  0.00  0.00    +0.073 A 
ATOM     19  C   UNL     1     -15.011   1.133  30.155  0.00  0.00    +0.163 A 
BRANCH  19  21
ATOM     21  C   UNL     1     -14.514  -0.153  30.655  0.00  0.00    +0.236 C 
BRANCH  21   6
ATOM      6  O   UNL     1     -13.186  -0.391  30.181  0.00  0.00    -0.375 OA
ATOM     23  C   UNL     1     -13.187  -1.291  29.084  0.00  0.00    +0.194 C 
ENDBRANCH  21   6
ENDBRANCH  19  21
ENDBRANCH  14  16
ENDBRANCH  10  14
BRANCH   9  15
ATOM     15  C   UNL     1     -16.067   4.383  24.540  0.00  0.00    +0.138 C 
BRANCH  15   7
ATOM      4  O   UNL     1     -15.230   4.604  21.781  0.00  0.00    -0.272 OA
ATOM      7  N   UNL     1     -14.804   4.851  24.055  0.00  0.00    -0.310 N 
ATOM     18  C   UNL     1     -14.483   4.925  22.701  0.00  0.00    +0.251 C 
ATOM     30  H   UNL     1     -14.099   5.106  24.741  0.00  0.00    +0.149 HD
BRANCH  18  20
ATOM     20  C   UNL     1     -13.084   5.454  22.475  0.00  0.00    +0.324 C 
BRANCH  20   5
ATOM      5  O   UNL     1     -12.900   5.816  21.122  0.00  0.00    -0.483 OA
BRANCH   5  22
ATOM     22  C   UNL     1     -12.474   7.098  20.867  0.00  0.00    +0.121 A 
ATOM     24  C   UNL     1     -13.106   8.178  21.482  0.00  0.00    +0.045 A 
ATOM     25  C   UNL     1     -11.411   7.317  19.991  0.00  0.00    +0.045 A 
ATOM     26  C   UNL     1     -12.674   9.479  21.223  0.00  0.00    +0.004 A 
ATOM     27  C   UNL     1     -10.979   8.618  19.732  0.00  0.00    +0.004 A 
ATOM     28  C   UNL     1     -11.610   9.699  20.347  0.00  0.00    +0.000 A 
ENDBRANCH   5  22
ENDBRANCH  20   5
ENDBRANCH  18  20
ENDBRANCH  15   7
ENDBRANCH   9  15
TORSDOF 10
ENDMDL
MODEL 6
REMARK VINA RESULT:      -6.2      3.433      5.959
REMARK  Name = 75536274
REMARK  11 active torsions:
REMARK  status: ('A' for Active; 'I' for Inactive)
REMARK    1  A    between atoms: O_2  and  C_11
REMARK    2  A    between atoms: O_5  and  C_20
REMARK    3  A    between atoms: O_5  and  C_22
REMARK    4  A    between atoms: O_6  and  C_21
REMARK    5  A    between atoms: O_6  and  C_23
REMARK    6  A    between atoms: N_7  and  C_15
REMARK    7  A    between atoms: C_9  and  C_15
REMARK    8  A    between atoms: C_10  and  C_14
REMARK    9  A    between atoms: C_14  and  C_16
REMARK   10  A    between atoms: C_18  and  C_20
REMARK   11  A    between atoms: C_19  and  C_21
REMARK                            x       y       z     vdW  Elec       q    Type
REMARK                         _______ _______ _______ _____ _____    ______ ____
ROOT
ATOM      1  O   UNL     1      13.907   9.107  20.905  0.00  0.00    -0.369 OA
ATOM      9  C   UNL     1      14.738   7.947  20.764  0.00  0.00    +0.164 C 
ATOM     10  C   UNL     1      13.191   9.488  19.728  0.00  0.00    +0.125 C 
ATOM     11  C   UNL     1      13.933   6.742  20.260  0.00  0.00    +0.145 C 
ATOM     12  C   UNL     1      12.284   8.353  19.257  0.00  0.00    +0.034 C 
ATOM     13  C   UNL     1      13.092   7.077  19.032  0.00  0.00    +0.036 C 
ENDROOT
BRANCH  11   2
ATOM      2  O   UNL     1      13.045   6.315  21.295  0.00  0.00    -0.389 OA
ATOM     29  H   UNL     1      13.091   6.973  22.011  0.00  0.00    +0.210 HD
ENDBRANCH  11   2
BRANCH  10  14
ATOM     14  C   UNL     1      12.374  10.728  20.070  0.00  0.00    +0.090 C 
BRANCH  14  16
ATOM      3  O   UNL     1      10.924  10.188  23.325  0.00  0.00    -0.357 OA
ATOM      8  N   UNL     1      11.045   9.905  21.970  0.00  0.00    -0.083 NA
ATOM     16  C   UNL     1      11.976  10.752  21.522  0.00  0.00    +0.086 A 
ATOM     17  C   UNL     1      12.473  11.585  22.539  0.00  0.00    +0.073 A 
ATOM     19  C   UNL     1      11.779  11.190  23.652  0.00  0.00    +0.163 A 
BRANCH  19  21
ATOM     21  C   UNL     1      11.782  11.618  25.056  0.00  0.00    +0.236 C 
BRANCH  21   6
ATOM      6  O   UNL     1      10.523  12.206  25.397  0.00  0.00    -0.375 OA
ATOM     23  C   UNL     1      10.647  13.606  25.591  0.00  0.00    +0.194 C 
ENDBRANCH  21   6
ENDBRANCH  19  21
ENDBRANCH  14  16
ENDBRANCH  10  14
BRANCH   9  15
ATOM     15  C   UNL     1      15.963   8.250  19.903  0.00  0.00    +0.138 C 
BRANCH  15   7
ATOM      4  O   UNL     1      17.316   5.856  19.011  0.00  0.00    -0.272 OA
ATOM      7  N   UNL     1      17.142   7.664  20.464  0.00  0.00    -0.310 N 
ATOM     18  C   UNL     1      17.730   6.503  19.969  0.00  0.00    +0.251 C 
ATOM     30  H   UNL     1      17.543   8.104  21.288  0.00  0.00    +0.149 HD
BRANCH  18  20
ATOM     20  C   UNL     1      18.964   6.109  20.751  0.00  0.00    +0.324 C 
BRANCH  20   5
ATOM      5  O   UNL     1      19.602   5.000  20.153  0.00  0.00    -0.483 OA
BRANCH   5  22
ATOM     22  C   UNL     1      20.904   4.752  20.518  0.00  0.00    +0.121 A 
ATOM     24  C   UNL     1      21.261   3.502  21.022  0.00  0.00    +0.045 A 
ATOM     25  C   UNL     1      21.867   5.752  20.385  0.00  0.00    +0.045 A 
ATOM     26  C   UNL     1      22.582   3.250  21.392  0.00  0.00    +0.004 A 
ATOM     27  C   UNL     1      23.189   5.501  20.756  0.00  0.00    +0.004 A 
ATOM     28  C   UNL     1      23.546   4.251  21.259  0.00  0.00    +0.000 A 
ENDBRANCH   5  22
ENDBRANCH  20   5
ENDBRANCH  18  20
ENDBRANCH  15   7
ENDBRANCH   9  15
TORSDOF 10
ENDMDL
MODEL 7
REMARK VINA RESULT:      -6.1     26.641     28.130
REMARK  Name = 75536274
REMARK  11 active torsions:
REMARK  status: ('A' for Active; 'I' for Inactive)
REMARK    1  A    between atoms: O_2  and  C_11
REMARK    2  A    between atoms: O_5  and  C_20
REMARK    3  A    between atoms: O_5  and  C_22
REMARK    4  A    between atoms: O_6  and  C_21
REMARK    5  A    between atoms: O_6  and  C_23
REMARK    6  A    between atoms: N_7  and  C_15
REMARK    7  A    between atoms: C_9  and  C_15
REMARK    8  A    between atoms: C_10  and  C_14
REMARK    9  A    between atoms: C_14  and  C_16
REMARK   10  A    between atoms: C_18  and  C_20
REMARK   11  A    between atoms: C_19  and  C_21
REMARK                            x       y       z     vdW  Elec       q    Type
REMARK                         _______ _______ _______ _____ _____    ______ ____
ROOT
ATOM      1  O   UNL     1      -4.916  -8.663  11.042  0.00  0.00    -0.369 OA
ATOM      9  C   UNL     1      -6.334  -8.528  10.876  0.00  0.00    +0.164 C 
ATOM     10  C   UNL     1      -4.351  -9.858  10.498  0.00  0.00    +0.125 C 
ATOM     11  C   UNL     1      -6.736  -8.639   9.399  0.00  0.00    +0.145 C 
ATOM     12  C   UNL     1      -4.629  -9.951   8.999  0.00  0.00    +0.034 C 
ATOM     13  C   UNL     1      -6.127  -9.863   8.722  0.00  0.00    +0.036 C 
ENDROOT
BRANCH  11   2
ATOM      2  O   UNL     1      -6.268  -7.479   8.707  0.00  0.00    -0.389 OA
ATOM     29  H   UNL     1      -6.125  -7.729   7.777  0.00  0.00    +0.210 HD
ENDBRANCH  11   2
BRANCH  10  14
ATOM     14  C   UNL     1      -2.853  -9.823  10.771  0.00  0.00    +0.090 C 
BRANCH  14  16
ATOM      3  O   UNL     1      -1.783 -11.348  13.857  0.00  0.00    -0.357 OA
ATOM      8  N   UNL     1      -2.044 -10.242  13.057  0.00  0.00    -0.083 NA
ATOM     16  C   UNL     1      -2.469 -10.747  11.896  0.00  0.00    +0.086 A 
ATOM     17  C   UNL     1      -2.496 -12.153  11.904  0.00  0.00    +0.073 A 
ATOM     19  C   UNL     1      -2.056 -12.480  13.160  0.00  0.00    +0.163 A 
BRANCH  19  21
ATOM     21  C   UNL     1      -1.834 -13.751  13.859  0.00  0.00    +0.236 C 
BRANCH  21   6
ATOM      6  O   UNL     1      -1.547 -14.790  12.920  0.00  0.00    -0.375 OA
ATOM     23  C   UNL     1      -0.445 -15.576  13.346  0.00  0.00    +0.194 C 
ENDBRANCH  21   6
ENDBRANCH  19  21
ENDBRANCH  14  16
ENDBRANCH  10  14
BRANCH   9  15
ATOM     15  C   UNL     1      -7.088  -9.504  11.776  0.00  0.00    +0.138 C 
BRANCH  15   7
ATOM      4  O   UNL     1      -5.566 -11.312  13.442  0.00  0.00    -0.272 OA
ATOM      7  N   UNL     1      -6.730  -9.319  13.149  0.00  0.00    -0.310 N 
ATOM     18  C   UNL     1      -5.991 -10.246  13.880  0.00  0.00    +0.251 C 
ATOM     30  H   UNL     1      -7.068  -8.482  13.617  0.00  0.00    +0.149 HD
BRANCH  18  20
ATOM     20  C   UNL     1      -5.758  -9.794  15.305  0.00  0.00    +0.324 C 
BRANCH  20   5
ATOM      5  O   UNL     1      -4.918 -10.702  15.986  0.00  0.00    -0.483 OA
BRANCH   5  22
ATOM     22  C   UNL     1      -5.168 -10.909  17.321  0.00  0.00    +0.121 A 
ATOM     24  C   UNL     1      -6.333 -10.407  17.899  0.00  0.00    +0.045 A 
ATOM     25  C   UNL     1      -4.255 -11.622  18.099  0.00  0.00    +0.045 A 
ATOM     26  C   UNL     1      -6.588 -10.616  19.254  0.00  0.00    +0.004 A 
ATOM     27  C   UNL     1      -4.509 -11.832  19.455  0.00  0.00    +0.004 A 
ATOM     28  C   UNL     1      -5.675 -11.329  20.032  0.00  0.00    +0.000 A 
ENDBRANCH   5  22
ENDBRANCH  20   5
ENDBRANCH  18  20
ENDBRANCH  15   7
ENDBRANCH   9  15
TORSDOF 10
ENDMDL
MODEL 8
REMARK VINA RESULT:      -6.0     27.462     31.274
REMARK  Name = 75536274
REMARK  11 active torsions:
REMARK  status: ('A' for Active; 'I' for Inactive)
REMARK    1  A    between atoms: O_2  and  C_11
REMARK    2  A    between atoms: O_5  and  C_20
REMARK    3  A    between atoms: O_5  and  C_22
REMARK    4  A    between atoms: O_6  and  C_21
REMARK    5  A    between atoms: O_6  and  C_23
REMARK    6  A    between atoms: N_7  and  C_15
REMARK    7  A    between atoms: C_9  and  C_15
REMARK    8  A    between atoms: C_10  and  C_14
REMARK    9  A    between atoms: C_14  and  C_16
REMARK   10  A    between atoms: C_18  and  C_20
REMARK   11  A    between atoms: C_19  and  C_21
REMARK                            x       y       z     vdW  Elec       q    Type
REMARK                         _______ _______ _______ _____ _____    ______ ____
ROOT
ATOM      1  O   UNL     1     -16.086   1.461  26.754  0.00  0.00    -0.369 OA
ATOM      9  C   UNL     1     -16.492   1.935  25.463  0.00  0.00    +0.164 C 
ATOM     10  C   UNL     1     -17.104   1.485  27.757  0.00  0.00    +0.125 C 
ATOM     11  C   UNL     1     -17.716   1.169  24.946  0.00  0.00    +0.145 C 
ATOM     12  C   UNL     1     -18.300   0.635  27.333  0.00  0.00    +0.034 C 
ATOM     13  C   UNL     1     -18.836   1.098  25.981  0.00  0.00    +0.036 C 
ENDROOT
BRANCH  11   2
ATOM      2  O   UNL     1     -17.324  -0.169  24.634  0.00  0.00    -0.389 OA
ATOM     29  H   UNL     1     -17.529  -0.724  25.406  0.00  0.00    +0.210 HD
ENDBRANCH  11   2
BRANCH  10  14
ATOM     14  C   UNL     1     -16.490   0.952  29.046  0.00  0.00    +0.090 C 
BRANCH  14  16
ATOM      3  O   UNL     1     -15.571   4.083  30.578  0.00  0.00    -0.357 OA
ATOM      8  N   UNL     1     -16.216   3.334  29.601  0.00  0.00    -0.083 NA
ATOM     16  C   UNL     1     -15.943   2.062  29.904  0.00  0.00    +0.086 A 
ATOM     17  C   UNL     1     -15.137   1.947  31.050  0.00  0.00    +0.073 A 
ATOM     19  C   UNL     1     -14.932   3.246  31.435  0.00  0.00    +0.163 A 
BRANCH  19  21
ATOM     21  C   UNL     1     -14.195   3.875  32.537  0.00  0.00    +0.236 C 
BRANCH  21   6
ATOM      6  O   UNL     1     -15.079   4.173  33.620  0.00  0.00    -0.375 OA
ATOM     23  C   UNL     1     -14.416   4.907  34.637  0.00  0.00    +0.194 C 
ENDBRANCH  21   6
ENDBRANCH  19  21
ENDBRANCH  14  16
ENDBRANCH  10  14
BRANCH   9  15
ATOM     15  C   UNL     1     -16.693   3.449  25.472  0.00  0.00    +0.138 C 
BRANCH  15   7
ATOM      4  O   UNL     1     -15.853   3.816  22.729  0.00  0.00    -0.272 OA
ATOM      7  N   UNL     1     -15.520   4.126  25.011  0.00  0.00    -0.310 N 
ATOM     18  C   UNL     1     -15.190   4.257  23.664  0.00  0.00    +0.251 C 
ATOM     30  H   UNL     1     -14.881   4.496  25.710  0.00  0.00    +0.149 HD
BRANCH  18  20
ATOM     20  C   UNL     1     -13.897   5.018  23.464  0.00  0.00    +0.324 C 
BRANCH  20   5
ATOM      5  O   UNL     1     -13.562   5.081  22.094  0.00  0.00    -0.483 OA
BRANCH   5  22
ATOM     22  C   UNL     1     -13.132   6.293  21.607  0.00  0.00    +0.121 A 
ATOM     24  C   UNL     1     -11.924   6.378  20.916  0.00  0.00    +0.045 A 
ATOM     25  C   UNL     1     -13.904   7.437  21.806  0.00  0.00    +0.045 A 
ATOM     26  C   UNL     1     -11.487   7.607  20.423  0.00  0.00    +0.004 A 
ATOM     27  C   UNL     1     -13.467   8.667  21.312  0.00  0.00    +0.004 A 
ATOM     28  C   UNL     1     -12.259   8.752  20.621  0.00  0.00    +0.000 A 
ENDBRANCH   5  22
ENDBRANCH  20   5
ENDBRANCH  18  20
ENDBRANCH  15   7
ENDBRANCH   9  15
TORSDOF 10
ENDMDL
MODEL 9
REMARK VINA RESULT:      -6.0     26.185     28.344
REMARK  Name = 75536274
REMARK  11 active torsions:
REMARK  status: ('A' for Active; 'I' for Inactive)
REMARK    1  A    between atoms: O_2  and  C_11
REMARK    2  A    between atoms: O_5  and  C_20
REMARK    3  A    between atoms: O_5  and  C_22
REMARK    4  A    between atoms: O_6  and  C_21
REMARK    5  A    between atoms: O_6  and  C_23
REMARK    6  A    between atoms: N_7  and  C_15
REMARK    7  A    between atoms: C_9  and  C_15
REMARK    8  A    between atoms: C_10  and  C_14
REMARK    9  A    between atoms: C_14  and  C_16
REMARK   10  A    between atoms: C_18  and  C_20
REMARK   11  A    between atoms: C_19  and  C_21
REMARK                            x       y       z     vdW  Elec       q    Type
REMARK                         _______ _______ _______ _____ _____    ______ ____
ROOT
ATOM      1  O   UNL     1      -6.181 -10.300  18.394  0.00  0.00    -0.369 OA
ATOM      9  C   UNL     1      -4.908 -10.556  17.786  0.00  0.00    +0.164 C 
ATOM     10  C   UNL     1      -7.202 -11.253  18.092  0.00  0.00    +0.125 C 
ATOM     11  C   UNL     1      -4.396 -11.960  18.133  0.00  0.00    +0.145 C 
ATOM     12  C   UNL     1      -6.780 -12.654  18.529  0.00  0.00    +0.034 C 
ATOM     13  C   UNL     1      -5.448 -13.039  17.891  0.00  0.00    +0.036 C 
ENDROOT
BRANCH  11   2
ATOM      2  O   UNL     1      -4.047 -11.993  19.519  0.00  0.00    -0.389 OA
ATOM     29  H   UNL     1      -4.005 -11.073  19.834  0.00  0.00    +0.210 HD
ENDBRANCH  11   2
BRANCH  10  14
ATOM     14  C   UNL     1      -8.468 -10.815  18.819  0.00  0.00    +0.090 C 
BRANCH  14  16
ATOM      3  O   UNL     1     -10.859  -8.459  17.507  0.00  0.00    -0.357 OA
ATOM      8  N   UNL     1     -10.459  -9.426  18.422  0.00  0.00    -0.083 NA
ATOM     16  C   UNL     1      -9.227  -9.773  18.041  0.00  0.00    +0.086 A 
ATOM     17  C   UNL     1      -8.800  -9.066  16.904  0.00  0.00    +0.073 A 
ATOM     19  C   UNL     1      -9.863  -8.253  16.608  0.00  0.00    +0.163 A 
BRANCH  19  21
ATOM     21  C   UNL     1     -10.119  -7.256  15.562  0.00  0.00    +0.236 C 
BRANCH  21   6
ATOM      6  O   UNL     1     -10.874  -6.164  16.093  0.00  0.00    -0.375 OA
ATOM     23  C   UNL     1     -11.926  -5.794  15.216  0.00  0.00    +0.194 C 
ENDBRANCH  21   6
ENDBRANCH  19  21
ENDBRANCH  14  16
ENDBRANCH  10  14
BRANCH   9  15
ATOM     15  C   UNL     1      -4.955 -10.291  16.283  0.00  0.00    +0.138 C 
BRANCH  15   7
ATOM      4  O   UNL     1      -4.132 -12.516  14.629  0.00  0.00    -0.272 OA
ATOM      7  N   UNL     1      -3.670 -10.495  15.685  0.00  0.00    -0.310 N 
ATOM     18  C   UNL     1      -3.358 -11.602  14.899  0.00  0.00    +0.251 C 
ATOM     30  H   UNL     1      -2.943  -9.812  15.880  0.00  0.00    +0.149 HD
BRANCH  18  20
ATOM     20  C   UNL     1      -1.931 -11.561  14.397  0.00  0.00    +0.324 C 
BRANCH  20   5
ATOM      5  O   UNL     1      -1.850 -12.068  13.081  0.00  0.00    -0.483 OA
BRANCH   5  22
ATOM     22  C   UNL     1      -2.303 -11.257  12.067  0.00  0.00    +0.121 A 
ATOM     24  C   UNL     1      -1.699 -10.021  11.839  0.00  0.00    +0.045 A 
ATOM     25  C   UNL     1      -3.367 -11.672  11.267  0.00  0.00    +0.045 A 
ATOM     26  C   UNL     1      -2.159  -9.199  10.811  0.00  0.00    +0.004 A 
ATOM     27  C   UNL     1      -3.827 -10.849  10.238  0.00  0.00    +0.004 A 
ATOM     28  C   UNL     1      -3.224  -9.613  10.010  0.00  0.00    +0.000 A 
ENDBRANCH   5  22
ENDBRANCH  20   5
ENDBRANCH  18  20
ENDBRANCH  15   7
ENDBRANCH   9  15
TORSDOF 10
ENDMDL
MODEL 10
REMARK VINA RESULT:      -5.9     26.593     28.798
REMARK  Name = 75536274
REMARK  11 active torsions:
REMARK  status: ('A' for Active; 'I' for Inactive)
REMARK    1  A    between atoms: O_2  and  C_11
REMARK    2  A    between atoms: O_5  and  C_20
REMARK    3  A    between atoms: O_5  and  C_22
REMARK    4  A    between atoms: O_6  and  C_21
REMARK    5  A    between atoms: O_6  and  C_23
REMARK    6  A    between atoms: N_7  and  C_15
REMARK    7  A    between atoms: C_9  and  C_15
REMARK    8  A    between atoms: C_10  and  C_14
REMARK    9  A    between atoms: C_14  and  C_16
REMARK   10  A    between atoms: C_18  and  C_20
REMARK   11  A    between atoms: C_19  and  C_21
REMARK                            x       y       z     vdW  Elec       q    Type
REMARK                         _______ _______ _______ _____ _____    ______ ____
ROOT
ATOM      1  O   UNL     1      -6.515 -12.061  16.525  0.00  0.00    -0.369 OA
ATOM      9  C   UNL     1      -5.381 -11.637  15.757  0.00  0.00    +0.164 C 
ATOM     10  C   UNL     1      -6.272 -12.232  17.923  0.00  0.00    +0.125 C 
ATOM     11  C   UNL     1      -4.778 -10.343  16.318  0.00  0.00    +0.145 C 
ATOM     12  C   UNL     1      -5.779 -10.929  18.549  0.00  0.00    +0.034 C 
ATOM     13  C   UNL     1      -4.537 -10.420  17.823  0.00  0.00    +0.036 C 
ENDROOT
BRANCH  11   2
ATOM      2  O   UNL     1      -5.687  -9.268  16.075  0.00  0.00    -0.389 OA
ATOM     29  H   UNL     1      -6.181  -9.478  15.264  0.00  0.00    +0.210 HD
ENDBRANCH  11   2
BRANCH  10  14
ATOM     14  C   UNL     1      -7.580 -12.681  18.564  0.00  0.00    +0.090 C 
BRANCH  14  16
ATOM      3  O   UNL     1      -9.910 -10.110  19.536  0.00  0.00    -0.357 OA
ATOM      8  N   UNL     1      -9.019 -11.136  19.826  0.00  0.00    -0.083 NA
ATOM     16  C   UNL     1      -8.579 -11.558  18.638  0.00  0.00    +0.086 A 
ATOM     17  C   UNL     1      -9.152 -10.843  17.572  0.00  0.00    +0.073 A 
ATOM     19  C   UNL     1      -9.981  -9.944  18.191  0.00  0.00    +0.163 A 
BRANCH  19  21
ATOM     21  C   UNL     1     -10.883  -8.893  17.706  0.00  0.00    +0.236 C 
BRANCH  21   6
ATOM      6  O   UNL     1     -10.155  -7.685  17.469  0.00  0.00    -0.375 OA
ATOM     23  C   UNL     1     -10.083  -7.393  16.083  0.00  0.00    +0.194 C 
ENDBRANCH  21   6
ENDBRANCH  19  21
ENDBRANCH  14  16
ENDBRANCH  10  14
BRANCH   9  15
ATOM     15  C   UNL     1      -4.358 -12.764  15.620  0.00  0.00    +0.138 C 
BRANCH  15   7
ATOM      4  O   UNL     1      -1.722 -11.687  15.119  0.00  0.00    -0.272 OA
ATOM      7  N   UNL     1      -3.679 -12.691  14.362  0.00  0.00    -0.310 N 
ATOM     18  C   UNL     1      -2.403 -12.154  14.210  0.00  0.00    +0.251 C 
ATOM     30  H   UNL     1      -4.176 -13.017  13.537  0.00  0.00    +0.149 HD
BRANCH  18  20
ATOM     20  C   UNL     1      -1.930 -12.205  12.774  0.00  0.00    +0.324 C 
BRANCH  20   5
ATOM      5  O   UNL     1      -1.905 -10.910  12.210  0.00  0.00    -0.483 OA
BRANCH   5  22
ATOM     22  C   UNL     1      -2.744 -10.671  11.148  0.00  0.00    +0.121 A 
ATOM     24  C   UNL     1      -3.500 -11.712  10.609  0.00  0.00    +0.045 A 
ATOM     25  C   UNL     1      -2.840  -9.388  10.610  0.00  0.00    +0.045 A 
ATOM     26  C   UNL     1      -4.352 -11.470   9.531  0.00  0.00    +0.004 A 
ATOM     27  C   UNL     1      -3.692  -9.145   9.532  0.00  0.00    +0.004 A 
ATOM     28  C   UNL     1      -4.448 -10.186   8.993  0.00  0.00    +0.000 A 
ENDBRANCH   5  22
ENDBRANCH  20   5
ENDBRANCH  18  20
ENDBRANCH  15   7
ENDBRANCH   9  15
TORSDOF 10
ENDMDL
