REMARK  Name = 11885871
REMARK  5 active torsions:
REMARK  status: ('A' for Active; 'I' for Inactive)
REMARK    1  A    between atoms: N_6  and  C_17
REMARK    2  A    between atoms: C_16  and  C_19
REMARK    3  A    between atoms: C_22  and  C_26
REMARK    4  A    between atoms: C_25  and  C_27
REMARK    5  A    between atoms: C_26  and  C_28
REMARK                            x       y       z     vdW  Elec       q    Type
REMARK                         _______ _______ _______ _____ _____    ______ ____
ROOT
ATOM      1  O   UNL     1       0.773   3.963  -0.629  0.00  0.00    -0.266 OA
ATOM      2  O   UNL     1       2.849  -0.156  -2.972  0.00  0.00    -0.270 OA
ATOM      4  N   UNL     1       3.895   0.080  -0.892  0.00  0.00    -0.297 N 
ATOM      5  N   UNL     1       2.324   2.530   0.370  0.00  0.00    -0.310 N 
ATOM      7  C   UNL     1       4.759   2.364  -0.409  0.00  0.00    +0.027 C 
ATOM      8  C   UNL     1       3.964   0.942   1.436  0.00  0.00    +0.054 C 
ATOM      9  C   UNL     1       5.042   1.945   1.029  0.00  0.00    +0.018 C 
ATOM     10  C   UNL     1       4.797   1.140  -1.343  0.00  0.00    +0.113 C 
ATOM     11  C   UNL     1       3.406   3.084  -0.457  0.00  0.00    +0.130 C 
ATOM     12  C   UNL     1       4.040  -0.298   0.523  0.00  0.00    +0.117 C 
ATOM     13  C   UNL     1       2.581   1.560   1.344  0.00  0.00    +0.027 A 
ATOM     14  C   UNL     1       1.601   1.151   2.167  0.00  0.00    +0.024 A 
ATOM     15  C   UNL     1       1.044   3.096   0.202  0.00  0.00    +0.273 A 
ATOM     16  C   UNL     1       2.975  -0.468  -1.789  0.00  0.00    +0.247 C 
ATOM     17  C   UNL     1      -0.027   2.593   1.120  0.00  0.00    +0.099 A 
ATOM     18  C   UNL     1       0.271   1.679   2.049  0.00  0.00    +0.030 A 
ENDROOT
BRANCH  16  19
ATOM     19  C   UNL     1       2.057  -1.496  -1.288  0.00  0.00    +0.037 A 
ATOM     20  C   UNL     1       2.422  -2.839  -1.347  0.00  0.00    +0.013 A 
ATOM     21  C   UNL     1       0.824  -1.126  -0.757  0.00  0.00    +0.013 A 
ATOM     23  C   UNL     1       1.549  -3.817  -0.872  0.00  0.00    +0.009 A 
ATOM     24  C   UNL     1      -0.049  -2.104  -0.281  0.00  0.00    +0.009 A 
ATOM     25  C   UNL     1       0.314  -3.450  -0.338  0.00  0.00    -0.018 A 
BRANCH  25  27
ATOM     27  C   UNL     1      -0.591  -4.465   0.156  0.00  0.00    -0.018 A 
ATOM     29  C   UNL     1      -0.528  -4.866   1.490  0.00  0.00    +0.008 A 
ATOM     30  C   UNL     1      -1.527  -5.043  -0.703  0.00  0.00    +0.008 A 
ATOM     33  C   UNL     1      -1.400  -5.845   1.967  0.00  0.00    +0.001 A 
ATOM     34  C   UNL     1      -2.400  -6.021  -0.226  0.00  0.00    +0.001 A 
ATOM     37  C   UNL     1      -2.336  -6.422   1.109  0.00  0.00    +0.000 A 
ENDBRANCH  25  27
ENDBRANCH  16  19
BRANCH  17   6
ATOM      3  O   UNL     1      -2.481   1.243   1.705  0.00  0.00    -0.275 OA
ATOM      6  N   UNL     1      -1.284   3.102   0.976  0.00  0.00    -0.281 N 
ATOM     22  C   UNL     1      -2.441   2.394   1.278  0.00  0.00    +0.222 C 
ATOM     39  H   UNL     1      -1.367   3.946   0.414  0.00  0.00    +0.155 HD
BRANCH  22  26
ATOM     26  C   UNL     1      -3.681   3.228   1.014  0.00  0.00    +0.131 C 
BRANCH  26  28
ATOM     28  C   UNL     1      -4.607   2.616  -0.004  0.00  0.00    -0.039 A 
ATOM     31  C   UNL     1      -4.445   2.924  -1.347  0.00  0.00    +0.004 A 
ATOM     32  C   UNL     1      -5.609   1.752   0.416  0.00  0.00    +0.004 A 
ATOM     35  C   UNL     1      -5.303   2.357  -2.290  0.00  0.00    +0.000 A 
ATOM     36  C   UNL     1      -6.466   1.185  -0.526  0.00  0.00    +0.000 A 
ATOM     38  C   UNL     1      -6.313   1.487  -1.880  0.00  0.00    +0.000 A 
ENDBRANCH  26  28
ENDBRANCH  22  26
ENDBRANCH  17   6
TORSDOF 5
