MODEL 1
REMARK VINA RESULT:      -7.1      0.000      0.000
REMARK  Name = 56774179
REMARK  8 active torsions:
REMARK  status: ('A' for Active; 'I' for Inactive)
REMARK    1  A    between atoms: N_3  and  C_7
REMARK    2  A    between atoms: C_5  and  C_10
REMARK    3  A    between atoms: C_5  and  C_11
REMARK    4  A    between atoms: C_6  and  C_9
REMARK    5  A    between atoms: C_9  and  C_14
REMARK    6  A    between atoms: C_12  and  C_13
REMARK    7  A    between atoms: C_19  and  C_20
REMARK    8  A    between atoms: C_20  and  C_21
REMARK                            x       y       z     vdW  Elec       q    Type
REMARK                         _______ _______ _______ _____ _____    ______ ____
ROOT
ATOM      5  C   UNL     1      21.236   6.376  21.125  0.00  0.00    -0.013 C 
ATOM      6  C   UNL     1      19.883   6.184  20.409  0.00  0.00    +0.004 C 
ATOM      7  C   UNL     1      21.719   5.110  20.388  0.00  0.00    +0.079 C 
ATOM      8  C   UNL     1      20.238   4.685  20.306  0.00  0.00    +0.027 C 
ATOM     10  C   UNL     1      21.934   7.668  20.761  0.00  0.00    +0.013 C 
ATOM     11  C   UNL     1      21.215   6.206  22.633  0.00  0.00    +0.013 C 
ENDROOT
BRANCH   7   3
ATOM      1  O   UNL     1      24.339   4.140  19.713  0.00  0.00    -0.276 OA
ATOM      3  N   UNL     1      22.551   4.193  21.179  0.00  0.00    -0.312 N 
ATOM     13  C   UNL     1      23.814   3.776  20.769  0.00  0.00    +0.216 C 
ATOM     27  H   UNL     1      22.203   3.832  22.064  0.00  0.00    +0.149 HD
BRANCH  13  12
ATOM     12  C   UNL     1      24.484   2.814  21.769  0.00  0.00    +0.075 C 
ATOM     15  C   UNL     1      24.600   1.332  21.357  0.00  0.00    +0.013 C 
ATOM     16  C   UNL     1      23.638   2.336  22.967  0.00  0.00    +0.013 C 
ATOM     17  C   UNL     1      24.366   0.982  22.842  0.00  0.00    +0.001 C 
ENDBRANCH  13  12
ENDBRANCH   7   3
BRANCH   6   9
ATOM      9  C   UNL     1      18.612   6.491  21.212  0.00  0.00    +0.063 C 
BRANCH   9  14
ATOM      2  O   UNL     1      16.187   6.087  18.623  0.00  0.00    -0.359 OA
ATOM      4  N   UNL     1      17.436   5.854  19.182  0.00  0.00    -0.083 NA
ATOM     14  C   UNL     1      17.427   6.520  20.341  0.00  0.00    +0.084 A 
ATOM     18  C   UNL     1      16.209   7.186  20.563  0.00  0.00    +0.071 A 
ATOM     21  C   UNL     1      15.465   6.882  19.455  0.00  0.00    +0.138 A 
BRANCH  21  20
ATOM     20  C   UNL     1      14.074   7.239  19.004  0.00  0.00    +0.080 C 
BRANCH  20  19
ATOM     19  C   UNL     1      13.253   7.723  20.197  0.00  0.00    -0.004 C 
ATOM     22  C   UNL     1      12.150   6.715  20.542  0.00  0.00    +0.004 C 
ATOM     23  C   UNL     1      12.657   9.110  19.916  0.00  0.00    +0.004 C 
ATOM     24  C   UNL     1      11.281   7.202  21.698  0.00  0.00    +0.000 C 
ATOM     25  C   UNL     1      11.787   9.594  21.075  0.00  0.00    +0.000 C 
ATOM     26  C   UNL     1      10.697   8.584  21.420  0.00  0.00    +0.000 C 
ENDBRANCH  20  19
ENDBRANCH  21  20
ENDBRANCH   9  14
ENDBRANCH   6   9
TORSDOF 6
ENDMDL
MODEL 2
REMARK VINA RESULT:      -7.0      1.359      1.986
REMARK  Name = 56774179
REMARK  8 active torsions:
REMARK  status: ('A' for Active; 'I' for Inactive)
REMARK    1  A    between atoms: N_3  and  C_7
REMARK    2  A    between atoms: C_5  and  C_10
REMARK    3  A    between atoms: C_5  and  C_11
REMARK    4  A    between atoms: C_6  and  C_9
REMARK    5  A    between atoms: C_9  and  C_14
REMARK    6  A    between atoms: C_12  and  C_13
REMARK    7  A    between atoms: C_19  and  C_20
REMARK    8  A    between atoms: C_20  and  C_21
REMARK                            x       y       z     vdW  Elec       q    Type
REMARK                         _______ _______ _______ _____ _____    ______ ____
ROOT
ATOM      5  C   UNL     1      21.479   6.236  21.083  0.00  0.00    -0.013 C 
ATOM      6  C   UNL     1      20.058   6.102  20.499  0.00  0.00    +0.004 C 
ATOM      7  C   UNL     1      21.822   4.923  20.349  0.00  0.00    +0.079 C 
ATOM      8  C   UNL     1      20.319   4.583  20.415  0.00  0.00    +0.027 C 
ATOM     10  C   UNL     1      22.211   7.474  20.615  0.00  0.00    +0.013 C 
ATOM     11  C   UNL     1      21.588   6.109  22.592  0.00  0.00    +0.013 C 
ENDROOT
BRANCH   7   3
ATOM      1  O   UNL     1      24.497   4.115  19.679  0.00  0.00    -0.276 OA
ATOM      3  N   UNL     1      22.672   3.983  21.091  0.00  0.00    -0.312 N 
ATOM     13  C   UNL     1      23.962   3.650  20.688  0.00  0.00    +0.216 C 
ATOM     27  H   UNL     1      22.316   3.541  21.936  0.00  0.00    +0.149 HD
BRANCH  13  12
ATOM     12  C   UNL     1      24.646   2.642  21.631  0.00  0.00    +0.075 C 
ATOM     15  C   UNL     1      24.355   1.145  21.398  0.00  0.00    +0.013 C 
ATOM     16  C   UNL     1      24.038   2.462  23.038  0.00  0.00    +0.013 C 
ATOM     17  C   UNL     1      24.424   0.973  22.930  0.00  0.00    +0.001 C 
ENDBRANCH  13  12
ENDBRANCH   7   3
BRANCH   6   9
ATOM      9  C   UNL     1      18.885   6.504  21.402  0.00  0.00    +0.063 C 
BRANCH   9  14
ATOM      2  O   UNL     1      16.238   6.030  19.054  0.00  0.00    -0.359 OA
ATOM      4  N   UNL     1      17.566   5.927  19.444  0.00  0.00    -0.083 NA
ATOM     14  C   UNL     1      17.608   6.451  20.672  0.00  0.00    +0.084 A 
ATOM     18  C   UNL     1      16.348   6.898  21.105  0.00  0.00    +0.071 A 
ATOM     21  C   UNL     1      15.522   6.610  20.051  0.00  0.00    +0.138 A 
BRANCH  21  20
ATOM     20  C   UNL     1      14.050   6.802  19.799  0.00  0.00    +0.080 C 
BRANCH  20  19
ATOM     19  C   UNL     1      13.847   7.638  18.537  0.00  0.00    -0.004 C 
ATOM     22  C   UNL     1      14.631   8.954  18.626  0.00  0.00    +0.004 C 
ATOM     23  C   UNL     1      12.354   7.906  18.299  0.00  0.00    +0.004 C 
ATOM     24  C   UNL     1      14.401   9.832  17.398  0.00  0.00    +0.000 C 
ATOM     25  C   UNL     1      12.129   8.785  17.070  0.00  0.00    +0.000 C 
ATOM     26  C   UNL     1      12.916  10.089  17.160  0.00  0.00    +0.000 C 
ENDBRANCH  20  19
ENDBRANCH  21  20
ENDBRANCH   9  14
ENDBRANCH   6   9
TORSDOF 6
ENDMDL
MODEL 3
REMARK VINA RESULT:      -7.0     27.621     30.803
REMARK  Name = 56774179
REMARK  8 active torsions:
REMARK  status: ('A' for Active; 'I' for Inactive)
REMARK    1  A    between atoms: N_3  and  C_7
REMARK    2  A    between atoms: C_5  and  C_10
REMARK    3  A    between atoms: C_5  and  C_11
REMARK    4  A    between atoms: C_6  and  C_9
REMARK    5  A    between atoms: C_9  and  C_14
REMARK    6  A    between atoms: C_12  and  C_13
REMARK    7  A    between atoms: C_19  and  C_20
REMARK    8  A    between atoms: C_20  and  C_21
REMARK                            x       y       z     vdW  Elec       q    Type
REMARK                         _______ _______ _______ _____ _____    ______ ____
ROOT
ATOM      5  C   UNL     1      -6.126 -10.736  16.600  0.00  0.00    -0.013 C 
ATOM      6  C   UNL     1      -4.745 -10.420  17.210  0.00  0.00    +0.004 C 
ATOM      7  C   UNL     1      -6.739 -10.268  17.935  0.00  0.00    +0.079 C 
ATOM      8  C   UNL     1      -5.393 -10.636  18.594  0.00  0.00    +0.027 C 
ATOM     10  C   UNL     1      -6.456  -9.899  15.384  0.00  0.00    +0.013 C 
ATOM     11  C   UNL     1      -6.401 -12.201  16.310  0.00  0.00    +0.013 C 
ENDROOT
BRANCH   7   3
ATOM      1  O   UNL     1      -9.526  -9.593  17.756  0.00  0.00    -0.276 OA
ATOM      3  N   UNL     1      -7.872 -11.061  18.428  0.00  0.00    -0.312 N 
ATOM     13  C   UNL     1      -9.196 -10.652  18.296  0.00  0.00    +0.216 C 
ATOM     27  H   UNL     1      -7.701 -11.949  18.895  0.00  0.00    +0.149 HD
BRANCH  13  12
ATOM     12  C   UNL     1     -10.199 -11.655  18.896  0.00  0.00    +0.075 C 
ATOM     15  C   UNL     1     -10.986 -11.209  20.145  0.00  0.00    +0.013 C 
ATOM     16  C   UNL     1      -9.627 -12.800  19.758  0.00  0.00    +0.013 C 
ATOM     17  C   UNL     1     -10.893 -12.672  20.630  0.00  0.00    +0.001 C 
ENDBRANCH  13  12
ENDBRANCH   7   3
BRANCH   6   9
ATOM      9  C   UNL     1      -3.594 -11.380  16.881  0.00  0.00    +0.063 C 
BRANCH   9  14
ATOM      2  O   UNL     1      -1.337  -9.904  14.541  0.00  0.00    -0.359 OA
ATOM      4  N   UNL     1      -1.795 -10.127  15.833  0.00  0.00    -0.083 NA
ATOM     14  C   UNL     1      -2.852 -10.932  15.692  0.00  0.00    +0.084 A 
ATOM     18  C   UNL     1      -3.106 -11.248  14.346  0.00  0.00    +0.071 A 
ATOM     21  C   UNL     1      -2.126 -10.577  13.664  0.00  0.00    +0.138 A 
BRANCH  21  20
ATOM     20  C   UNL     1      -1.773 -10.449  12.207  0.00  0.00    +0.080 C 
BRANCH  20  19
ATOM     19  C   UNL     1      -3.048 -10.328  11.375  0.00  0.00    -0.004 C 
ATOM     22  C   UNL     1      -3.397 -11.669  10.717  0.00  0.00    +0.004 C 
ATOM     23  C   UNL     1      -2.903  -9.222  10.319  0.00  0.00    +0.004 C 
ATOM     24  C   UNL     1      -4.639 -11.560   9.836  0.00  0.00    +0.000 C 
ATOM     25  C   UNL     1      -4.148  -9.117   9.440  0.00  0.00    +0.000 C 
ATOM     26  C   UNL     1      -4.495 -10.455   8.794  0.00  0.00    +0.000 C 
ENDBRANCH  20  19
ENDBRANCH  21  20
ENDBRANCH   9  14
ENDBRANCH   6   9
TORSDOF 6
ENDMDL
MODEL 4
REMARK VINA RESULT:      -6.9     27.646     30.669
REMARK  Name = 56774179
REMARK  8 active torsions:
REMARK  status: ('A' for Active; 'I' for Inactive)
REMARK    1  A    between atoms: N_3  and  C_7
REMARK    2  A    between atoms: C_5  and  C_10
REMARK    3  A    between atoms: C_5  and  C_11
REMARK    4  A    between atoms: C_6  and  C_9
REMARK    5  A    between atoms: C_9  and  C_14
REMARK    6  A    between atoms: C_12  and  C_13
REMARK    7  A    between atoms: C_19  and  C_20
REMARK    8  A    between atoms: C_20  and  C_21
REMARK                            x       y       z     vdW  Elec       q    Type
REMARK                         _______ _______ _______ _____ _____    ______ ____
ROOT
ATOM      5  C   UNL     1      -4.739 -11.706  17.822  0.00  0.00    -0.013 C 
ATOM      6  C   UNL     1      -6.091 -11.106  18.259  0.00  0.00    +0.004 C 
ATOM      7  C   UNL     1      -4.482 -10.383  17.071  0.00  0.00    +0.079 C 
ATOM      8  C   UNL     1      -6.014 -10.214  17.003  0.00  0.00    +0.027 C 
ATOM     10  C   UNL     1      -3.811 -12.009  18.978  0.00  0.00    +0.013 C 
ATOM     11  C   UNL     1      -4.816 -12.903  16.893  0.00  0.00    +0.013 C 
ENDROOT
BRANCH   7   3
ATOM      1  O   UNL     1      -1.666 -10.567  16.527  0.00  0.00    -0.276 OA
ATOM      3  N   UNL     1      -3.844 -10.514  15.754  0.00  0.00    -0.312 N 
ATOM     13  C   UNL     1      -2.465 -10.596  15.587  0.00  0.00    +0.216 C 
ATOM     27  H   UNL     1      -4.420 -10.540  14.916  0.00  0.00    +0.149 HD
BRANCH  13  12
ATOM     12  C   UNL     1      -2.044 -10.724  14.111  0.00  0.00    +0.075 C 
ATOM     15  C   UNL     1      -3.136 -10.513  13.042  0.00  0.00    +0.013 C 
ATOM     16  C   UNL     1      -1.872 -12.148  13.544  0.00  0.00    +0.013 C 
ATOM     17  C   UNL     1      -2.425 -11.601  12.211  0.00  0.00    +0.001 C 
ENDBRANCH  13  12
ENDBRANCH   7   3
BRANCH   6   9
ATOM      9  C   UNL     1      -7.299 -12.052  18.304  0.00  0.00    +0.063 C 
BRANCH   9  14
ATOM      2  O   UNL     1     -10.045 -10.271  19.730  0.00  0.00    -0.359 OA
ATOM      4  N   UNL     1      -8.826 -10.930  19.825  0.00  0.00    -0.083 NA
ATOM     14  C   UNL     1      -8.542 -11.315  18.578  0.00  0.00    +0.084 A 
ATOM     18  C   UNL     1      -9.536 -10.931  17.661  0.00  0.00    +0.071 A 
ATOM     21  C   UNL     1     -10.458 -10.278  18.437  0.00  0.00    +0.138 A 
BRANCH  21  20
ATOM     20  C   UNL     1     -11.771  -9.602  18.147  0.00  0.00    +0.080 C 
BRANCH  20  19
ATOM     19  C   UNL     1     -11.629  -8.701  16.922  0.00  0.00    -0.004 C 
ATOM     22  C   UNL     1     -10.615  -7.581  17.186  0.00  0.00    +0.004 C 
ATOM     23  C   UNL     1     -12.991  -8.121  16.515  0.00  0.00    +0.004 C 
ATOM     24  C   UNL     1     -10.495  -6.635  15.994  0.00  0.00    +0.000 C 
ATOM     25  C   UNL     1     -12.866  -7.175  15.322  0.00  0.00    +0.000 C 
ATOM     26  C   UNL     1     -11.852  -6.067  15.587  0.00  0.00    +0.000 C 
ENDBRANCH  20  19
ENDBRANCH  21  20
ENDBRANCH   9  14
ENDBRANCH   6   9
TORSDOF 6
ENDMDL
MODEL 5
REMARK VINA RESULT:      -6.7     27.863     30.942
REMARK  Name = 56774179
REMARK  8 active torsions:
REMARK  status: ('A' for Active; 'I' for Inactive)
REMARK    1  A    between atoms: N_3  and  C_7
REMARK    2  A    between atoms: C_5  and  C_10
REMARK    3  A    between atoms: C_5  and  C_11
REMARK    4  A    between atoms: C_6  and  C_9
REMARK    5  A    between atoms: C_9  and  C_14
REMARK    6  A    between atoms: C_12  and  C_13
REMARK    7  A    between atoms: C_19  and  C_20
REMARK    8  A    between atoms: C_20  and  C_21
REMARK                            x       y       z     vdW  Elec       q    Type
REMARK                         _______ _______ _______ _____ _____    ______ ____
ROOT
ATOM      5  C   UNL     1      -4.699  -9.744  10.346  0.00  0.00    -0.013 C 
ATOM      6  C   UNL     1      -4.243 -11.102  10.918  0.00  0.00    +0.004 C 
ATOM      7  C   UNL     1      -5.636 -10.538   9.412  0.00  0.00    +0.079 C 
ATOM      8  C   UNL     1      -4.660 -11.723   9.568  0.00  0.00    +0.027 C 
ATOM     10  C   UNL     1      -5.372  -8.853  11.367  0.00  0.00    +0.013 C 
ATOM     11  C   UNL     1      -3.645  -8.958   9.588  0.00  0.00    +0.013 C 
ENDROOT
BRANCH   7   3
ATOM      1  O   UNL     1      -8.014  -9.640   8.072  0.00  0.00    -0.276 OA
ATOM      3  N   UNL     1      -5.736 -10.036   8.036  0.00  0.00    -0.312 N 
ATOM     13  C   UNL     1      -6.938  -9.621   7.468  0.00  0.00    +0.216 C 
ATOM     27  H   UNL     1      -4.903  -9.988   7.454  0.00  0.00    +0.149 HD
BRANCH  13  12
ATOM     12  C   UNL     1      -6.782  -9.141   6.013  0.00  0.00    +0.075 C 
ATOM     15  C   UNL     1      -7.835  -8.149   5.478  0.00  0.00    +0.013 C 
ATOM     16  C   UNL     1      -7.236 -10.105   4.896  0.00  0.00    +0.013 C 
ATOM     17  C   UNL     1      -7.698  -8.858   4.115  0.00  0.00    +0.001 C 
ENDBRANCH  13  12
ENDBRANCH   7   3
BRANCH   6   9
ATOM      9  C   UNL     1      -2.756 -11.254  11.265  0.00  0.00    +0.063 C 
BRANCH   9  14
ATOM      2  O   UNL     1      -1.929 -12.336  14.566  0.00  0.00    -0.359 OA
ATOM      4  N   UNL     1      -1.945 -12.501  13.187  0.00  0.00    -0.083 NA
ATOM     14  C   UNL     1      -2.563 -11.415  12.715  0.00  0.00    +0.084 A 
ATOM     18  C   UNL     1      -2.956 -10.537  13.740  0.00  0.00    +0.071 A 
ATOM     21  C   UNL     1      -2.535 -11.162  14.883  0.00  0.00    +0.138 A 
BRANCH  21  20
ATOM     20  C   UNL     1      -2.608 -10.817  16.346  0.00  0.00    +0.080 C 
BRANCH  20  19
ATOM     19  C   UNL     1      -3.994 -11.159  16.889  0.00  0.00    -0.004 C 
ATOM     22  C   UNL     1      -4.941  -9.959  16.754  0.00  0.00    +0.004 C 
ATOM     23  C   UNL     1      -3.905 -11.624  18.349  0.00  0.00    +0.004 C 
ATOM     24  C   UNL     1      -6.319 -10.259  17.338  0.00  0.00    +0.000 C 
ATOM     25  C   UNL     1      -5.286 -11.922  18.931  0.00  0.00    +0.000 C 
ATOM     26  C   UNL     1      -6.226 -10.729  18.787  0.00  0.00    +0.000 C 
ENDBRANCH  20  19
ENDBRANCH  21  20
ENDBRANCH   9  14
ENDBRANCH   6   9
TORSDOF 6
ENDMDL
MODEL 6
REMARK VINA RESULT:      -6.7      1.910      9.845
REMARK  Name = 56774179
REMARK  8 active torsions:
REMARK  status: ('A' for Active; 'I' for Inactive)
REMARK    1  A    between atoms: N_3  and  C_7
REMARK    2  A    between atoms: C_5  and  C_10
REMARK    3  A    between atoms: C_5  and  C_11
REMARK    4  A    between atoms: C_6  and  C_9
REMARK    5  A    between atoms: C_9  and  C_14
REMARK    6  A    between atoms: C_12  and  C_13
REMARK    7  A    between atoms: C_19  and  C_20
REMARK    8  A    between atoms: C_20  and  C_21
REMARK                            x       y       z     vdW  Elec       q    Type
REMARK                         _______ _______ _______ _____ _____    ______ ____
ROOT
ATOM      5  C   UNL     1      16.510   6.964  20.176  0.00  0.00    -0.013 C 
ATOM      6  C   UNL     1      17.601   7.988  20.551  0.00  0.00    +0.004 C 
ATOM      7  C   UNL     1      15.632   8.165  19.766  0.00  0.00    +0.079 C 
ATOM      8  C   UNL     1      16.464   9.011  20.752  0.00  0.00    +0.027 C 
ATOM     10  C   UNL     1      16.919   6.025  19.063  0.00  0.00    +0.013 C 
ATOM     11  C   UNL     1      15.921   6.174  21.330  0.00  0.00    +0.013 C 
ENDROOT
BRANCH   7   3
ATOM      1  O   UNL     1      13.442   7.558  18.006  0.00  0.00    -0.276 OA
ATOM      3  N   UNL     1      14.212   8.066  20.126  0.00  0.00    -0.312 N 
ATOM     13  C   UNL     1      13.216   7.766  19.202  0.00  0.00    +0.216 C 
ATOM     27  H   UNL     1      13.924   8.228  21.089  0.00  0.00    +0.149 HD
BRANCH  13  12
ATOM     12  C   UNL     1      11.808   7.724  19.825  0.00  0.00    +0.075 C 
ATOM     15  C   UNL     1      11.363   8.947  20.652  0.00  0.00    +0.013 C 
ATOM     16  C   UNL     1      11.626   6.886  21.108  0.00  0.00    +0.013 C 
ATOM     17  C   UNL     1      10.617   7.957  21.571  0.00  0.00    +0.001 C 
ENDBRANCH  13  12
ENDBRANCH   7   3
BRANCH   6   9
ATOM      9  C   UNL     1      18.436   7.698  21.805  0.00  0.00    +0.063 C 
BRANCH   9  14
ATOM      2  O   UNL     1      21.940   7.465  21.163  0.00  0.00    -0.359 OA
ATOM      4  N   UNL     1      20.810   8.161  21.570  0.00  0.00    -0.083 NA
ATOM     14  C   UNL     1      19.805   7.290  21.451  0.00  0.00    +0.084 A 
ATOM     18  C   UNL     1      20.236   6.039  20.977  0.00  0.00    +0.071 A 
ATOM     21  C   UNL     1      21.586   6.202  20.811  0.00  0.00    +0.138 A 
BRANCH  21  20
ATOM     20  C   UNL     1      22.693   5.298  20.341  0.00  0.00    +0.080 C 
BRANCH  20  19
ATOM     19  C   UNL     1      22.624   3.966  21.084  0.00  0.00    -0.004 C 
ATOM     22  C   UNL     1      22.643   4.189  22.602  0.00  0.00    +0.004 C 
ATOM     23  C   UNL     1      23.774   3.045  20.653  0.00  0.00    +0.004 C 
ATOM     24  C   UNL     1      22.628   2.869  23.367  0.00  0.00    +0.000 C 
ATOM     25  C   UNL     1      23.757   1.725  21.422  0.00  0.00    +0.000 C 
ATOM     26  C   UNL     1      23.768   1.952  22.930  0.00  0.00    +0.000 C 
ENDBRANCH  20  19
ENDBRANCH  21  20
ENDBRANCH   9  14
ENDBRANCH   6   9
TORSDOF 6
ENDMDL
MODEL 7
REMARK VINA RESULT:      -6.5      3.351     10.505
REMARK  Name = 56774179
REMARK  8 active torsions:
REMARK  status: ('A' for Active; 'I' for Inactive)
REMARK    1  A    between atoms: N_3  and  C_7
REMARK    2  A    between atoms: C_5  and  C_10
REMARK    3  A    between atoms: C_5  and  C_11
REMARK    4  A    between atoms: C_6  and  C_9
REMARK    5  A    between atoms: C_9  and  C_14
REMARK    6  A    between atoms: C_12  and  C_13
REMARK    7  A    between atoms: C_19  and  C_20
REMARK    8  A    between atoms: C_20  and  C_21
REMARK                            x       y       z     vdW  Elec       q    Type
REMARK                         _______ _______ _______ _____ _____    ______ ____
ROOT
ATOM      5  C   UNL     1      12.572   8.722  19.295  0.00  0.00    -0.013 C 
ATOM      6  C   UNL     1      14.046   8.296  19.459  0.00  0.00    +0.004 C 
ATOM      7  C   UNL     1      12.979  10.085  19.893  0.00  0.00    +0.079 C 
ATOM      8  C   UNL     1      14.144   9.347  20.586  0.00  0.00    +0.027 C 
ATOM     10  C   UNL     1      12.104   8.737  17.857  0.00  0.00    +0.013 C 
ATOM     11  C   UNL     1      11.569   7.979  20.159  0.00  0.00    +0.013 C 
ENDROOT
BRANCH   7   3
ATOM      1  O   UNL     1      12.869  12.828  20.742  0.00  0.00    -0.276 OA
ATOM      3  N   UNL     1      12.018  10.680  20.831  0.00  0.00    -0.312 N 
ATOM     13  C   UNL     1      12.042  12.026  21.185  0.00  0.00    +0.216 C 
ATOM     27  H   UNL     1      11.300  10.097  21.255  0.00  0.00    +0.149 HD
BRANCH  13  12
ATOM     12  C   UNL     1      10.934  12.405  22.186  0.00  0.00    +0.075 C 
ATOM     15  C   UNL     1      10.374  13.840  22.112  0.00  0.00    +0.013 C 
ATOM     16  C   UNL     1      11.366  12.729  23.631  0.00  0.00    +0.013 C 
ATOM     17  C   UNL     1      10.240  13.784  23.648  0.00  0.00    +0.001 C 
ENDBRANCH  13  12
ENDBRANCH   7   3
BRANCH   6   9
ATOM      9  C   UNL     1      14.315   6.851  19.901  0.00  0.00    +0.063 C 
BRANCH   9  14
ATOM      2  O   UNL     1      17.577   5.792  18.908  0.00  0.00    -0.359 OA
ATOM      4  N   UNL     1      16.219   5.966  18.677  0.00  0.00    -0.083 NA
ATOM     14  C   UNL     1      15.745   6.521  19.796  0.00  0.00    +0.084 A 
ATOM     18  C   UNL     1      16.749   6.718  20.760  0.00  0.00    +0.071 A 
ATOM     21  C   UNL     1      17.881   6.243  20.153  0.00  0.00    +0.138 A 
BRANCH  21  20
ATOM     20  C   UNL     1      19.321   6.131  20.576  0.00  0.00    +0.080 C 
BRANCH  20  19
ATOM     19  C   UNL     1      19.536   6.890  21.883  0.00  0.00    -0.004 C 
ATOM     22  C   UNL     1      19.875   8.360  21.608  0.00  0.00    +0.004 C 
ATOM     23  C   UNL     1      20.636   6.223  22.722  0.00  0.00    +0.004 C 
ATOM     24  C   UNL     1      20.147   9.128  22.899  0.00  0.00    +0.000 C 
ATOM     25  C   UNL     1      20.906   6.995  24.012  0.00  0.00    +0.000 C 
ATOM     26  C   UNL     1      21.234   8.458  23.734  0.00  0.00    +0.000 C 
ENDBRANCH  20  19
ENDBRANCH  21  20
ENDBRANCH   9  14
ENDBRANCH   6   9
TORSDOF 6
ENDMDL
MODEL 8
REMARK VINA RESULT:      -6.4     27.161     31.383
REMARK  Name = 56774179
REMARK  8 active torsions:
REMARK  status: ('A' for Active; 'I' for Inactive)
REMARK    1  A    between atoms: N_3  and  C_7
REMARK    2  A    between atoms: C_5  and  C_10
REMARK    3  A    between atoms: C_5  and  C_11
REMARK    4  A    between atoms: C_6  and  C_9
REMARK    5  A    between atoms: C_9  and  C_14
REMARK    6  A    between atoms: C_12  and  C_13
REMARK    7  A    between atoms: C_19  and  C_20
REMARK    8  A    between atoms: C_20  and  C_21
REMARK                            x       y       z     vdW  Elec       q    Type
REMARK                         _______ _______ _______ _____ _____    ______ ____
ROOT
ATOM      5  C   UNL     1     -12.908   8.617  19.918  0.00  0.00    -0.013 C 
ATOM      6  C   UNL     1     -11.389   8.481  19.687  0.00  0.00    +0.004 C 
ATOM      7  C   UNL     1     -12.705   7.818  21.221  0.00  0.00    +0.079 C 
ATOM      8  C   UNL     1     -11.448   7.211  20.562  0.00  0.00    +0.027 C 
ATOM     10  C   UNL     1     -13.368  10.049  20.077  0.00  0.00    +0.013 C 
ATOM     11  C   UNL     1     -13.796   7.896  18.920  0.00  0.00    +0.013 C 
ENDROOT
BRANCH   7   3
ATOM      1  O   UNL     1     -14.712   8.001  23.270  0.00  0.00    -0.276 OA
ATOM      3  N   UNL     1     -13.745   6.827  21.528  0.00  0.00    -0.312 N 
ATOM     13  C   UNL     1     -14.679   7.002  22.545  0.00  0.00    +0.216 C 
ATOM     27  H   UNL     1     -13.796   5.966  20.988  0.00  0.00    +0.149 HD
BRANCH  13  12
ATOM     12  C   UNL     1     -15.661   5.823  22.670  0.00  0.00    +0.075 C 
ATOM     15  C   UNL     1     -16.967   6.068  23.455  0.00  0.00    +0.013 C 
ATOM     16  C   UNL     1     -15.330   4.732  23.711  0.00  0.00    +0.013 C 
ATOM     17  C   UNL     1     -16.849   4.612  23.953  0.00  0.00    +0.001 C 
ENDBRANCH  13  12
ENDBRANCH   7   3
BRANCH   6   9
ATOM      9  C   UNL     1     -10.915   8.247  18.246  0.00  0.00    +0.063 C 
BRANCH   9  14
ATOM      2  O   UNL     1      -9.995  10.888  16.026  0.00  0.00    -0.359 OA
ATOM      4  N   UNL     1     -10.403   9.586  16.283  0.00  0.00    -0.083 NA
ATOM     14  C   UNL     1     -10.497   9.508  17.613  0.00  0.00    +0.084 A 
ATOM     18  C   UNL     1     -10.162  10.720  18.243  0.00  0.00    +0.071 A 
ATOM     21  C   UNL     1      -9.854  11.554  17.201  0.00  0.00    +0.138 A 
BRANCH  21  20
ATOM     20  C   UNL     1      -9.414  12.990  17.112  0.00  0.00    +0.080 C 
BRANCH  20  19
ATOM     19  C   UNL     1      -8.196  13.101  16.198  0.00  0.00    -0.004 C 
ATOM     22  C   UNL     1      -7.031  13.783  16.927  0.00  0.00    +0.004 C 
ATOM     23  C   UNL     1      -8.552  13.856  14.910  0.00  0.00    +0.004 C 
ATOM     24  C   UNL     1      -5.818  13.954  16.016  0.00  0.00    +0.000 C 
ATOM     25  C   UNL     1      -7.335  14.026  14.002  0.00  0.00    +0.000 C 
ATOM     26  C   UNL     1      -6.177  14.698  14.733  0.00  0.00    +0.000 C 
ENDBRANCH  20  19
ENDBRANCH  21  20
ENDBRANCH   9  14
ENDBRANCH   6   9
TORSDOF 6
ENDMDL
MODEL 9
REMARK VINA RESULT:      -6.3     31.165     34.441
REMARK  Name = 56774179
REMARK  8 active torsions:
REMARK  status: ('A' for Active; 'I' for Inactive)
REMARK    1  A    between atoms: N_3  and  C_7
REMARK    2  A    between atoms: C_5  and  C_10
REMARK    3  A    between atoms: C_5  and  C_11
REMARK    4  A    between atoms: C_6  and  C_9
REMARK    5  A    between atoms: C_9  and  C_14
REMARK    6  A    between atoms: C_12  and  C_13
REMARK    7  A    between atoms: C_19  and  C_20
REMARK    8  A    between atoms: C_20  and  C_21
REMARK                            x       y       z     vdW  Elec       q    Type
REMARK                         _______ _______ _______ _____ _____    ______ ____
ROOT
ATOM      5  C   UNL     1     -15.000   5.337  33.682  0.00  0.00    -0.013 C 
ATOM      6  C   UNL     1     -14.139   6.608  33.534  0.00  0.00    +0.004 C 
ATOM      7  C   UNL     1     -13.846   4.569  33.006  0.00  0.00    +0.079 C 
ATOM      8  C   UNL     1     -13.443   5.906  32.349  0.00  0.00    +0.027 C 
ATOM     10  C   UNL     1     -15.294   4.970  35.120  0.00  0.00    +0.013 C 
ATOM     11  C   UNL     1     -16.281   5.307  32.868  0.00  0.00    +0.013 C 
ENDROOT
BRANCH   7   3
ATOM      1  O   UNL     1     -14.251   1.774  33.536  0.00  0.00    -0.276 OA
ATOM      3  N   UNL     1     -14.248   3.537  32.041  0.00  0.00    -0.312 N 
ATOM     13  C   UNL     1     -14.421   2.201  32.391  0.00  0.00    +0.216 C 
ATOM     27  H   UNL     1     -14.406   3.791  31.068  0.00  0.00    +0.149 HD
BRANCH  13  12
ATOM     12  C   UNL     1     -14.841   1.316  31.202  0.00  0.00    +0.075 C 
ATOM     15  C   UNL     1     -14.927  -0.204  31.446  0.00  0.00    +0.013 C 
ATOM     16  C   UNL     1     -13.770   1.008  30.135  0.00  0.00    +0.013 C 
ATOM     17  C   UNL     1     -14.417  -0.386  30.001  0.00  0.00    +0.001 C 
ENDBRANCH  13  12
ENDBRANCH   7   3
BRANCH   6   9
ATOM      9  C   UNL     1     -14.865   7.911  33.174  0.00  0.00    +0.063 C 
BRANCH   9  14
ATOM      2  O   UNL     1     -12.238  10.227  32.477  0.00  0.00    -0.359 OA
ATOM      4  N   UNL     1     -12.896   9.330  33.308  0.00  0.00    -0.083 NA
ATOM     14  C   UNL     1     -13.937   8.894  32.592  0.00  0.00    +0.084 A 
ATOM     18  C   UNL     1     -13.987   9.476  31.314  0.00  0.00    +0.071 A 
ATOM     21  C   UNL     1     -12.898  10.306  31.292  0.00  0.00    +0.138 A 
BRANCH  21  20
ATOM     20  C   UNL     1     -12.320  11.239  30.262  0.00  0.00    +0.080 C 
BRANCH  20  19
ATOM     19  C   UNL     1     -12.191  10.515  28.924  0.00  0.00    -0.004 C 
ATOM     22  C   UNL     1     -10.786  10.706  28.337  0.00  0.00    +0.004 C 
ATOM     23  C   UNL     1     -13.265  11.000  27.940  0.00  0.00    +0.004 C 
ATOM     24  C   UNL     1     -10.649  10.035  26.972  0.00  0.00    +0.000 C 
ATOM     25  C   UNL     1     -13.124  10.327  26.575  0.00  0.00    +0.000 C 
ATOM     26  C   UNL     1     -11.723  10.513  25.999  0.00  0.00    +0.000 C 
ENDBRANCH  20  19
ENDBRANCH  21  20
ENDBRANCH   9  14
ENDBRANCH   6   9
TORSDOF 6
ENDMDL
MODEL 10
REMARK VINA RESULT:      -6.3     30.643     34.453
REMARK  Name = 56774179
REMARK  8 active torsions:
REMARK  status: ('A' for Active; 'I' for Inactive)
REMARK    1  A    between atoms: N_3  and  C_7
REMARK    2  A    between atoms: C_5  and  C_10
REMARK    3  A    between atoms: C_5  and  C_11
REMARK    4  A    between atoms: C_6  and  C_9
REMARK    5  A    between atoms: C_9  and  C_14
REMARK    6  A    between atoms: C_12  and  C_13
REMARK    7  A    between atoms: C_19  and  C_20
REMARK    8  A    between atoms: C_20  and  C_21
REMARK                            x       y       z     vdW  Elec       q    Type
REMARK                         _______ _______ _______ _____ _____    ______ ____
ROOT
ATOM      5  C   UNL     1     -15.572   5.860  32.637  0.00  0.00    -0.013 C 
ATOM      6  C   UNL     1     -14.366   6.737  33.031  0.00  0.00    +0.004 C 
ATOM      7  C   UNL     1     -14.664   4.637  32.880  0.00  0.00    +0.079 C 
ATOM      8  C   UNL     1     -13.466   5.564  32.588  0.00  0.00    +0.027 C 
ATOM     10  C   UNL     1     -16.756   6.007  33.567  0.00  0.00    +0.013 C 
ATOM     11  C   UNL     1     -16.030   5.973  31.194  0.00  0.00    +0.013 C 
ENDROOT
BRANCH   7   3
ATOM      1  O   UNL     1     -14.958   1.841  33.479  0.00  0.00    -0.276 OA
ATOM      3  N   UNL     1     -14.806   3.538  31.916  0.00  0.00    -0.312 N 
ATOM     13  C   UNL     1     -14.943   2.207  32.301  0.00  0.00    +0.216 C 
ATOM     27  H   UNL     1     -14.800   3.738  30.918  0.00  0.00    +0.149 HD
BRANCH  13  12
ATOM     12  C   UNL     1     -15.073   1.245  31.105  0.00  0.00    +0.075 C 
ATOM     15  C   UNL     1     -14.967  -0.266  31.398  0.00  0.00    +0.013 C 
ATOM     16  C   UNL     1     -13.839   1.077  30.194  0.00  0.00    +0.013 C 
ATOM     17  C   UNL     1     -14.253  -0.401  30.037  0.00  0.00    +0.001 C 
ENDBRANCH  13  12
ENDBRANCH   7   3
BRANCH   6   9
ATOM      9  C   UNL     1     -14.159   8.040  32.246  0.00  0.00    +0.063 C 
BRANCH   9  14
ATOM      2  O   UNL     1     -10.864   9.393  32.498  0.00  0.00    -0.359 OA
ATOM      4  N   UNL     1     -11.852   8.682  31.829  0.00  0.00    -0.083 NA
ATOM     14  C   UNL     1     -12.909   8.707  32.645  0.00  0.00    +0.084 A 
ATOM     18  C   UNL     1     -12.650   9.413  33.833  0.00  0.00    +0.071 A 
ATOM     21  C   UNL     1     -11.351   9.824  33.690  0.00  0.00    +0.138 A 
BRANCH  21  20
ATOM     20  C   UNL     1     -10.409  10.619  34.553  0.00  0.00    +0.080 C 
BRANCH  20  19
ATOM     19  C   UNL     1      -9.298   9.711  35.076  0.00  0.00    -0.004 C 
ATOM     22  C   UNL     1      -9.732   9.011  36.370  0.00  0.00    +0.004 C 
ATOM     23  C   UNL     1      -8.004  10.510  35.294  0.00  0.00    +0.004 C 
ATOM     24  C   UNL     1      -8.617   8.139  36.941  0.00  0.00    +0.000 C 
ATOM     25  C   UNL     1      -6.892   9.634  35.866  0.00  0.00    +0.000 C 
ATOM     26  C   UNL     1      -7.331   8.933  37.148  0.00  0.00    +0.000 C 
ENDBRANCH  20  19
ENDBRANCH  21  20
ENDBRANCH   9  14
ENDBRANCH   6   9
TORSDOF 6
ENDMDL
