REMARK  Name = 26744980
REMARK  5 active torsions:
REMARK  status: ('A' for Active; 'I' for Inactive)
REMARK    1  A    between atoms: N_4  and  C_11
REMARK    2  A    between atoms: N_9  and  C_28
REMARK    3  A    between atoms: C_10  and  C_11
REMARK    4  A    between atoms: C_16  and  C_22
REMARK    5  A    between atoms: C_24  and  C_25
REMARK                            x       y       z     vdW  Elec       q    Type
REMARK                         _______ _______ _______ _____ _____    ______ ____
ROOT
ATOM      4  N   UNL     1       2.442  -0.189   0.346  0.00  0.00    -0.285 NA
ATOM      5  N   UNL     1       5.551   1.081  -1.323  0.00  0.00    -0.347 N 
ATOM      6  N   UNL     1       4.391   2.974  -1.588  0.00  0.00    -0.240 NA
ATOM     16  C   UNL     1       1.996   1.178   0.783  0.00  0.00    +0.152 C 
ATOM     18  C   UNL     1       3.915  -0.258   0.118  0.00  0.00    +0.140 C 
ATOM     19  C   UNL     1       2.331   2.286  -0.278  0.00  0.00    +0.085 C 
ATOM     20  C   UNL     1       4.373   0.909  -0.662  0.00  0.00    +0.053 A 
ATOM     21  C   UNL     1       3.684   2.082  -0.833  0.00  0.00    +0.065 A 
ATOM     23  C   UNL     1       5.515   2.342  -1.866  0.00  0.00    +0.197 A 
ATOM     31  H   UNL     1       6.309   0.416  -1.399  0.00  0.00    +0.167 HD
ENDROOT
BRANCH  16  22
ATOM      1  O   UNL     1       0.179   1.620   2.372  0.00  0.00    -0.336 OA
ATOM      7  N   UNL     1      -0.523   1.060   0.320  0.00  0.00    -0.190 NA
ATOM      8  N   UNL     1      -1.221   1.638   2.421  0.00  0.00    -0.056 NA
ATOM     22  C   UNL     1       0.506   1.271   1.100  0.00  0.00    +0.245 A 
ATOM     24  C   UNL     1      -1.561   1.298   1.174  0.00  0.00    +0.202 A 
BRANCH  24  25
ATOM     25  C   UNL     1      -2.926   1.187   0.749  0.00  0.00    +0.025 A 
ATOM     26  C   UNL     1      -3.246   0.449  -0.390  0.00  0.00    +0.044 A 
ATOM     27  C   UNL     1      -3.935   1.818   1.477  0.00  0.00    +0.012 A 
ATOM     28  C   UNL     1      -4.574   0.341  -0.802  0.00  0.00    +0.127 A 
ATOM     29  C   UNL     1      -5.264   1.711   1.065  0.00  0.00    +0.003 A 
ATOM     30  C   UNL     1      -5.583   0.972  -0.074  0.00  0.00    +0.033 A 
BRANCH  28   9
ATOM      2  O   UNL     1      -6.102  -0.494  -2.314  0.00  0.00    -0.126 OA
ATOM      3  O   UNL     1      -3.978  -0.970  -2.603  0.00  0.00    -0.126 OA
ATOM      9  N   UNL     1      -4.901  -0.410  -1.962  0.00  0.00    +0.056 N 
ENDBRANCH  28   9
ENDBRANCH  24  25
ENDBRANCH  16  22
BRANCH   4  11
ATOM     11  C   UNL     1       2.081  -1.231   1.317  0.00  0.00    +0.089 C 
BRANCH  11  10
ATOM     10  C   UNL     1       1.944  -2.594   0.639  0.00  0.00    +0.003 C 
ATOM     12  C   UNL     1       1.543  -3.668   1.658  0.00  0.00    +0.005 C 
ATOM     13  C   UNL     1       0.932  -2.527  -0.512  0.00  0.00    +0.005 C 
ATOM     14  C   UNL     1       1.348  -5.030   0.995  0.00  0.00    +0.000 C 
ATOM     15  C   UNL     1       0.738  -3.890  -1.172  0.00  0.00    +0.000 C 
ATOM     17  C   UNL     1       0.347  -4.958  -0.154  0.00  0.00    +0.000 C 
ENDBRANCH  11  10
ENDBRANCH   4  11
TORSDOF 5
