MODEL 1
REMARK VINA RESULT:      -7.2      0.000      0.000
REMARK  Name = 75536991
REMARK  5 active torsions:
REMARK  status: ('A' for Active; 'I' for Inactive)
REMARK    1  A    between atoms: O_4  and  C_18
REMARK    2  A    between atoms: O_4  and  C_24
REMARK    3  A    between atoms: N_7  and  C_15
REMARK    4  A    between atoms: C_15  and  C_17
REMARK    5  A    between atoms: C_16  and  C_18
REMARK                            x       y       z     vdW  Elec       q    Type
REMARK                         _______ _______ _______ _____ _____    ______ ____
ROOT
ATOM      2  O   UNL     1      11.946   6.551  20.191  0.00  0.00    -0.252 OA
ATOM      3  O   UNL     1      10.577  11.462  25.018  0.00  0.00    -0.263 OA
ATOM      6  N   UNL     1      12.294   8.309  21.709  0.00  0.00    -0.278 N 
ATOM      7  N   UNL     1      13.919   7.841  20.228  0.00  0.00    -0.279 N 
ATOM      8  N   UNL     1      11.690  10.622  23.127  0.00  0.00    -0.289 N 
ATOM      9  C   UNL     1      13.388   9.193  22.075  0.00  0.00    +0.112 C 
ATOM     10  C   UNL     1      14.395   9.013  20.941  0.00  0.00    +0.133 C 
ATOM     11  C   UNL     1      12.881  10.621  22.260  0.00  0.00    +0.132 C 
ATOM     12  C   UNL     1      11.068   8.320  22.486  0.00  0.00    +0.128 C 
ATOM     13  C   UNL     1      10.590   9.757  22.682  0.00  0.00    +0.127 C 
ATOM     14  C   UNL     1      12.633   7.451  20.653  0.00  0.00    +0.306 C 
ATOM     16  C   UNL     1      11.544  11.390  24.273  0.00  0.00    +0.324 C 
ENDROOT
BRANCH  16  18
ATOM      5  O   UNL     1      12.940  13.279  24.076  0.00  0.00    -0.240 OA
ATOM     18  C   UNL     1      12.705  12.231  24.646  0.00  0.00    +0.395 C 
BRANCH  18   4
ATOM      4  O   UNL     1      13.356  11.624  25.655  0.00  0.00    -0.461 OA
ATOM     24  C   UNL     1      14.780  11.584  25.524  0.00  0.00    +0.280 C 
ENDBRANCH  18   4
ENDBRANCH  16  18
BRANCH   7  15
ATOM     15  C   UNL     1      14.657   7.262  19.128  0.00  0.00    +0.144 C 
BRANCH  15  17
ATOM      1  F   UNL     1      19.766   5.506  20.715  0.00  0.00    -0.205 F 
ATOM     17  C   UNL     1      16.020   6.793  19.551  0.00  0.00    -0.030 A 
ATOM     19  C   UNL     1      16.542   7.190  20.782  0.00  0.00    +0.008 A 
ATOM     20  C   UNL     1      16.763   5.961  18.713  0.00  0.00    +0.008 A 
ATOM     21  C   UNL     1      17.808   6.755  21.175  0.00  0.00    +0.038 A 
ATOM     22  C   UNL     1      18.028   5.527  19.106  0.00  0.00    +0.038 A 
ATOM     23  C   UNL     1      18.551   5.923  20.338  0.00  0.00    +0.123 A 
ENDBRANCH  15  17
ENDBRANCH   7  15
TORSDOF 4
ENDMDL
MODEL 2
REMARK VINA RESULT:      -6.9      4.467      6.122
REMARK  Name = 75536991
REMARK  5 active torsions:
REMARK  status: ('A' for Active; 'I' for Inactive)
REMARK    1  A    between atoms: O_4  and  C_18
REMARK    2  A    between atoms: O_4  and  C_24
REMARK    3  A    between atoms: N_7  and  C_15
REMARK    4  A    between atoms: C_15  and  C_17
REMARK    5  A    between atoms: C_16  and  C_18
REMARK                            x       y       z     vdW  Elec       q    Type
REMARK                         _______ _______ _______ _____ _____    ______ ____
ROOT
ATOM      2  O   UNL     1      12.129   7.039  18.961  0.00  0.00    -0.252 OA
ATOM      3  O   UNL     1      12.699  11.716  13.756  0.00  0.00    -0.263 OA
ATOM      6  N   UNL     1      12.848   8.924  17.758  0.00  0.00    -0.278 N 
ATOM      7  N   UNL     1      14.022   8.305  19.572  0.00  0.00    -0.279 N 
ATOM      8  N   UNL     1      13.547  10.419  15.521  0.00  0.00    -0.289 N 
ATOM      9  C   UNL     1      13.855   9.961  17.915  0.00  0.00    +0.112 C 
ATOM     10  C   UNL     1      14.766   9.421  19.014  0.00  0.00    +0.133 C 
ATOM     11  C   UNL     1      14.551  10.234  16.584  0.00  0.00    +0.132 C 
ATOM     12  C   UNL     1      11.878   9.018  16.683  0.00  0.00    +0.128 C 
ATOM     13  C   UNL     1      12.589   9.316  15.365  0.00  0.00    +0.127 C 
ATOM     14  C   UNL     1      12.900   7.973  18.787  0.00  0.00    +0.306 C 
ATOM     16  C   UNL     1      13.482  11.514  14.673  0.00  0.00    +0.324 C 
ENDROOT
BRANCH  16  18
ATOM      5  O   UNL     1      14.301  13.461  15.718  0.00  0.00    -0.240 OA
ATOM     18  C   UNL     1      14.487  12.577  14.904  0.00  0.00    +0.395 C 
BRANCH  18   4
ATOM      4  O   UNL     1      15.535  12.349  14.091  0.00  0.00    -0.461 OA
ATOM     24  C   UNL     1      16.820  12.595  14.670  0.00  0.00    +0.280 C 
ENDBRANCH  18   4
ENDBRANCH  16  18
BRANCH   7  15
ATOM     15  C   UNL     1      14.494   7.569  20.724  0.00  0.00    +0.144 C 
BRANCH  15  17
ATOM      1  F   UNL     1      19.740   5.656  19.996  0.00  0.00    -0.205 F 
ATOM     17  C   UNL     1      15.893   7.059  20.530  0.00  0.00    -0.030 A 
ATOM     19  C   UNL     1      16.892   7.397  21.443  0.00  0.00    +0.008 A 
ATOM     20  C   UNL     1      16.194   6.246  19.437  0.00  0.00    +0.008 A 
ATOM     21  C   UNL     1      18.191   6.924  21.262  0.00  0.00    +0.038 A 
ATOM     22  C   UNL     1      17.493   5.772  19.256  0.00  0.00    +0.038 A 
ATOM     23  C   UNL     1      18.493   6.111  20.169  0.00  0.00    +0.123 A 
ENDBRANCH  15  17
ENDBRANCH   7  15
TORSDOF 4
ENDMDL
MODEL 3
REMARK VINA RESULT:      -6.6     27.189     28.572
REMARK  Name = 75536991
REMARK  5 active torsions:
REMARK  status: ('A' for Active; 'I' for Inactive)
REMARK    1  A    between atoms: O_4  and  C_18
REMARK    2  A    between atoms: O_4  and  C_24
REMARK    3  A    between atoms: N_7  and  C_15
REMARK    4  A    between atoms: C_15  and  C_17
REMARK    5  A    between atoms: C_16  and  C_18
REMARK                            x       y       z     vdW  Elec       q    Type
REMARK                         _______ _______ _______ _____ _____    ______ ____
ROOT
ATOM      2  O   UNL     1      -1.280 -11.435  15.073  0.00  0.00    -0.252 OA
ATOM      3  O   UNL     1      -7.065 -10.604  18.964  0.00  0.00    -0.263 OA
ATOM      6  N   UNL     1      -3.500 -10.919  15.644  0.00  0.00    -0.278 N 
ATOM      7  N   UNL     1      -2.974 -11.101  13.466  0.00  0.00    -0.279 N 
ATOM      8  N   UNL     1      -5.918 -11.163  16.992  0.00  0.00    -0.289 N 
ATOM      9  C   UNL     1      -4.716 -10.547  14.941  0.00  0.00    +0.112 C 
ATOM     10  C   UNL     1      -4.408 -10.875  13.482  0.00  0.00    +0.133 C 
ATOM     11  C   UNL     1      -5.917 -11.286  15.523  0.00  0.00    +0.132 C 
ATOM     12  C   UNL     1      -3.467 -10.885  17.094  0.00  0.00    +0.128 C 
ATOM     13  C   UNL     1      -4.688 -11.608  17.659  0.00  0.00    +0.127 C 
ATOM     14  C   UNL     1      -2.437 -11.180  14.767  0.00  0.00    +0.306 C 
ATOM     16  C   UNL     1      -6.986 -10.703  17.748  0.00  0.00    +0.324 C 
ENDROOT
BRANCH  16  18
ATOM      5  O   UNL     1      -9.018 -11.078  16.613  0.00  0.00    -0.240 OA
ATOM     18  C   UNL     1      -8.185 -10.276  16.990  0.00  0.00    +0.395 C 
BRANCH  18   4
ATOM      4  O   UNL     1      -8.134  -8.939  16.843  0.00  0.00    -0.461 OA
ATOM     24  C   UNL     1      -9.382  -8.260  17.015  0.00  0.00    +0.280 C 
ENDBRANCH  18   4
ENDBRANCH  16  18
BRANCH   7  15
ATOM     15  C   UNL     1      -2.249 -11.344  12.238  0.00  0.00    +0.144 C 
BRANCH  15  17
ATOM      1  F   UNL     1      -5.078  -9.505   7.730  0.00  0.00    -0.205 F 
ATOM     17  C   UNL     1      -3.004 -10.854  11.036  0.00  0.00    -0.030 A 
ATOM     19  C   UNL     1      -3.722 -11.754  10.248  0.00  0.00    +0.008 A 
ATOM     20  C   UNL     1      -2.987  -9.498  10.707  0.00  0.00    +0.008 A 
ATOM     21  C   UNL     1      -4.422 -11.298   9.131  0.00  0.00    +0.038 A 
ATOM     22  C   UNL     1      -3.687  -9.042   9.590  0.00  0.00    +0.038 A 
ATOM     23  C   UNL     1      -4.405  -9.943   8.801  0.00  0.00    +0.123 A 
ENDBRANCH  15  17
ENDBRANCH   7  15
TORSDOF 4
ENDMDL
MODEL 4
REMARK VINA RESULT:      -6.6      2.693      4.538
REMARK  Name = 75536991
REMARK  5 active torsions:
REMARK  status: ('A' for Active; 'I' for Inactive)
REMARK    1  A    between atoms: O_4  and  C_18
REMARK    2  A    between atoms: O_4  and  C_24
REMARK    3  A    between atoms: N_7  and  C_15
REMARK    4  A    between atoms: C_15  and  C_17
REMARK    5  A    between atoms: C_16  and  C_18
REMARK                            x       y       z     vdW  Elec       q    Type
REMARK                         _______ _______ _______ _____ _____    ______ ____
ROOT
ATOM      2  O   UNL     1      16.883   5.961  18.272  0.00  0.00    -0.252 OA
ATOM      3  O   UNL     1      10.454   8.524  19.451  0.00  0.00    -0.263 OA
ATOM      6  N   UNL     1      14.993   6.725  19.438  0.00  0.00    -0.278 N 
ATOM      7  N   UNL     1      16.918   6.481  20.571  0.00  0.00    -0.279 N 
ATOM      8  N   UNL     1      12.742   8.283  19.924  0.00  0.00    -0.289 N 
ATOM      9  C   UNL     1      14.643   7.011  20.819  0.00  0.00    +0.112 C 
ATOM     10  C   UNL     1      15.991   7.046  21.536  0.00  0.00    +0.133 C 
ATOM     11  C   UNL     1      13.838   8.304  20.909  0.00  0.00    +0.132 C 
ATOM     12  C   UNL     1      13.966   6.760  18.412  0.00  0.00    +0.128 C 
ATOM     13  C   UNL     1      13.155   8.048  18.534  0.00  0.00    +0.127 C 
ATOM     14  C   UNL     1      16.333   6.338  19.297  0.00  0.00    +0.306 C 
ATOM     16  C   UNL     1      11.405   8.498  20.220  0.00  0.00    +0.324 C 
ENDROOT
BRANCH  16  18
ATOM      5  O   UNL     1      10.845   7.800  22.400  0.00  0.00    -0.240 OA
ATOM     18  C   UNL     1      11.082   8.725  21.648  0.00  0.00    +0.395 C 
BRANCH  18   4
ATOM      4  O   UNL     1      11.116  10.050  21.881  0.00  0.00    -0.461 OA
ATOM     24  C   UNL     1      10.913  10.434  23.244  0.00  0.00    +0.280 C 
ENDBRANCH  18   4
ENDBRANCH  16  18
BRANCH   7  15
ATOM     15  C   UNL     1      18.306   6.236  20.895  0.00  0.00    +0.144 C 
BRANCH  15  17
ATOM      1  F   UNL     1      20.587  10.518  23.754  0.00  0.00    -0.205 F 
ATOM     17  C   UNL     1      18.914   7.378  21.657  0.00  0.00    -0.030 A 
ATOM     19  C   UNL     1      19.695   7.126  22.786  0.00  0.00    +0.008 A 
ATOM     20  C   UNL     1      18.700   8.691  21.237  0.00  0.00    +0.008 A 
ATOM     21  C   UNL     1      20.259   8.187  23.494  0.00  0.00    +0.038 A 
ATOM     22  C   UNL     1      19.265   9.752  21.945  0.00  0.00    +0.038 A 
ATOM     23  C   UNL     1      20.045   9.500  23.075  0.00  0.00    +0.123 A 
ENDBRANCH  15  17
ENDBRANCH   7  15
TORSDOF 4
ENDMDL
MODEL 5
REMARK VINA RESULT:      -6.6      4.771      7.937
REMARK  Name = 75536991
REMARK  5 active torsions:
REMARK  status: ('A' for Active; 'I' for Inactive)
REMARK    1  A    between atoms: O_4  and  C_18
REMARK    2  A    between atoms: O_4  and  C_24
REMARK    3  A    between atoms: N_7  and  C_15
REMARK    4  A    between atoms: C_15  and  C_17
REMARK    5  A    between atoms: C_16  and  C_18
REMARK                            x       y       z     vdW  Elec       q    Type
REMARK                         _______ _______ _______ _____ _____    ______ ____
ROOT
ATOM      2  O   UNL     1      15.685   9.689  20.425  0.00  0.00    -0.252 OA
ATOM      3  O   UNL     1      21.820   7.059  22.604  0.00  0.00    -0.263 OA
ATOM      6  N   UNL     1      17.369   8.121  20.902  0.00  0.00    -0.278 N 
ATOM      7  N   UNL     1      15.661   7.485  19.587  0.00  0.00    -0.279 N 
ATOM      8  N   UNL     1      19.959   7.152  21.172  0.00  0.00    -0.289 N 
ATOM      9  C   UNL     1      17.598   6.706  20.663  0.00  0.00    +0.112 C 
ATOM     10  C   UNL     1      16.556   6.342  19.608  0.00  0.00    +0.133 C 
ATOM     11  C   UNL     1      19.045   6.464  20.243  0.00  0.00    +0.132 C 
ATOM     12  C   UNL     1      18.280   8.866  21.752  0.00  0.00    +0.128 C 
ATOM     13  C   UNL     1      19.722   8.592  21.334  0.00  0.00    +0.127 C 
ATOM     14  C   UNL     1      16.175   8.572  20.321  0.00  0.00    +0.306 C 
ATOM     16  C   UNL     1      21.009   6.545  21.846  0.00  0.00    +0.324 C 
ENDROOT
BRANCH  16  18
ATOM      5  O   UNL     1      21.044   4.598  20.519  0.00  0.00    -0.240 OA
ATOM     18  C   UNL     1      21.172   5.090  21.623  0.00  0.00    +0.395 C 
BRANCH  18   4
ATOM      4  O   UNL     1      21.467   4.515  22.803  0.00  0.00    -0.461 OA
ATOM     24  C   UNL     1      22.372   3.409  22.733  0.00  0.00    +0.280 C 
ENDBRANCH  18   4
ENDBRANCH  16  18
BRANCH   7  15
ATOM     15  C   UNL     1      14.459   7.502  18.783  0.00  0.00    +0.144 C 
BRANCH  15  17
ATOM      1  F   UNL     1       9.804   7.537  21.952  0.00  0.00    -0.205 F 
ATOM     17  C   UNL     1      13.218   7.511  19.628  0.00  0.00    -0.030 A 
ATOM     19  C   UNL     1      12.205   8.436  19.370  0.00  0.00    +0.008 A 
ATOM     20  C   UNL     1      13.076   6.595  20.670  0.00  0.00    +0.008 A 
ATOM     21  C   UNL     1      11.053   8.445  20.155  0.00  0.00    +0.038 A 
ATOM     22  C   UNL     1      11.924   6.604  21.456  0.00  0.00    +0.038 A 
ATOM     23  C   UNL     1      10.911   7.529  21.198  0.00  0.00    +0.123 A 
ENDBRANCH  15  17
ENDBRANCH   7  15
TORSDOF 4
ENDMDL
MODEL 6
REMARK VINA RESULT:      -6.5     27.344     28.822
REMARK  Name = 75536991
REMARK  5 active torsions:
REMARK  status: ('A' for Active; 'I' for Inactive)
REMARK    1  A    between atoms: O_4  and  C_18
REMARK    2  A    between atoms: O_4  and  C_24
REMARK    3  A    between atoms: N_7  and  C_15
REMARK    4  A    between atoms: C_15  and  C_17
REMARK    5  A    between atoms: C_16  and  C_18
REMARK                            x       y       z     vdW  Elec       q    Type
REMARK                         _______ _______ _______ _____ _____    ______ ____
ROOT
ATOM      2  O   UNL     1      -1.875 -11.839  14.994  0.00  0.00    -0.252 OA
ATOM      3  O   UNL     1      -6.331 -10.734  20.306  0.00  0.00    -0.263 OA
ATOM      6  N   UNL     1      -3.891 -11.474  16.142  0.00  0.00    -0.278 N 
ATOM      7  N   UNL     1      -3.990 -12.167  14.006  0.00  0.00    -0.279 N 
ATOM      8  N   UNL     1      -5.713 -11.652  18.233  0.00  0.00    -0.289 N 
ATOM      9  C   UNL     1      -5.308 -11.462  15.818  0.00  0.00    +0.112 C 
ATOM     10  C   UNL     1      -5.374 -12.128  14.446  0.00  0.00    +0.133 C 
ATOM     11  C   UNL     1      -6.111 -12.164  16.910  0.00  0.00    +0.132 C 
ATOM     12  C   UNL     1      -3.448 -11.048  17.457  0.00  0.00    +0.128 C 
ATOM     13  C   UNL     1      -4.279 -11.742  18.535  0.00  0.00    +0.127 C 
ATOM     14  C   UNL     1      -3.097 -11.825  15.041  0.00  0.00    +0.306 C 
ATOM     16  C   UNL     1      -6.588 -11.146  19.183  0.00  0.00    +0.324 C 
ENDROOT
BRANCH  16  18
ATOM      5  O   UNL     1      -8.435 -10.240  18.034  0.00  0.00    -0.240 OA
ATOM     18  C   UNL     1      -8.016 -11.093  18.792  0.00  0.00    +0.395 C 
BRANCH  18   4
ATOM      4  O   UNL     1      -8.657 -12.104  19.406  0.00  0.00    -0.461 OA
ATOM     24  C   UNL     1      -9.967 -11.791  19.887  0.00  0.00    +0.280 C 
ENDBRANCH  18   4
ENDBRANCH  16  18
BRANCH   7  15
ATOM     15  C   UNL     1      -3.618 -12.637  12.690  0.00  0.00    +0.144 C 
BRANCH  15  17
ATOM      1  F   UNL     1      -3.801  -8.518   8.854  0.00  0.00    -0.205 F 
ATOM     17  C   UNL     1      -3.667 -11.538  11.667  0.00  0.00    -0.030 A 
ATOM     19  C   UNL     1      -2.648 -10.587  11.616  0.00  0.00    +0.008 A 
ATOM     20  C   UNL     1      -4.731 -11.469  10.767  0.00  0.00    +0.008 A 
ATOM     21  C   UNL     1      -2.694  -9.567  10.666  0.00  0.00    +0.038 A 
ATOM     22  C   UNL     1      -4.777 -10.449   9.818  0.00  0.00    +0.038 A 
ATOM     23  C   UNL     1      -3.758  -9.497   9.767  0.00  0.00    +0.123 A 
ENDBRANCH  15  17
ENDBRANCH   7  15
TORSDOF 4
ENDMDL
MODEL 7
REMARK VINA RESULT:      -6.3     27.648     28.984
REMARK  Name = 75536991
REMARK  5 active torsions:
REMARK  status: ('A' for Active; 'I' for Inactive)
REMARK    1  A    between atoms: O_4  and  C_18
REMARK    2  A    between atoms: O_4  and  C_24
REMARK    3  A    between atoms: N_7  and  C_15
REMARK    4  A    between atoms: C_15  and  C_17
REMARK    5  A    between atoms: C_16  and  C_18
REMARK                            x       y       z     vdW  Elec       q    Type
REMARK                         _______ _______ _______ _____ _____    ______ ____
ROOT
ATOM      2  O   UNL     1      -2.827 -14.255  13.386  0.00  0.00    -0.252 OA
ATOM      3  O   UNL     1      -7.259 -12.993  18.684  0.00  0.00    -0.263 OA
ATOM      6  N   UNL     1      -3.936 -13.105  15.108  0.00  0.00    -0.278 N 
ATOM      7  N   UNL     1      -2.707 -11.916  13.650  0.00  0.00    -0.279 N 
ATOM      8  N   UNL     1      -6.058 -12.393  16.756  0.00  0.00    -0.289 N 
ATOM      9  C   UNL     1      -3.982 -11.744  15.616  0.00  0.00    +0.112 C 
ATOM     10  C   UNL     1      -3.323 -10.921  14.511  0.00  0.00    +0.133 C 
ATOM     11  C   UNL     1      -5.418 -11.344  15.942  0.00  0.00    +0.132 C 
ATOM     12  C   UNL     1      -4.611 -14.167  15.831  0.00  0.00    +0.128 C 
ATOM     13  C   UNL     1      -6.037 -13.739  16.171  0.00  0.00    +0.127 C 
ATOM     14  C   UNL     1      -3.117 -13.224  13.976  0.00  0.00    +0.306 C 
ATOM     16  C   UNL     1      -6.684 -12.179  17.975  0.00  0.00    +0.324 C 
ENDROOT
BRANCH  16  18
ATOM      5  O   UNL     1      -5.654 -10.319  18.991  0.00  0.00    -0.240 OA
ATOM     18  C   UNL     1      -6.656 -10.789  18.487  0.00  0.00    +0.395 C 
BRANCH  18   4
ATOM      4  O   UNL     1      -7.866 -10.240  18.279  0.00  0.00    -0.461 OA
ATOM     24  C   UNL     1      -7.903  -9.203  17.294  0.00  0.00    +0.280 C 
ENDBRANCH  18   4
ENDBRANCH  16  18
BRANCH   7  15
ATOM     15  C   UNL     1      -1.882 -11.546  12.521  0.00  0.00    +0.144 C 
BRANCH  15  17
ATOM      1  F   UNL     1      -4.958  -9.680   8.190  0.00  0.00    -0.205 F 
ATOM     17  C   UNL     1      -2.702 -11.048  11.366  0.00  0.00    -0.030 A 
ATOM     19  C   UNL     1      -3.534 -11.927  10.671  0.00  0.00    +0.008 A 
ATOM     20  C   UNL     1      -2.634  -9.707  10.988  0.00  0.00    +0.008 A 
ATOM     21  C   UNL     1      -4.295 -11.465   9.598  0.00  0.00    +0.038 A 
ATOM     22  C   UNL     1      -3.395  -9.245   9.915  0.00  0.00    +0.038 A 
ATOM     23  C   UNL     1      -4.226 -10.124   9.219  0.00  0.00    +0.123 A 
ENDBRANCH  15  17
ENDBRANCH   7  15
TORSDOF 4
ENDMDL
MODEL 8
REMARK VINA RESULT:      -6.2      3.044      3.689
REMARK  Name = 75536991
REMARK  5 active torsions:
REMARK  status: ('A' for Active; 'I' for Inactive)
REMARK    1  A    between atoms: O_4  and  C_18
REMARK    2  A    between atoms: O_4  and  C_24
REMARK    3  A    between atoms: N_7  and  C_15
REMARK    4  A    between atoms: C_15  and  C_17
REMARK    5  A    between atoms: C_16  and  C_18
REMARK                            x       y       z     vdW  Elec       q    Type
REMARK                         _______ _______ _______ _____ _____    ______ ____
ROOT
ATOM      2  O   UNL     1      10.821   8.021  20.258  0.00  0.00    -0.252 OA
ATOM      3  O   UNL     1      11.883  12.313  25.712  0.00  0.00    -0.263 OA
ATOM      6  N   UNL     1      11.944   9.204  21.948  0.00  0.00    -0.278 N 
ATOM      7  N   UNL     1      13.166   8.251  20.320  0.00  0.00    -0.279 N 
ATOM      8  N   UNL     1      12.478  11.322  23.666  0.00  0.00    -0.289 N 
ATOM      9  C   UNL     1      13.324   9.433  22.344  0.00  0.00    +0.112 C 
ATOM     10  C   UNL     1      14.131   8.968  21.134  0.00  0.00    +0.133 C 
ATOM     11  C   UNL     1      13.532  10.895  22.729  0.00  0.00    +0.132 C 
ATOM     12  C   UNL     1      10.863   9.668  22.798  0.00  0.00    +0.128 C 
ATOM     13  C   UNL     1      11.102  11.123  23.194  0.00  0.00    +0.127 C 
ATOM     14  C   UNL     1      11.846   8.437  20.778  0.00  0.00    +0.306 C 
ATOM     16  C   UNL     1      12.706  11.909  24.902  0.00  0.00    +0.324 C 
ENDROOT
BRANCH  16  18
ATOM      5  O   UNL     1      14.809  12.973  24.855  0.00  0.00    -0.240 OA
ATOM     18  C   UNL     1      14.125  12.069  25.295  0.00  0.00    +0.395 C 
BRANCH  18   4
ATOM      4  O   UNL     1      14.434  11.087  26.162  0.00  0.00    -0.461 OA
ATOM     24  C   UNL     1      15.431  11.421  27.131  0.00  0.00    +0.280 C 
ENDBRANCH  18   4
ENDBRANCH  16  18
BRANCH   7  15
ATOM     15  C   UNL     1      13.550   7.553  19.113  0.00  0.00    +0.144 C 
BRANCH  15  17
ATOM      1  F   UNL     1      14.151  11.065  14.752  0.00  0.00    -0.205 F 
ATOM     17  C   UNL     1      13.710   8.490  17.949  0.00  0.00    -0.030 A 
ATOM     19  C   UNL     1      13.498   9.858  18.121  0.00  0.00    +0.008 A 
ATOM     20  C   UNL     1      14.073   7.992  16.698  0.00  0.00    +0.008 A 
ATOM     21  C   UNL     1      13.646  10.727  17.041  0.00  0.00    +0.038 A 
ATOM     22  C   UNL     1      14.221   8.862  15.617  0.00  0.00    +0.038 A 
ATOM     23  C   UNL     1      14.008  10.230  15.789  0.00  0.00    +0.123 A 
ENDBRANCH  15  17
ENDBRANCH   7  15
TORSDOF 4
ENDMDL
MODEL 9
REMARK VINA RESULT:      -6.2     16.810     20.183
REMARK  Name = 75536991
REMARK  5 active torsions:
REMARK  status: ('A' for Active; 'I' for Inactive)
REMARK    1  A    between atoms: O_4  and  C_18
REMARK    2  A    between atoms: O_4  and  C_24
REMARK    3  A    between atoms: N_7  and  C_15
REMARK    4  A    between atoms: C_15  and  C_17
REMARK    5  A    between atoms: C_16  and  C_18
REMARK                            x       y       z     vdW  Elec       q    Type
REMARK                         _______ _______ _______ _____ _____    ______ ____
ROOT
ATOM      2  O   UNL     1      12.125   7.978   5.346  0.00  0.00    -0.252 OA
ATOM      3  O   UNL     1      15.153   5.214  -0.354  0.00  0.00    -0.263 OA
ATOM      6  N   UNL     1      12.468   6.583   3.488  0.00  0.00    -0.278 N 
ATOM      7  N   UNL     1      10.435   6.602   4.445  0.00  0.00    -0.279 N 
ATOM      8  N   UNL     1      13.304   5.888   0.929  0.00  0.00    -0.289 N 
ATOM      9  C   UNL     1      11.719   5.560   2.777  0.00  0.00    +0.112 C 
ATOM     10  C   UNL     1      10.292   5.730   3.293  0.00  0.00    +0.133 C 
ATOM     11  C   UNL     1      11.879   5.733   1.269  0.00  0.00    +0.132 C 
ATOM     12  C   UNL     1      13.858   6.828   3.145  0.00  0.00    +0.128 C 
ATOM     13  C   UNL     1      14.001   6.973   1.632  0.00  0.00    +0.127 C 
ATOM     14  C   UNL     1      11.728   7.156   4.531  0.00  0.00    +0.306 C 
ATOM     16  C   UNL     1      13.985   5.120  -0.004  0.00  0.00    +0.324 C 
ENDROOT
BRANCH  16  18
ATOM      5  O   UNL     1      13.049   2.962  -0.139  0.00  0.00    -0.240 OA
ATOM     18  C   UNL     1      13.202   4.049  -0.662  0.00  0.00    +0.395 C 
BRANCH  18   4
ATOM      4  O   UNL     1      12.752   4.520  -1.839  0.00  0.00    -0.461 OA
ATOM     24  C   UNL     1      13.249   3.842  -2.997  0.00  0.00    +0.280 C 
ENDBRANCH  18   4
ENDBRANCH  16  18
BRANCH   7  15
ATOM     15  C   UNL     1       9.315   6.935   5.297  0.00  0.00    +0.144 C 
BRANCH  15  17
ATOM      1  F   UNL     1       9.552   4.240  10.236  0.00  0.00    -0.205 F 
ATOM     17  C   UNL     1       9.378   6.217   6.614  0.00  0.00    -0.030 A 
ATOM     19  C   UNL     1       9.802   4.888   6.665  0.00  0.00    +0.008 A 
ATOM     20  C   UNL     1       9.014   6.877   7.788  0.00  0.00    +0.008 A 
ATOM     21  C   UNL     1       9.860   4.221   7.888  0.00  0.00    +0.038 A 
ATOM     22  C   UNL     1       9.072   6.210   9.011  0.00  0.00    +0.038 A 
ATOM     23  C   UNL     1       9.496   4.881   9.062  0.00  0.00    +0.123 A 
ENDBRANCH  15  17
ENDBRANCH   7  15
TORSDOF 4
ENDMDL
MODEL 10
REMARK VINA RESULT:      -6.0     27.512     30.248
REMARK  Name = 75536991
REMARK  5 active torsions:
REMARK  status: ('A' for Active; 'I' for Inactive)
REMARK    1  A    between atoms: O_4  and  C_18
REMARK    2  A    between atoms: O_4  and  C_24
REMARK    3  A    between atoms: N_7  and  C_15
REMARK    4  A    between atoms: C_15  and  C_17
REMARK    5  A    between atoms: C_16  and  C_18
REMARK                            x       y       z     vdW  Elec       q    Type
REMARK                         _______ _______ _______ _____ _____    ______ ____
ROOT
ATOM      2  O   UNL     1     -10.460 -10.322  19.843  0.00  0.00    -0.252 OA
ATOM      3  O   UNL     1      -3.654 -11.636  18.724  0.00  0.00    -0.263 OA
ATOM      6  N   UNL     1      -8.475 -10.864  18.709  0.00  0.00    -0.278 N 
ATOM      7  N   UNL     1     -10.287 -10.329  17.492  0.00  0.00    -0.279 N 
ATOM      8  N   UNL     1      -5.759 -10.783  18.123  0.00  0.00    -0.289 N 
ATOM      9  C   UNL     1      -8.066 -11.077  17.331  0.00  0.00    +0.112 C 
ATOM     10  C   UNL     1      -9.227 -10.514  16.515  0.00  0.00    +0.133 C 
ATOM     11  C   UNL     1      -6.717 -10.413  17.067  0.00  0.00    +0.132 C 
ATOM     12  C   UNL     1      -7.546 -11.144  19.789  0.00  0.00    +0.128 C 
ATOM     13  C   UNL     1      -6.196 -10.494  19.495  0.00  0.00    +0.127 C 
ATOM     14  C   UNL     1      -9.822 -10.487  18.812  0.00  0.00    +0.306 C 
ATOM     16  C   UNL     1      -4.506 -11.334  17.900  0.00  0.00    +0.324 C 
ENDROOT
BRANCH  16  18
ATOM      5  O   UNL     1      -4.481 -12.620  15.924  0.00  0.00    -0.240 OA
ATOM     18  C   UNL     1      -4.151 -11.593  16.485  0.00  0.00    +0.395 C 
BRANCH  18   4
ATOM      4  O   UNL     1      -3.458 -10.534  16.026  0.00  0.00    -0.461 OA
ATOM     24  C   UNL     1      -2.080 -10.787  15.737  0.00  0.00    +0.280 C 
ENDBRANCH  18   4
ENDBRANCH  16  18
BRANCH   7  15
ATOM     15  C   UNL     1     -11.615  -9.902  17.109  0.00  0.00    +0.144 C 
BRANCH  15  17
ATOM      1  F   UNL     1     -11.516  -5.088  14.189  0.00  0.00    -0.205 F 
ATOM     17  C   UNL     1     -11.589  -8.618  16.330  0.00  0.00    -0.030 A 
ATOM     19  C   UNL     1     -11.097  -7.454  16.922  0.00  0.00    +0.008 A 
ATOM     20  C   UNL     1     -12.054  -8.590  15.015  0.00  0.00    +0.008 A 
ATOM     21  C   UNL     1     -11.074  -6.261  16.198  0.00  0.00    +0.038 A 
ATOM     22  C   UNL     1     -12.030  -7.398  14.292  0.00  0.00    +0.038 A 
ATOM     23  C   UNL     1     -11.539  -6.232  14.884  0.00  0.00    +0.123 A 
ENDBRANCH  15  17
ENDBRANCH   7  15
TORSDOF 4
ENDMDL
