MODEL 1
REMARK VINA RESULT:      -8.5      0.000      0.000
REMARK  Name = 11886074
REMARK  7 active torsions:
REMARK  status: ('A' for Active; 'I' for Inactive)
REMARK    1  A    between atoms: O_3  and  C_13
REMARK    2  A    between atoms: O_3  and  C_17
REMARK    3  A    between atoms: N_5  and  C_12
REMARK    4  A    between atoms: N_9  and  C_24
REMARK    5  A    between atoms: C_16  and  C_18
REMARK    6  A    between atoms: C_23  and  C_25
REMARK    7  A    between atoms: C_32  and  C_35
REMARK                            x       y       z     vdW  Elec       q    Type
REMARK                         _______ _______ _______ _____ _____    ______ ____
ROOT
ATOM      1  O   UNL     1      15.719   6.429  21.456  0.00  0.00    -0.368 OA
ATOM      2  O   UNL     1      16.760   9.183  20.512  0.00  0.00    -0.368 OA
ATOM     10  C   UNL     1      15.760   8.288  19.976  0.00  0.00    +0.177 C 
ATOM     11  C   UNL     1      16.266   6.878  20.207  0.00  0.00    +0.192 C 
ATOM     12  C   UNL     1      14.498   8.380  20.810  0.00  0.00    +0.168 C 
ATOM     13  C   UNL     1      17.762   7.070  20.290  0.00  0.00    +0.235 C 
ATOM     14  C   UNL     1      14.768   7.390  21.939  0.00  0.00    +0.190 C 
ATOM     15  C   UNL     1      17.871   8.408  20.983  0.00  0.00    +0.207 C 
ENDROOT
BRANCH  12   5
ATOM      5  N   UNL     1      13.287   8.124  20.026  0.00  0.00    -0.217 N 
ATOM      6  N   UNL     1      13.272   7.166  19.093  0.00  0.00    -0.043 NA
ATOM      7  N   UNL     1      11.291   8.184  19.197  0.00  0.00    -0.108 NA
ATOM      8  N   UNL     1      12.046   7.206  18.588  0.00  0.00    -0.023 NA
ATOM     16  C   UNL     1      12.082   8.739  20.087  0.00  0.00    +0.182 A 
BRANCH  16  18
ATOM     18  C   UNL     1      11.755   9.817  20.983  0.00  0.00    +0.021 A 
ATOM     19  C   UNL     1      11.104   9.552  22.189  0.00  0.00    +0.012 A 
ATOM     20  C   UNL     1      12.089  11.131  20.648  0.00  0.00    +0.012 A 
ATOM     21  C   UNL     1      10.787  10.598  23.056  0.00  0.00    +0.009 A 
ATOM     22  C   UNL     1      11.772  12.176  21.516  0.00  0.00    +0.009 A 
ATOM     23  C   UNL     1      11.122  11.909  22.720  0.00  0.00    -0.018 A 
BRANCH  23  25
ATOM     25  C   UNL     1      10.793  12.993  23.620  0.00  0.00    -0.018 A 
ATOM     30  C   UNL     1      10.298  14.195  23.112  0.00  0.00    +0.008 A 
ATOM     31  C   UNL     1      10.970  12.838  24.995  0.00  0.00    +0.008 A 
ATOM     33  C   UNL     1       9.980  15.240  23.980  0.00  0.00    +0.001 A 
ATOM     34  C   UNL     1      10.652  13.882  25.862  0.00  0.00    +0.001 A 
ATOM     36  C   UNL     1      10.158  15.084  25.354  0.00  0.00    +0.000 A 
ENDBRANCH  23  25
ENDBRANCH  16  18
ENDBRANCH  12   5
BRANCH  13   3
ATOM      3  O   UNL     1      18.423   6.047  20.999  0.00  0.00    -0.442 OA
BRANCH   3  17
ATOM      4  O   UNL     1      19.964   6.616  22.590  0.00  0.00    -0.226 OA
ATOM      9  N   UNL     1      20.586   6.185  20.375  0.00  0.00    -0.251 N 
ATOM     17  C   UNL     1      19.706   6.315  21.431  0.00  0.00    +0.405 C 
ATOM     37  H   UNL     1      20.179   5.925  19.480  0.00  0.00    +0.158 HD
BRANCH   9  24
ATOM     24  C   UNL     1      21.988   6.369  20.383  0.00  0.00    +0.036 A 
ATOM     26  C   UNL     1      22.506   7.649  20.269  0.00  0.00    +0.023 A 
ATOM     27  C   UNL     1      22.816   5.265  20.502  0.00  0.00    +0.023 A 
ATOM     28  C   UNL     1      23.889   7.830  20.276  0.00  0.00    +0.005 A 
ATOM     29  C   UNL     1      24.199   5.446  20.509  0.00  0.00    +0.005 A 
ATOM     32  C   UNL     1      24.736   6.729  20.396  0.00  0.00    -0.050 A 
ATOM     35  C   UNL     1      26.214   6.922  20.403  0.00  0.00    +0.044 C 
ENDBRANCH   9  24
ENDBRANCH   3  17
ENDBRANCH  13   3
TORSDOF 6
ENDMDL
MODEL 2
REMARK VINA RESULT:      -8.4      5.578     11.547
REMARK  Name = 11886074
REMARK  7 active torsions:
REMARK  status: ('A' for Active; 'I' for Inactive)
REMARK    1  A    between atoms: O_3  and  C_13
REMARK    2  A    between atoms: O_3  and  C_17
REMARK    3  A    between atoms: N_5  and  C_12
REMARK    4  A    between atoms: N_9  and  C_24
REMARK    5  A    between atoms: C_16  and  C_18
REMARK    6  A    between atoms: C_23  and  C_25
REMARK    7  A    between atoms: C_32  and  C_35
REMARK                            x       y       z     vdW  Elec       q    Type
REMARK                         _______ _______ _______ _____ _____    ______ ____
ROOT
ATOM      1  O   UNL     1      13.374   8.776  15.364  0.00  0.00    -0.368 OA
ATOM      2  O   UNL     1      14.857  10.926  17.018  0.00  0.00    -0.368 OA
ATOM     10  C   UNL     1      13.752  10.051  17.334  0.00  0.00    +0.177 C 
ATOM     11  C   UNL     1      12.913   9.935  16.077  0.00  0.00    +0.192 C 
ATOM     12  C   UNL     1      14.269   8.647  17.577  0.00  0.00    +0.168 C 
ATOM     13  C   UNL     1      13.241  11.211  15.338  0.00  0.00    +0.235 C 
ATOM     14  C   UNL     1      14.321   8.060  16.170  0.00  0.00    +0.190 C 
ATOM     15  C   UNL     1      14.701  11.406  15.676  0.00  0.00    +0.207 C 
ENDROOT
BRANCH  12   5
ATOM      5  N   UNL     1      13.448   7.905  18.537  0.00  0.00    -0.217 N 
ATOM      6  N   UNL     1      12.114   7.946  18.464  0.00  0.00    -0.043 NA
ATOM      7  N   UNL     1      12.762   6.657  20.164  0.00  0.00    -0.108 NA
ATOM      8  N   UNL     1      11.697   7.179  19.463  0.00  0.00    -0.023 NA
ATOM     16  C   UNL     1      13.837   7.120  19.570  0.00  0.00    +0.182 A 
BRANCH  16  18
ATOM     18  C   UNL     1      15.207   6.860  19.931  0.00  0.00    +0.021 A 
ATOM     19  C   UNL     1      16.066   6.243  19.020  0.00  0.00    +0.012 A 
ATOM     20  C   UNL     1      15.677   7.223  21.195  0.00  0.00    +0.012 A 
ATOM     21  C   UNL     1      17.393   5.991  19.372  0.00  0.00    +0.009 A 
ATOM     22  C   UNL     1      17.004   6.970  21.546  0.00  0.00    +0.009 A 
ATOM     23  C   UNL     1      17.861   6.355  20.634  0.00  0.00    -0.018 A 
BRANCH  23  25
ATOM     25  C   UNL     1      19.236   6.092  20.999  0.00  0.00    -0.018 A 
ATOM     30  C   UNL     1      19.792   6.712  22.119  0.00  0.00    +0.008 A 
ATOM     31  C   UNL     1      20.008   5.219  20.231  0.00  0.00    +0.008 A 
ATOM     33  C   UNL     1      21.117   6.459  22.470  0.00  0.00    +0.001 A 
ATOM     34  C   UNL     1      21.333   4.966  20.584  0.00  0.00    +0.001 A 
ATOM     36  C   UNL     1      21.888   5.587  21.702  0.00  0.00    +0.000 A 
ENDBRANCH  23  25
ENDBRANCH  16  18
ENDBRANCH  12   5
BRANCH  13   3
ATOM      3  O   UNL     1      13.022  11.130  13.948  0.00  0.00    -0.442 OA
BRANCH   3  17
ATOM      4  O   UNL     1      12.973  13.207  12.993  0.00  0.00    -0.226 OA
ATOM      9  N   UNL     1      11.030  11.925  13.250  0.00  0.00    -0.251 N 
ATOM     17  C   UNL     1      12.381  12.197  13.354  0.00  0.00    +0.405 C 
ATOM     37  H   UNL     1      10.725  11.024  13.608  0.00  0.00    +0.158 HD
BRANCH   9  24
ATOM     24  C   UNL     1      10.017  12.745  12.703  0.00  0.00    +0.036 A 
ATOM     26  C   UNL     1       9.642  13.899  13.373  0.00  0.00    +0.023 A 
ATOM     27  C   UNL     1       9.417  12.378  11.509  0.00  0.00    +0.023 A 
ATOM     28  C   UNL     1       8.641  14.708  12.834  0.00  0.00    +0.005 A 
ATOM     29  C   UNL     1       8.417  13.187  10.970  0.00  0.00    +0.005 A 
ATOM     32  C   UNL     1       8.029  14.352  11.632  0.00  0.00    -0.050 A 
ATOM     35  C   UNL     1       6.959  15.216  11.057  0.00  0.00    +0.044 C 
ENDBRANCH   9  24
ENDBRANCH   3  17
ENDBRANCH  13   3
TORSDOF 6
ENDMDL
MODEL 3
REMARK VINA RESULT:      -8.3     28.344     32.656
REMARK  Name = 11886074
REMARK  7 active torsions:
REMARK  status: ('A' for Active; 'I' for Inactive)
REMARK    1  A    between atoms: O_3  and  C_13
REMARK    2  A    between atoms: O_3  and  C_17
REMARK    3  A    between atoms: N_5  and  C_12
REMARK    4  A    between atoms: N_9  and  C_24
REMARK    5  A    between atoms: C_16  and  C_18
REMARK    6  A    between atoms: C_23  and  C_25
REMARK    7  A    between atoms: C_32  and  C_35
REMARK                            x       y       z     vdW  Elec       q    Type
REMARK                         _______ _______ _______ _____ _____    ______ ____
ROOT
ATOM      1  O   UNL     1     -15.418   3.202  24.832  0.00  0.00    -0.368 OA
ATOM      2  O   UNL     1     -18.015   4.725  24.127  0.00  0.00    -0.368 OA
ATOM     10  C   UNL     1     -17.750   3.330  24.392  0.00  0.00    +0.177 C 
ATOM     11  C   UNL     1     -16.392   3.020  23.793  0.00  0.00    +0.192 C 
ATOM     12  C   UNL     1     -17.565   3.122  25.882  0.00  0.00    +0.168 C 
ATOM     13  C   UNL     1     -16.259   4.069  22.713  0.00  0.00    +0.235 C 
ATOM     14  C   UNL     1     -16.085   3.433  26.083  0.00  0.00    +0.190 C 
ATOM     15  C   UNL     1     -16.940   5.261  23.343  0.00  0.00    +0.207 C 
ENDROOT
BRANCH  12   5
ATOM      5  N   UNL     1     -17.992   1.792  26.321  0.00  0.00    -0.217 N 
ATOM      6  N   UNL     1     -18.615   0.965  25.474  0.00  0.00    -0.043 NA
ATOM      7  N   UNL     1     -18.387   0.005  27.474  0.00  0.00    -0.108 NA
ATOM      8  N   UNL     1     -18.855  -0.129  26.186  0.00  0.00    -0.023 NA
ATOM     16  C   UNL     1     -17.855   1.204  27.533  0.00  0.00    +0.182 A 
BRANCH  16  18
ATOM     18  C   UNL     1     -17.228   1.818  28.676  0.00  0.00    +0.021 A 
ATOM     19  C   UNL     1     -17.839   2.902  29.310  0.00  0.00    +0.012 A 
ATOM     20  C   UNL     1     -16.009   1.331  29.150  0.00  0.00    +0.012 A 
ATOM     21  C   UNL     1     -17.231   3.496  30.417  0.00  0.00    +0.009 A 
ATOM     22  C   UNL     1     -15.402   1.925  30.257  0.00  0.00    +0.009 A 
ATOM     23  C   UNL     1     -16.014   3.007  30.890  0.00  0.00    -0.018 A 
BRANCH  23  25
ATOM     25  C   UNL     1     -15.384   3.624  32.037  0.00  0.00    -0.018 A 
ATOM     30  C   UNL     1     -14.974   4.956  31.977  0.00  0.00    +0.008 A 
ATOM     31  C   UNL     1     -15.185   2.887  33.206  0.00  0.00    +0.008 A 
ATOM     33  C   UNL     1     -14.367   5.551  33.083  0.00  0.00    +0.001 A 
ATOM     34  C   UNL     1     -14.578   3.481  34.311  0.00  0.00    +0.001 A 
ATOM     36  C   UNL     1     -14.168   4.813  34.249  0.00  0.00    +0.000 A 
ENDBRANCH  23  25
ENDBRANCH  16  18
ENDBRANCH  12   5
BRANCH  13   3
ATOM      3  O   UNL     1     -14.922   4.345  22.359  0.00  0.00    -0.442 OA
BRANCH   3  17
ATOM      4  O   UNL     1     -15.512   5.797  20.694  0.00  0.00    -0.226 OA
ATOM      9  N   UNL     1     -13.483   6.003  21.843  0.00  0.00    -0.251 N 
ATOM     17  C   UNL     1     -14.706   5.435  21.541  0.00  0.00    +0.405 C 
ATOM     37  H   UNL     1     -12.952   5.557  22.586  0.00  0.00    +0.158 HD
BRANCH   9  24
ATOM     24  C   UNL     1     -12.878   7.133  21.247  0.00  0.00    +0.036 A 
ATOM     26  C   UNL     1     -13.357   8.398  21.546  0.00  0.00    +0.023 A 
ATOM     27  C   UNL     1     -11.818   6.953  20.372  0.00  0.00    +0.023 A 
ATOM     28  C   UNL     1     -12.760   9.513  20.956  0.00  0.00    +0.005 A 
ATOM     29  C   UNL     1     -11.222   8.067  19.783  0.00  0.00    +0.005 A 
ATOM     32  C   UNL     1     -11.692   9.347  20.075  0.00  0.00    -0.050 A 
ATOM     35  C   UNL     1     -11.055  10.539  19.445  0.00  0.00    +0.044 C 
ENDBRANCH   9  24
ENDBRANCH   3  17
ENDBRANCH  13   3
TORSDOF 6
ENDMDL
MODEL 4
REMARK VINA RESULT:      -8.3     27.134     31.450
REMARK  Name = 11886074
REMARK  7 active torsions:
REMARK  status: ('A' for Active; 'I' for Inactive)
REMARK    1  A    between atoms: O_3  and  C_13
REMARK    2  A    between atoms: O_3  and  C_17
REMARK    3  A    between atoms: N_5  and  C_12
REMARK    4  A    between atoms: N_9  and  C_24
REMARK    5  A    between atoms: C_16  and  C_18
REMARK    6  A    between atoms: C_23  and  C_25
REMARK    7  A    between atoms: C_32  and  C_35
REMARK                            x       y       z     vdW  Elec       q    Type
REMARK                         _______ _______ _______ _____ _____    ______ ____
ROOT
ATOM      1  O   UNL     1     -13.809   4.730  22.576  0.00  0.00    -0.368 OA
ATOM      2  O   UNL     1     -15.968   6.813  23.323  0.00  0.00    -0.368 OA
ATOM     10  C   UNL     1     -16.055   5.484  22.764  0.00  0.00    +0.177 C 
ATOM     11  C   UNL     1     -14.877   5.327  21.823  0.00  0.00    +0.192 C 
ATOM     12  C   UNL     1     -15.812   4.458  23.853  0.00  0.00    +0.168 C 
ATOM     13  C   UNL     1     -14.562   6.755  21.444  0.00  0.00    +0.235 C 
ATOM     14  C   UNL     1     -14.291   4.342  23.871  0.00  0.00    +0.190 C 
ATOM     15  C   UNL     1     -14.858   7.496  22.726  0.00  0.00    +0.207 C 
ENDROOT
BRANCH  12   5
ATOM      5  N   UNL     1     -16.534   3.206  23.616  0.00  0.00    -0.217 N 
ATOM      6  N   UNL     1     -16.937   2.877  22.385  0.00  0.00    -0.043 NA
ATOM      7  N   UNL     1     -17.528   1.299  23.845  0.00  0.00    -0.108 NA
ATOM      8  N   UNL     1     -17.545   1.706  22.530  0.00  0.00    -0.023 NA
ATOM     16  C   UNL     1     -16.894   2.245  24.500  0.00  0.00    +0.182 A 
BRANCH  16  18
ATOM     18  C   UNL     1     -16.616   2.283  25.912  0.00  0.00    +0.021 A 
ATOM     19  C   UNL     1     -16.435   3.508  26.557  0.00  0.00    +0.012 A 
ATOM     20  C   UNL     1     -16.526   1.094  26.640  0.00  0.00    +0.012 A 
ATOM     21  C   UNL     1     -16.165   3.543  27.926  0.00  0.00    +0.009 A 
ATOM     22  C   UNL     1     -16.257   1.131  28.008  0.00  0.00    +0.009 A 
ATOM     23  C   UNL     1     -16.077   2.356  28.651  0.00  0.00    -0.018 A 
BRANCH  23  25
ATOM     25  C   UNL     1     -15.798   2.393  30.069  0.00  0.00    -0.018 A 
ATOM     30  C   UNL     1     -15.123   1.333  30.676  0.00  0.00    +0.008 A 
ATOM     31  C   UNL     1     -16.201   3.490  30.832  0.00  0.00    +0.008 A 
ATOM     33  C   UNL     1     -14.853   1.370  32.044  0.00  0.00    +0.001 A 
ATOM     34  C   UNL     1     -15.931   3.526  32.199  0.00  0.00    +0.001 A 
ATOM     36  C   UNL     1     -15.258   2.466  32.806  0.00  0.00    +0.000 A 
ENDBRANCH  23  25
ENDBRANCH  16  18
ENDBRANCH  12   5
BRANCH  13   3
ATOM      3  O   UNL     1     -13.232   6.943  21.014  0.00  0.00    -0.442 OA
BRANCH   3  17
ATOM      4  O   UNL     1     -13.859   7.912  19.040  0.00  0.00    -0.226 OA
ATOM      9  N   UNL     1     -11.815   8.417  20.063  0.00  0.00    -0.251 N 
ATOM     17  C   UNL     1     -13.037   7.785  19.939  0.00  0.00    +0.405 C 
ATOM     37  H   UNL     1     -11.269   8.180  20.887  0.00  0.00    +0.158 HD
BRANCH   9  24
ATOM     24  C   UNL     1     -11.228   9.357  19.185  0.00  0.00    +0.036 A 
ATOM     26  C   UNL     1     -10.470   8.907  18.116  0.00  0.00    +0.023 A 
ATOM     27  C   UNL     1     -11.422  10.710  19.412  0.00  0.00    +0.023 A 
ATOM     28  C   UNL     1      -9.890   9.834  17.250  0.00  0.00    +0.005 A 
ATOM     29  C   UNL     1     -10.842  11.638  18.545  0.00  0.00    +0.005 A 
ATOM     32  C   UNL     1     -10.077  11.200  17.465  0.00  0.00    -0.050 A 
ATOM     35  C   UNL     1      -9.457  12.191  16.540  0.00  0.00    +0.044 C 
ENDBRANCH   9  24
ENDBRANCH   3  17
ENDBRANCH  13   3
TORSDOF 6
ENDMDL
MODEL 5
REMARK VINA RESULT:      -8.0     29.170     32.762
REMARK  Name = 11886074
REMARK  7 active torsions:
REMARK  status: ('A' for Active; 'I' for Inactive)
REMARK    1  A    between atoms: O_3  and  C_13
REMARK    2  A    between atoms: O_3  and  C_17
REMARK    3  A    between atoms: N_5  and  C_12
REMARK    4  A    between atoms: N_9  and  C_24
REMARK    5  A    between atoms: C_16  and  C_18
REMARK    6  A    between atoms: C_23  and  C_25
REMARK    7  A    between atoms: C_32  and  C_35
REMARK                            x       y       z     vdW  Elec       q    Type
REMARK                         _______ _______ _______ _____ _____    ______ ____
ROOT
ATOM      1  O   UNL     1     -11.993  -8.357  17.232  0.00  0.00    -0.368 OA
ATOM      2  O   UNL     1      -9.769  -8.438  15.085  0.00  0.00    -0.368 OA
ATOM     10  C   UNL     1      -9.733  -8.558  16.525  0.00  0.00    +0.177 C 
ATOM     11  C   UNL     1     -10.780  -7.606  17.070  0.00  0.00    +0.192 C 
ATOM     12  C   UNL     1     -10.222  -9.934  16.932  0.00  0.00    +0.168 C 
ATOM     13  C   UNL     1     -10.901  -6.580  15.968  0.00  0.00    +0.235 C 
ATOM     14  C   UNL     1     -11.734  -9.749  16.994  0.00  0.00    +0.190 C 
ATOM     15  C   UNL     1     -10.716  -7.423  14.728  0.00  0.00    +0.207 C 
ENDROOT
BRANCH  12   5
ATOM      5  N   UNL     1      -9.596 -10.408  18.169  0.00  0.00    -0.217 N 
ATOM      6  N   UNL     1     -10.315 -10.531  19.290  0.00  0.00    -0.043 NA
ATOM      7  N   UNL     1      -8.198 -11.129  19.653  0.00  0.00    -0.108 NA
ATOM      8  N   UNL     1      -9.454 -10.974  20.197  0.00  0.00    -0.023 NA
ATOM     16  C   UNL     1      -8.312 -10.772  18.394  0.00  0.00    +0.182 A 
BRANCH  16  18
ATOM     18  C   UNL     1      -7.269 -10.758  17.400  0.00  0.00    +0.021 A 
ATOM     19  C   UNL     1      -6.926 -11.933  16.729  0.00  0.00    +0.012 A 
ATOM     20  C   UNL     1      -6.598  -9.569  17.108  0.00  0.00    +0.012 A 
ATOM     21  C   UNL     1      -5.916 -11.918  15.767  0.00  0.00    +0.009 A 
ATOM     22  C   UNL     1      -5.588  -9.555  16.145  0.00  0.00    +0.009 A 
ATOM     23  C   UNL     1      -5.248 -10.730  15.475  0.00  0.00    -0.018 A 
BRANCH  23  25
ATOM     25  C   UNL     1      -4.200 -10.715  14.478  0.00  0.00    -0.018 A 
ATOM     30  C   UNL     1      -2.861 -10.723  14.872  0.00  0.00    +0.008 A 
ATOM     31  C   UNL     1      -4.526 -10.693  13.121  0.00  0.00    +0.008 A 
ATOM     33  C   UNL     1      -1.851 -10.709  13.911  0.00  0.00    +0.001 A 
ATOM     34  C   UNL     1      -3.516 -10.680  12.161  0.00  0.00    +0.001 A 
ATOM     36  C   UNL     1      -2.178 -10.687  12.555  0.00  0.00    +0.000 A 
ENDBRANCH  23  25
ENDBRANCH  16  18
ENDBRANCH  12   5
BRANCH  13   3
ATOM      3  O   UNL     1     -12.134  -5.897  15.968  0.00  0.00    -0.442 OA
BRANCH   3  17
ATOM      4  O   UNL     1     -13.607  -6.694  14.412  0.00  0.00    -0.226 OA
ATOM      9  N   UNL     1     -12.450  -4.684  14.092  0.00  0.00    -0.251 N 
ATOM     17  C   UNL     1     -12.814  -5.833  14.769  0.00  0.00    +0.405 C 
ATOM     37  H   UNL     1     -11.771  -4.087  14.556  0.00  0.00    +0.158 HD
BRANCH   9  24
ATOM     24  C   UNL     1     -12.908  -4.235  12.833  0.00  0.00    +0.036 A 
ATOM     26  C   UNL     1     -12.100  -4.394  11.719  0.00  0.00    +0.023 A 
ATOM     27  C   UNL     1     -14.157  -3.642  12.737  0.00  0.00    +0.023 A 
ATOM     28  C   UNL     1     -12.551  -3.949  10.476  0.00  0.00    +0.005 A 
ATOM     29  C   UNL     1     -14.609  -3.197  11.495  0.00  0.00    +0.005 A 
ATOM     32  C   UNL     1     -13.806  -3.351  10.364  0.00  0.00    -0.050 A 
ATOM     35  C   UNL     1     -14.289  -2.875   9.036  0.00  0.00    +0.044 C 
ENDBRANCH   9  24
ENDBRANCH   3  17
ENDBRANCH  13   3
TORSDOF 6
ENDMDL
MODEL 6
REMARK VINA RESULT:      -7.9     28.742     32.430
REMARK  Name = 11886074
REMARK  7 active torsions:
REMARK  status: ('A' for Active; 'I' for Inactive)
REMARK    1  A    between atoms: O_3  and  C_13
REMARK    2  A    between atoms: O_3  and  C_17
REMARK    3  A    between atoms: N_5  and  C_12
REMARK    4  A    between atoms: N_9  and  C_24
REMARK    5  A    between atoms: C_16  and  C_18
REMARK    6  A    between atoms: C_23  and  C_25
REMARK    7  A    between atoms: C_32  and  C_35
REMARK                            x       y       z     vdW  Elec       q    Type
REMARK                         _______ _______ _______ _____ _____    ______ ____
ROOT
ATOM      1  O   UNL     1      -5.684 -11.123  16.601  0.00  0.00    -0.368 OA
ATOM      2  O   UNL     1      -7.071 -10.314  13.959  0.00  0.00    -0.368 OA
ATOM     10  C   UNL     1      -5.783  -9.978  14.521  0.00  0.00    +0.177 C 
ATOM     11  C   UNL     1      -5.980  -9.845  16.018  0.00  0.00    +0.192 C 
ATOM     12  C   UNL     1      -4.838 -11.154  14.365  0.00  0.00    +0.168 C 
ATOM     13  C   UNL     1      -7.448  -9.506  16.131  0.00  0.00    +0.235 C 
ATOM     14  C   UNL     1      -5.147 -11.998  15.598  0.00  0.00    +0.190 C 
ATOM     15  C   UNL     1      -8.048 -10.319  15.008  0.00  0.00    +0.207 C 
ENDROOT
BRANCH  12   5
ATOM      5  N   UNL     1      -3.442 -10.736  14.224  0.00  0.00    -0.217 N 
ATOM      6  N   UNL     1      -2.675 -10.552  15.304  0.00  0.00    -0.043 NA
ATOM      7  N   UNL     1      -1.515 -10.136  13.445  0.00  0.00    -0.108 NA
ATOM      8  N   UNL     1      -1.495 -10.185  14.821  0.00  0.00    -0.023 NA
ATOM     16  C   UNL     1      -2.733 -10.484  13.098  0.00  0.00    +0.182 A 
BRANCH  16  18
ATOM     18  C   UNL     1      -3.256 -10.585  11.760  0.00  0.00    +0.021 A 
ATOM     19  C   UNL     1      -3.666  -9.437  11.080  0.00  0.00    +0.012 A 
ATOM     20  C   UNL     1      -3.354 -11.832  11.140  0.00  0.00    +0.012 A 
ATOM     21  C   UNL     1      -4.173  -9.537   9.783  0.00  0.00    +0.009 A 
ATOM     22  C   UNL     1      -3.861 -11.931   9.844  0.00  0.00    +0.009 A 
ATOM     23  C   UNL     1      -4.269 -10.783   9.166  0.00  0.00    -0.018 A 
BRANCH  23  25
ATOM     25  C   UNL     1      -4.795 -10.886   7.822  0.00  0.00    -0.018 A 
ATOM     30  C   UNL     1      -5.644  -9.895   7.327  0.00  0.00    +0.008 A 
ATOM     31  C   UNL     1      -4.454 -11.976   7.020  0.00  0.00    +0.008 A 
ATOM     33  C   UNL     1      -6.150  -9.994   6.031  0.00  0.00    +0.001 A 
ATOM     34  C   UNL     1      -4.961 -12.074   5.725  0.00  0.00    +0.001 A 
ATOM     36  C   UNL     1      -5.810 -11.084   5.231  0.00  0.00    +0.000 A 
ENDBRANCH  23  25
ENDBRANCH  16  18
ENDBRANCH  12   5
BRANCH  13   3
ATOM      3  O   UNL     1      -8.007  -9.834  17.383  0.00  0.00    -0.442 OA
BRANCH   3  17
ATOM      4  O   UNL     1      -9.461  -8.070  17.429  0.00  0.00    -0.226 OA
ATOM      9  N   UNL     1     -10.014 -10.144  18.365  0.00  0.00    -0.251 N 
ATOM     17  C   UNL     1      -9.207  -9.235  17.708  0.00  0.00    +0.405 C 
ATOM     37  H   UNL     1      -9.623 -11.072  18.505  0.00  0.00    +0.158 HD
BRANCH   9  24
ATOM     24  C   UNL     1     -11.320  -9.943  18.868  0.00  0.00    +0.036 A 
ATOM     26  C   UNL     1     -11.531  -9.961  20.237  0.00  0.00    +0.023 A 
ATOM     27  C   UNL     1     -12.363  -9.734  17.981  0.00  0.00    +0.023 A 
ATOM     28  C   UNL     1     -12.820  -9.763  20.733  0.00  0.00    +0.005 A 
ATOM     29  C   UNL     1     -13.652  -9.536  18.477  0.00  0.00    +0.005 A 
ATOM     32  C   UNL     1     -13.880  -9.551  19.853  0.00  0.00    -0.050 A 
ATOM     35  C   UNL     1     -15.258  -9.340  20.383  0.00  0.00    +0.044 C 
ENDBRANCH   9  24
ENDBRANCH   3  17
ENDBRANCH  13   3
TORSDOF 6
ENDMDL
MODEL 7
REMARK VINA RESULT:      -7.9      1.653      2.042
REMARK  Name = 11886074
REMARK  7 active torsions:
REMARK  status: ('A' for Active; 'I' for Inactive)
REMARK    1  A    between atoms: O_3  and  C_13
REMARK    2  A    between atoms: O_3  and  C_17
REMARK    3  A    between atoms: N_5  and  C_12
REMARK    4  A    between atoms: N_9  and  C_24
REMARK    5  A    between atoms: C_16  and  C_18
REMARK    6  A    between atoms: C_23  and  C_25
REMARK    7  A    between atoms: C_32  and  C_35
REMARK                            x       y       z     vdW  Elec       q    Type
REMARK                         _______ _______ _______ _____ _____    ______ ____
ROOT
ATOM      1  O   UNL     1      15.803   6.332  21.427  0.00  0.00    -0.368 OA
ATOM      2  O   UNL     1      16.759   9.129  20.519  0.00  0.00    -0.368 OA
ATOM     10  C   UNL     1      15.771   8.220  19.984  0.00  0.00    +0.177 C 
ATOM     11  C   UNL     1      16.315   6.818  20.176  0.00  0.00    +0.192 C 
ATOM     12  C   UNL     1      14.523   8.264  20.844  0.00  0.00    +0.168 C 
ATOM     13  C   UNL     1      17.807   7.047  20.235  0.00  0.00    +0.235 C 
ATOM     14  C   UNL     1      14.839   7.259  21.947  0.00  0.00    +0.190 C 
ATOM     15  C   UNL     1      17.897   8.372  20.954  0.00  0.00    +0.207 C 
ENDROOT
BRANCH  12   5
ATOM      5  N   UNL     1      13.304   7.994  20.078  0.00  0.00    -0.217 N 
ATOM      6  N   UNL     1      13.279   7.020  19.162  0.00  0.00    -0.043 NA
ATOM      7  N   UNL     1      11.298   8.038  19.270  0.00  0.00    -0.108 NA
ATOM      8  N   UNL     1      12.048   7.051  18.669  0.00  0.00    -0.023 NA
ATOM     16  C   UNL     1      12.099   8.608  20.141  0.00  0.00    +0.182 A 
BRANCH  16  18
ATOM     18  C   UNL     1      11.781   9.701  21.023  0.00  0.00    +0.021 A 
ATOM     19  C   UNL     1      11.165   9.454  22.251  0.00  0.00    +0.012 A 
ATOM     20  C   UNL     1      12.087  11.012  20.651  0.00  0.00    +0.012 A 
ATOM     21  C   UNL     1      10.856  10.514  23.104  0.00  0.00    +0.009 A 
ATOM     22  C   UNL     1      11.779  12.071  21.505  0.00  0.00    +0.009 A 
ATOM     23  C   UNL     1      11.164  11.821  22.732  0.00  0.00    -0.018 A 
BRANCH  23  25
ATOM     25  C   UNL     1      10.844  12.920  23.617  0.00  0.00    -0.018 A 
ATOM     30  C   UNL     1      10.845  12.727  24.998  0.00  0.00    +0.008 A 
ATOM     31  C   UNL     1      10.534  14.175  23.089  0.00  0.00    +0.008 A 
ATOM     33  C   UNL     1      10.536  13.786  25.851  0.00  0.00    +0.001 A 
ATOM     34  C   UNL     1      10.226  15.233  23.942  0.00  0.00    +0.001 A 
ATOM     36  C   UNL     1      10.226  15.039  25.323  0.00  0.00    +0.000 A 
ENDBRANCH  23  25
ENDBRANCH  16  18
ENDBRANCH  12   5
BRANCH  13   3
ATOM      3  O   UNL     1      18.507   6.026  20.911  0.00  0.00    -0.442 OA
BRANCH   3  17
ATOM      4  O   UNL     1      20.624   6.545  20.219  0.00  0.00    -0.226 OA
ATOM      9  N   UNL     1      20.156   6.011  22.450  0.00  0.00    -0.251 N 
ATOM     17  C   UNL     1      19.856   6.226  21.118  0.00  0.00    +0.405 C 
ATOM     37  H   UNL     1      19.376   5.752  23.049  0.00  0.00    +0.158 HD
BRANCH   9  24
ATOM     24  C   UNL     1      21.415   6.110  23.085  0.00  0.00    +0.036 A 
ATOM     26  C   UNL     1      22.295   5.042  23.019  0.00  0.00    +0.023 A 
ATOM     27  C   UNL     1      21.742   7.273  23.764  0.00  0.00    +0.023 A 
ATOM     28  C   UNL     1      23.537   5.140  23.647  0.00  0.00    +0.005 A 
ATOM     29  C   UNL     1      22.985   7.370  24.392  0.00  0.00    +0.005 A 
ATOM     32  C   UNL     1      23.882   6.304  24.333  0.00  0.00    -0.050 A 
ATOM     35  C   UNL     1      25.209   6.407  25.005  0.00  0.00    +0.044 C 
ENDBRANCH   9  24
ENDBRANCH   3  17
ENDBRANCH  13   3
TORSDOF 6
ENDMDL
MODEL 8
REMARK VINA RESULT:      -7.8      1.373      2.010
REMARK  Name = 11886074
REMARK  7 active torsions:
REMARK  status: ('A' for Active; 'I' for Inactive)
REMARK    1  A    between atoms: O_3  and  C_13
REMARK    2  A    between atoms: O_3  and  C_17
REMARK    3  A    between atoms: N_5  and  C_12
REMARK    4  A    between atoms: N_9  and  C_24
REMARK    5  A    between atoms: C_16  and  C_18
REMARK    6  A    between atoms: C_23  and  C_25
REMARK    7  A    between atoms: C_32  and  C_35
REMARK                            x       y       z     vdW  Elec       q    Type
REMARK                         _______ _______ _______ _____ _____    ______ ____
ROOT
ATOM      1  O   UNL     1      15.919   5.948  19.722  0.00  0.00    -0.368 OA
ATOM      2  O   UNL     1      16.399   8.482  21.426  0.00  0.00    -0.368 OA
ATOM     10  C   UNL     1      15.912   8.297  20.079  0.00  0.00    +0.177 C 
ATOM     11  C   UNL     1      16.689   7.137  19.488  0.00  0.00    +0.192 C 
ATOM     12  C   UNL     1      14.476   7.812  20.119  0.00  0.00    +0.168 C 
ATOM     13  C   UNL     1      17.964   7.144  20.297  0.00  0.00    +0.235 C 
ATOM     14  C   UNL     1      14.636   6.302  20.260  0.00  0.00    +0.190 C 
ATOM     15  C   UNL     1      17.470   7.558  21.664  0.00  0.00    +0.207 C 
ENDROOT
BRANCH  12   5
ATOM      5  N   UNL     1      13.701   8.257  18.958  0.00  0.00    -0.217 N 
ATOM      6  N   UNL     1      13.852   7.659  17.772  0.00  0.00    -0.043 NA
ATOM      7  N   UNL     1      12.342   9.294  17.634  0.00  0.00    -0.108 NA
ATOM      8  N   UNL     1      13.017   8.299  16.963  0.00  0.00    -0.023 NA
ATOM     16  C   UNL     1      12.783   9.248  18.871  0.00  0.00    +0.182 A 
BRANCH  16  18
ATOM     18  C   UNL     1      12.381  10.093  19.965  0.00  0.00    +0.021 A 
ATOM     19  C   UNL     1      12.776  11.432  19.998  0.00  0.00    +0.012 A 
ATOM     20  C   UNL     1      11.595   9.575  20.997  0.00  0.00    +0.012 A 
ATOM     21  C   UNL     1      12.386  12.250  21.059  0.00  0.00    +0.009 A 
ATOM     22  C   UNL     1      11.206  10.394  22.058  0.00  0.00    +0.009 A 
ATOM     23  C   UNL     1      11.601  11.731  22.088  0.00  0.00    -0.018 A 
BRANCH  23  25
ATOM     25  C   UNL     1      11.197  12.579  23.188  0.00  0.00    -0.018 A 
ATOM     30  C   UNL     1      10.955  13.936  22.971  0.00  0.00    +0.008 A 
ATOM     31  C   UNL     1      11.050  12.041  24.467  0.00  0.00    +0.008 A 
ATOM     33  C   UNL     1      10.566  14.753  24.032  0.00  0.00    +0.001 A 
ATOM     34  C   UNL     1      10.660  12.858  25.527  0.00  0.00    +0.001 A 
ATOM     36  C   UNL     1      10.419  14.215  25.310  0.00  0.00    +0.000 A 
ENDBRANCH  23  25
ENDBRANCH  16  18
ENDBRANCH  12   5
BRANCH  13   3
ATOM      3  O   UNL     1      18.621   5.897  20.324  0.00  0.00    -0.442 OA
BRANCH   3  17
ATOM      4  O   UNL     1      20.385   6.784  21.477  0.00  0.00    -0.226 OA
ATOM      9  N   UNL     1      20.556   4.739  20.351  0.00  0.00    -0.251 N 
ATOM     17  C   UNL     1      19.921   5.885  20.787  0.00  0.00    +0.405 C 
ATOM     37  H   UNL     1      19.999   4.105  19.783  0.00  0.00    +0.158 HD
BRANCH   9  24
ATOM     24  C   UNL     1      21.888   4.334  20.599  0.00  0.00    +0.036 A 
ATOM     26  C   UNL     1      22.124   3.162  21.298  0.00  0.00    +0.023 A 
ATOM     27  C   UNL     1      22.932   5.121  20.139  0.00  0.00    +0.023 A 
ATOM     28  C   UNL     1      23.438   2.764  21.543  0.00  0.00    +0.005 A 
ATOM     29  C   UNL     1      24.247   4.723  20.384  0.00  0.00    +0.005 A 
ATOM     32  C   UNL     1      24.500   3.544  21.086  0.00  0.00    -0.050 A 
ATOM     35  C   UNL     1      25.904   3.119  21.348  0.00  0.00    +0.044 C 
ENDBRANCH   9  24
ENDBRANCH   3  17
ENDBRANCH  13   3
TORSDOF 6
ENDMDL
MODEL 9
REMARK VINA RESULT:      -7.8     28.163     31.739
REMARK  Name = 11886074
REMARK  7 active torsions:
REMARK  status: ('A' for Active; 'I' for Inactive)
REMARK    1  A    between atoms: O_3  and  C_13
REMARK    2  A    between atoms: O_3  and  C_17
REMARK    3  A    between atoms: N_5  and  C_12
REMARK    4  A    between atoms: N_9  and  C_24
REMARK    5  A    between atoms: C_16  and  C_18
REMARK    6  A    between atoms: C_23  and  C_25
REMARK    7  A    between atoms: C_32  and  C_35
REMARK                            x       y       z     vdW  Elec       q    Type
REMARK                         _______ _______ _______ _____ _____    ______ ____
ROOT
ATOM      1  O   UNL     1     -13.791   5.177  22.446  0.00  0.00    -0.368 OA
ATOM      2  O   UNL     1     -15.842   7.193  23.580  0.00  0.00    -0.368 OA
ATOM     10  C   UNL     1     -15.999   5.960  22.844  0.00  0.00    +0.177 C 
ATOM     11  C   UNL     1     -14.869   5.904  21.836  0.00  0.00    +0.192 C 
ATOM     12  C   UNL     1     -15.745   4.783  23.765  0.00  0.00    +0.168 C 
ATOM     13  C   UNL     1     -14.520   7.362  21.646  0.00  0.00    +0.235 C 
ATOM     14  C   UNL     1     -14.230   4.623  23.695  0.00  0.00    +0.190 C 
ATOM     15  C   UNL     1     -14.735   7.922  23.032  0.00  0.00    +0.207 C 
ENDROOT
BRANCH  12   5
ATOM      5  N   UNL     1     -16.521   3.599  23.390  0.00  0.00    -0.217 N 
ATOM      6  N   UNL     1     -16.968   3.449  22.139  0.00  0.00    -0.043 NA
ATOM      7  N   UNL     1     -17.580   1.713  23.398  0.00  0.00    -0.108 NA
ATOM      8  N   UNL     1     -17.616   2.291  22.149  0.00  0.00    -0.023 NA
ATOM     16  C   UNL     1     -16.893   2.543  24.151  0.00  0.00    +0.182 A 
BRANCH  16  18
ATOM     18  C   UNL     1     -16.577   2.385  25.547  0.00  0.00    +0.021 A 
ATOM     19  C   UNL     1     -16.476   1.108  26.102  0.00  0.00    +0.012 A 
ATOM     20  C   UNL     1     -16.371   3.510  26.348  0.00  0.00    +0.012 A 
ATOM     21  C   UNL     1     -16.171   0.957  27.455  0.00  0.00    +0.009 A 
ATOM     22  C   UNL     1     -16.065   3.358  27.701  0.00  0.00    +0.009 A 
ATOM     23  C   UNL     1     -15.965   2.081  28.254  0.00  0.00    -0.018 A 
BRANCH  23  25
ATOM     25  C   UNL     1     -15.648   1.924  29.656  0.00  0.00    -0.018 A 
ATOM     30  C   UNL     1     -15.687   3.028  30.509  0.00  0.00    +0.008 A 
ATOM     31  C   UNL     1     -15.305   0.668  30.159  0.00  0.00    +0.008 A 
ATOM     33  C   UNL     1     -15.382   2.877  31.861  0.00  0.00    +0.001 A 
ATOM     34  C   UNL     1     -15.000   0.517  31.511  0.00  0.00    +0.001 A 
ATOM     36  C   UNL     1     -15.038   1.622  32.362  0.00  0.00    +0.000 A 
ENDBRANCH  23  25
ENDBRANCH  16  18
ENDBRANCH  12   5
BRANCH  13   3
ATOM      3  O   UNL     1     -13.205   7.571  21.184  0.00  0.00    -0.442 OA
BRANCH   3  17
ATOM      4  O   UNL     1     -13.264   9.579  20.091  0.00  0.00    -0.226 OA
ATOM      9  N   UNL     1     -12.644   7.603  19.000  0.00  0.00    -0.251 N 
ATOM     17  C   UNL     1     -13.053   8.373  20.072  0.00  0.00    +0.405 C 
ATOM     37  H   UNL     1     -12.521   6.610  19.182  0.00  0.00    +0.158 HD
BRANCH   9  24
ATOM     24  C   UNL     1     -12.372   8.025  17.679  0.00  0.00    +0.036 A 
ATOM     26  C   UNL     1     -11.059   8.215  17.282  0.00  0.00    +0.023 A 
ATOM     27  C   UNL     1     -13.427   8.243  16.806  0.00  0.00    +0.023 A 
ATOM     28  C   UNL     1     -10.791   8.633  15.978  0.00  0.00    +0.005 A 
ATOM     29  C   UNL     1     -13.159   8.661  15.502  0.00  0.00    +0.005 A 
ATOM     32  C   UNL     1     -11.842   8.855  15.088  0.00  0.00    -0.050 A 
ATOM     35  C   UNL     1     -11.556   9.302  13.695  0.00  0.00    +0.044 C 
ENDBRANCH   9  24
ENDBRANCH   3  17
ENDBRANCH  13   3
TORSDOF 6
ENDMDL
MODEL 10
REMARK VINA RESULT:      -7.7     29.287     31.540
REMARK  Name = 11886074
REMARK  7 active torsions:
REMARK  status: ('A' for Active; 'I' for Inactive)
REMARK    1  A    between atoms: O_3  and  C_13
REMARK    2  A    between atoms: O_3  and  C_17
REMARK    3  A    between atoms: N_5  and  C_12
REMARK    4  A    between atoms: N_9  and  C_24
REMARK    5  A    between atoms: C_16  and  C_18
REMARK    6  A    between atoms: C_23  and  C_25
REMARK    7  A    between atoms: C_32  and  C_35
REMARK                            x       y       z     vdW  Elec       q    Type
REMARK                         _______ _______ _______ _____ _____    ______ ____
ROOT
ATOM      1  O   UNL     1      -5.784 -10.677   9.444  0.00  0.00    -0.368 OA
ATOM      2  O   UNL     1      -7.699  -8.800  10.981  0.00  0.00    -0.368 OA
ATOM     10  C   UNL     1      -7.010  -8.660   9.720  0.00  0.00    +0.177 C 
ATOM     11  C   UNL     1      -5.654  -9.317   9.886  0.00  0.00    +0.192 C 
ATOM     12  C   UNL     1      -7.709  -9.494   8.664  0.00  0.00    +0.168 C 
ATOM     13  C   UNL     1      -5.426  -9.234  11.378  0.00  0.00    +0.235 C 
ATOM     14  C   UNL     1      -7.076 -10.869   8.849  0.00  0.00    +0.190 C 
ATOM     15  C   UNL     1      -6.821  -9.431  11.923  0.00  0.00    +0.207 C 
ENDROOT
BRANCH  12   5
ATOM      5  N   UNL     1      -7.584  -8.921   7.322  0.00  0.00    -0.217 N 
ATOM      6  N   UNL     1      -6.741  -9.453   6.432  0.00  0.00    -0.043 NA
ATOM      7  N   UNL     1      -7.802  -7.702   5.549  0.00  0.00    -0.108 NA
ATOM      8  N   UNL     1      -6.878  -8.703   5.346  0.00  0.00    -0.023 NA
ATOM     16  C   UNL     1      -8.227  -7.859   6.782  0.00  0.00    +0.182 A 
BRANCH  16  18
ATOM     18  C   UNL     1      -9.205  -7.055   7.469  0.00  0.00    +0.021 A 
ATOM     19  C   UNL     1     -10.544  -7.448   7.491  0.00  0.00    +0.012 A 
ATOM     20  C   UNL     1      -8.815  -5.880   8.115  0.00  0.00    +0.012 A 
ATOM     21  C   UNL     1     -11.490  -6.668   8.157  0.00  0.00    +0.009 A 
ATOM     22  C   UNL     1      -9.762  -5.101   8.780  0.00  0.00    +0.009 A 
ATOM     23  C   UNL     1     -11.099  -5.496   8.802  0.00  0.00    -0.018 A 
BRANCH  23  25
ATOM     25  C   UNL     1     -12.080  -4.687   9.491  0.00  0.00    -0.018 A 
ATOM     30  C   UNL     1     -13.272  -4.341   8.853  0.00  0.00    +0.008 A 
ATOM     31  C   UNL     1     -11.837  -4.254  10.795  0.00  0.00    +0.008 A 
ATOM     33  C   UNL     1     -14.218  -3.562   9.519  0.00  0.00    +0.001 A 
ATOM     34  C   UNL     1     -12.783  -3.475  11.460  0.00  0.00    +0.001 A 
ATOM     36  C   UNL     1     -13.974  -3.128  10.821  0.00  0.00    +0.000 A 
ENDBRANCH  23  25
ENDBRANCH  16  18
ENDBRANCH  12   5
BRANCH  13   3
ATOM      3  O   UNL     1      -4.523 -10.202  11.864  0.00  0.00    -0.442 OA
BRANCH   3  17
ATOM      4  O   UNL     1      -5.328 -12.009  13.009  0.00  0.00    -0.226 OA
ATOM      9  N   UNL     1      -4.657 -10.055  14.111  0.00  0.00    -0.251 N 
ATOM     17  C   UNL     1      -4.883 -10.868  13.017  0.00  0.00    +0.405 C 
ATOM     37  H   UNL     1      -4.278  -9.132  13.913  0.00  0.00    +0.158 HD
BRANCH   9  24
ATOM     24  C   UNL     1      -4.887 -10.347  15.474  0.00  0.00    +0.036 A 
ATOM     26  C   UNL     1      -3.926 -11.039  16.193  0.00  0.00    +0.023 A 
ATOM     27  C   UNL     1      -6.072  -9.938  16.065  0.00  0.00    +0.023 A 
ATOM     28  C   UNL     1      -4.153 -11.328  17.539  0.00  0.00    +0.005 A 
ATOM     29  C   UNL     1      -6.300 -10.227  17.411  0.00  0.00    +0.005 A 
ATOM     32  C   UNL     1      -5.341 -10.922  18.148  0.00  0.00    -0.050 A 
ATOM     35  C   UNL     1      -5.584 -11.231  19.585  0.00  0.00    +0.044 C 
ENDBRANCH   9  24
ENDBRANCH   3  17
ENDBRANCH  13   3
TORSDOF 6
ENDMDL
