MODEL 1
REMARK VINA RESULT:      -7.3      0.000      0.000
REMARK  Name = 40586225
REMARK  7 active torsions:
REMARK  status: ('A' for Active; 'I' for Inactive)
REMARK    1  A    between atoms: O_4  and  C_32
REMARK    2  A    between atoms: O_4  and  C_35
REMARK    3  A    between atoms: O_5  and  C_33
REMARK    4  A    between atoms: O_5  and  C_36
REMARK    5  A    between atoms: N_8  and  C_20
REMARK    6  A    between atoms: N_9  and  C_29
REMARK    7  A    between atoms: C_22  and  C_28
REMARK                            x       y       z     vdW  Elec       q    Type
REMARK                         _______ _______ _______ _____ _____    ______ ____
ROOT
ATOM      1  O   UNL     1      12.242   9.259  16.870  0.00  0.00    -0.266 OA
ATOM      2  O   UNL     1      10.569   9.315  21.673  0.00  0.00    -0.252 OA
ATOM      6  N   UNL     1      13.553   8.696  18.720  0.00  0.00    -0.310 N 
ATOM      7  N   UNL     1      12.726   8.489  21.750  0.00  0.00    -0.284 N 
ATOM      9  N   UNL     1      12.299  10.759  22.227  0.00  0.00    -0.269 N 
ATOM     10  C   UNL     1      13.103   6.622  20.155  0.00  0.00    +0.027 C 
ATOM     11  C   UNL     1      14.958   8.136  20.736  0.00  0.00    +0.054 C 
ATOM     12  C   UNL     1      14.599   6.678  20.448  0.00  0.00    +0.018 C 
ATOM     13  C   UNL     1      12.827   7.428  18.879  0.00  0.00    +0.130 C 
ATOM     14  C   UNL     1      12.294   7.147  21.357  0.00  0.00    +0.114 C 
ATOM     15  C   UNL     1      14.177   8.613  21.975  0.00  0.00    +0.119 C 
ATOM     16  C   UNL     1      14.632   9.023  19.549  0.00  0.00    +0.027 A 
ATOM     17  C   UNL     1      15.350  10.135  19.319  0.00  0.00    +0.024 A 
ATOM     18  C   UNL     1      13.172   9.514  17.636  0.00  0.00    +0.273 A 
ATOM     19  C   UNL     1      11.768   9.516  21.884  0.00  0.00    +0.306 C 
ATOM     20  C   UNL     1      13.981  10.757  17.430  0.00  0.00    +0.099 A 
ATOM     21  C   UNL     1      15.014  11.018  18.238  0.00  0.00    +0.030 A 
ATOM     38  H   UNL     1      13.150  10.783  22.776  0.00  0.00    +0.156 HD
ENDROOT
BRANCH   9  29
ATOM     29  C   UNL     1      11.790  12.035  21.886  0.00  0.00    +0.042 A 
ATOM     30  C   UNL     1      12.215  12.667  20.717  0.00  0.00    +0.069 A 
ATOM     31  C   UNL     1      10.861  12.661  22.718  0.00  0.00    +0.069 A 
ATOM     32  C   UNL     1      10.358  13.918  22.382  0.00  0.00    +0.125 A 
ATOM     33  C   UNL     1      11.713  13.924  20.381  0.00  0.00    +0.125 A 
ATOM     34  C   UNL     1      10.785  14.550  21.213  0.00  0.00    +0.091 A 
BRANCH  32   4
ATOM      4  O   UNL     1       9.452  14.529  23.193  0.00  0.00    -0.495 OA
ATOM     35  C   UNL     1       8.321  15.130  22.566  0.00  0.00    +0.277 C 
ENDBRANCH  32   4
BRANCH  33   5
ATOM      5  O   UNL     1      12.130  14.541  19.241  0.00  0.00    -0.495 OA
ATOM     36  C   UNL     1      13.476  14.305  18.830  0.00  0.00    +0.277 C 
ENDBRANCH  33   5
ENDBRANCH   9  29
BRANCH  20   8
ATOM      3  O   UNL     1      14.796  10.513  14.689  0.00  0.00    -0.275 OA
ATOM      8  N   UNL     1      13.632  11.584  16.403  0.00  0.00    -0.281 N 
ATOM     28  C   UNL     1      14.051  11.403  15.094  0.00  0.00    +0.220 C 
ATOM     37  H   UNL     1      13.231  12.483  16.659  0.00  0.00    +0.155 HD
BRANCH  28  22
ATOM     22  C   UNL     1      13.517  12.460  14.172  0.00  0.00    +0.075 C 
ATOM     23  C   UNL     1      13.591  13.844  14.821  0.00  0.00    +0.013 C 
ATOM     24  C   UNL     1      14.241  12.400  12.826  0.00  0.00    +0.013 C 
ATOM     25  C   UNL     1      15.001  14.435  14.836  0.00  0.00    +0.001 C 
ATOM     26  C   UNL     1      15.648  12.992  12.874  0.00  0.00    +0.001 C 
ATOM     27  C   UNL     1      15.645  14.402  13.455  0.00  0.00    +0.000 C 
ENDBRANCH  28  22
ENDBRANCH  20   8
TORSDOF 5
ENDMDL
MODEL 2
REMARK VINA RESULT:      -7.3      0.040      2.046
REMARK  Name = 40586225
REMARK  7 active torsions:
REMARK  status: ('A' for Active; 'I' for Inactive)
REMARK    1  A    between atoms: O_4  and  C_32
REMARK    2  A    between atoms: O_4  and  C_35
REMARK    3  A    between atoms: O_5  and  C_33
REMARK    4  A    between atoms: O_5  and  C_36
REMARK    5  A    between atoms: N_8  and  C_20
REMARK    6  A    between atoms: N_9  and  C_29
REMARK    7  A    between atoms: C_22  and  C_28
REMARK                            x       y       z     vdW  Elec       q    Type
REMARK                         _______ _______ _______ _____ _____    ______ ____
ROOT
ATOM      1  O   UNL     1      12.243   9.254  16.867  0.00  0.00    -0.266 OA
ATOM      2  O   UNL     1      10.569   9.286  21.671  0.00  0.00    -0.252 OA
ATOM      6  N   UNL     1      13.553   8.678  18.715  0.00  0.00    -0.310 N 
ATOM      7  N   UNL     1      12.725   8.456  21.744  0.00  0.00    -0.284 N 
ATOM      9  N   UNL     1      12.302  10.723  22.234  0.00  0.00    -0.269 N 
ATOM     10  C   UNL     1      13.099   6.597  20.139  0.00  0.00    +0.027 C 
ATOM     11  C   UNL     1      14.956   8.104  20.728  0.00  0.00    +0.054 C 
ATOM     12  C   UNL     1      14.595   6.648  20.431  0.00  0.00    +0.018 C 
ATOM     13  C   UNL     1      12.824   7.410  18.866  0.00  0.00    +0.130 C 
ATOM     14  C   UNL     1      12.290   7.116  21.344  0.00  0.00    +0.114 C 
ATOM     15  C   UNL     1      14.175   8.576  21.970  0.00  0.00    +0.119 C 
ATOM     16  C   UNL     1      14.632   8.999  19.546  0.00  0.00    +0.027 A 
ATOM     17  C   UNL     1      15.351  10.111  19.322  0.00  0.00    +0.024 A 
ATOM     18  C   UNL     1      13.172   9.502  17.636  0.00  0.00    +0.273 A 
ATOM     19  C   UNL     1      11.768   9.484  21.883  0.00  0.00    +0.306 C 
ATOM     20  C   UNL     1      13.983  10.745  17.436  0.00  0.00    +0.099 A 
ATOM     21  C   UNL     1      15.017  11.001  18.245  0.00  0.00    +0.030 A 
ATOM     38  H   UNL     1      13.153  10.743  22.783  0.00  0.00    +0.156 HD
ENDROOT
BRANCH   9  29
ATOM     29  C   UNL     1      11.794  12.003  21.899  0.00  0.00    +0.042 A 
ATOM     30  C   UNL     1      10.871  12.628  22.737  0.00  0.00    +0.069 A 
ATOM     31  C   UNL     1      12.219  12.638  20.731  0.00  0.00    +0.069 A 
ATOM     32  C   UNL     1      11.719  13.898  20.402  0.00  0.00    +0.125 A 
ATOM     33  C   UNL     1      10.372  13.888  22.407  0.00  0.00    +0.125 A 
ATOM     34  C   UNL     1      10.795  14.523  21.239  0.00  0.00    +0.091 A 
BRANCH  32   4
ATOM      4  O   UNL     1      12.133  14.518  19.263  0.00  0.00    -0.495 OA
ATOM     35  C   UNL     1      13.490  14.319  18.870  0.00  0.00    +0.277 C 
ENDBRANCH  32   4
BRANCH  33   5
ATOM      5  O   UNL     1       9.470  14.498  23.225  0.00  0.00    -0.495 OA
ATOM     36  C   UNL     1       8.409  15.219  22.598  0.00  0.00    +0.277 C 
ENDBRANCH  33   5
ENDBRANCH   9  29
BRANCH  20   8
ATOM      3  O   UNL     1      14.831  10.538  14.702  0.00  0.00    -0.275 OA
ATOM      8  N   UNL     1      13.636  11.579  16.414  0.00  0.00    -0.281 N 
ATOM     28  C   UNL     1      14.071  11.416  15.108  0.00  0.00    +0.220 C 
ATOM     37  H   UNL     1      13.223  12.470  16.674  0.00  0.00    +0.155 HD
BRANCH  28  22
ATOM     22  C   UNL     1      13.535  12.476  14.191  0.00  0.00    +0.075 C 
ATOM     23  C   UNL     1      13.599  13.856  14.849  0.00  0.00    +0.013 C 
ATOM     24  C   UNL     1      14.264  12.428  12.847  0.00  0.00    +0.013 C 
ATOM     25  C   UNL     1      15.005  14.454  14.873  0.00  0.00    +0.001 C 
ATOM     26  C   UNL     1      15.668  13.028  12.905  0.00  0.00    +0.001 C 
ATOM     27  C   UNL     1      15.655  14.434  13.494  0.00  0.00    +0.000 C 
ENDBRANCH  28  22
ENDBRANCH  20   8
TORSDOF 5
ENDMDL
MODEL 3
REMARK VINA RESULT:      -7.1     13.495     17.307
REMARK  Name = 40586225
REMARK  7 active torsions:
REMARK  status: ('A' for Active; 'I' for Inactive)
REMARK    1  A    between atoms: O_4  and  C_32
REMARK    2  A    between atoms: O_4  and  C_35
REMARK    3  A    between atoms: O_5  and  C_33
REMARK    4  A    between atoms: O_5  and  C_36
REMARK    5  A    between atoms: N_8  and  C_20
REMARK    6  A    between atoms: N_9  and  C_29
REMARK    7  A    between atoms: C_22  and  C_28
REMARK                            x       y       z     vdW  Elec       q    Type
REMARK                         _______ _______ _______ _____ _____    ______ ____
ROOT
ATOM      1  O   UNL     1       9.711   7.734   1.744  0.00  0.00    -0.266 OA
ATOM      2  O   UNL     1      11.862   9.685   5.920  0.00  0.00    -0.252 OA
ATOM      6  N   UNL     1       9.493   6.814   3.881  0.00  0.00    -0.310 N 
ATOM      7  N   UNL     1      10.571   7.904   6.630  0.00  0.00    -0.284 N 
ATOM      9  N   UNL     1      12.893   7.643   6.307  0.00  0.00    -0.269 N 
ATOM     10  C   UNL     1       8.240   7.999   5.776  0.00  0.00    +0.027 C 
ATOM     11  C   UNL     1       9.311   5.819   6.189  0.00  0.00    +0.054 C 
ATOM     12  C   UNL     1       7.994   6.588   6.300  0.00  0.00    +0.018 C 
ATOM     13  C   UNL     1       8.599   7.909   4.287  0.00  0.00    +0.130 C 
ATOM     14  C   UNL     1       9.342   8.699   6.596  0.00  0.00    +0.114 C 
ATOM     15  C   UNL     1      10.375   6.510   7.062  0.00  0.00    +0.119 C 
ATOM     16  C   UNL     1       9.787   5.757   4.749  0.00  0.00    +0.027 A 
ATOM     17  C   UNL     1      10.518   4.714   4.323  0.00  0.00    +0.024 A 
ATOM     18  C   UNL     1       9.957   6.836   2.549  0.00  0.00    +0.273 A 
ATOM     19  C   UNL     1      11.797   8.504   6.270  0.00  0.00    +0.306 C 
ATOM     20  C   UNL     1      10.790   5.667   2.121  0.00  0.00    +0.099 A 
ATOM     21  C   UNL     1      11.029   4.672   2.982  0.00  0.00    +0.030 A 
ATOM     38  H   UNL     1      12.877   6.873   6.966  0.00  0.00    +0.156 HD
ENDROOT
BRANCH   9  29
ATOM     29  C   UNL     1      14.060   7.702   5.507  0.00  0.00    +0.042 A 
ATOM     30  C   UNL     1      15.252   8.186   6.045  0.00  0.00    +0.069 A 
ATOM     31  C   UNL     1      14.017   7.276   4.178  0.00  0.00    +0.069 A 
ATOM     32  C   UNL     1      15.166   7.334   3.390  0.00  0.00    +0.125 A 
ATOM     33  C   UNL     1      16.401   8.244   5.257  0.00  0.00    +0.125 A 
ATOM     34  C   UNL     1      16.358   7.819   3.929  0.00  0.00    +0.091 A 
BRANCH  32   4
ATOM      4  O   UNL     1      15.126   6.918   2.095  0.00  0.00    -0.495 OA
ATOM     35  C   UNL     1      14.708   5.575   1.856  0.00  0.00    +0.277 C 
ENDBRANCH  32   4
BRANCH  33   5
ATOM      5  O   UNL     1      17.564   8.718   5.783  0.00  0.00    -0.495 OA
ATOM     36  C   UNL     1      18.753   8.509   5.022  0.00  0.00    +0.277 C 
ENDBRANCH  33   5
ENDBRANCH   9  29
BRANCH  20   8
ATOM      3  O   UNL     1       9.501   4.549  -0.186  0.00  0.00    -0.275 OA
ATOM      8  N   UNL     1      11.273   5.659   0.846  0.00  0.00    -0.281 N 
ATOM     28  C   UNL     1      10.593   5.112  -0.231  0.00  0.00    +0.220 C 
ATOM     37  H   UNL     1      12.262   5.867   0.733  0.00  0.00    +0.155 HD
BRANCH  28  22
ATOM     22  C   UNL     1      11.357   5.242  -1.515  0.00  0.00    +0.075 C 
ATOM     23  C   UNL     1      12.832   4.888  -1.316  0.00  0.00    +0.013 C 
ATOM     24  C   UNL     1      10.692   4.407  -2.611  0.00  0.00    +0.013 C 
ATOM     25  C   UNL     1      13.088   3.385  -1.206  0.00  0.00    +0.001 C 
ATOM     26  C   UNL     1      10.961   2.910  -2.471  0.00  0.00    +0.001 C 
ATOM     27  C   UNL     1      12.453   2.615  -2.358  0.00  0.00    +0.000 C 
ENDBRANCH  28  22
ENDBRANCH  20   8
TORSDOF 5
ENDMDL
MODEL 4
REMARK VINA RESULT:      -7.1     13.557     17.321
REMARK  Name = 40586225
REMARK  7 active torsions:
REMARK  status: ('A' for Active; 'I' for Inactive)
REMARK    1  A    between atoms: O_4  and  C_32
REMARK    2  A    between atoms: O_4  and  C_35
REMARK    3  A    between atoms: O_5  and  C_33
REMARK    4  A    between atoms: O_5  and  C_36
REMARK    5  A    between atoms: N_8  and  C_20
REMARK    6  A    between atoms: N_9  and  C_29
REMARK    7  A    between atoms: C_22  and  C_28
REMARK                            x       y       z     vdW  Elec       q    Type
REMARK                         _______ _______ _______ _____ _____    ______ ____
ROOT
ATOM      1  O   UNL     1       9.724   7.626   1.663  0.00  0.00    -0.266 OA
ATOM      2  O   UNL     1      11.789   9.693   5.826  0.00  0.00    -0.252 OA
ATOM      6  N   UNL     1       9.465   6.764   3.820  0.00  0.00    -0.310 N 
ATOM      7  N   UNL     1      10.487   7.930   6.559  0.00  0.00    -0.284 N 
ATOM      9  N   UNL     1      12.814   7.664   6.290  0.00  0.00    -0.269 N 
ATOM     10  C   UNL     1       8.173   7.998   5.657  0.00  0.00    +0.027 C 
ATOM     11  C   UNL     1       9.237   5.831   6.150  0.00  0.00    +0.054 C 
ATOM     12  C   UNL     1       7.918   6.601   6.214  0.00  0.00    +0.018 C 
ATOM     13  C   UNL     1       8.561   7.868   4.178  0.00  0.00    +0.130 C 
ATOM     14  C   UNL     1       9.258   8.722   6.479  0.00  0.00    +0.114 C 
ATOM     15  C   UNL     1      10.283   6.548   7.025  0.00  0.00    +0.119 C 
ATOM     16  C   UNL     1       9.742   5.732   4.722  0.00  0.00    +0.027 A 
ATOM     17  C   UNL     1      10.483   4.678   4.339  0.00  0.00    +0.024 A 
ATOM     18  C   UNL     1       9.955   6.750   2.498  0.00  0.00    +0.273 A 
ATOM     19  C   UNL     1      11.719   8.522   6.208  0.00  0.00    +0.306 C 
ATOM     20  C   UNL     1      10.797   5.572   2.118  0.00  0.00    +0.099 A 
ATOM     21  C   UNL     1      11.021   4.600   3.010  0.00  0.00    +0.030 A 
ATOM     38  H   UNL     1      12.787   6.912   6.968  0.00  0.00    +0.156 HD
ENDROOT
BRANCH   9  29
ATOM     29  C   UNL     1      13.997   7.703   5.511  0.00  0.00    +0.042 A 
ATOM     30  C   UNL     1      13.970   7.290   4.179  0.00  0.00    +0.069 A 
ATOM     31  C   UNL     1      15.190   8.157   6.077  0.00  0.00    +0.069 A 
ATOM     32  C   UNL     1      16.354   8.196   5.310  0.00  0.00    +0.125 A 
ATOM     33  C   UNL     1      15.134   7.329   3.413  0.00  0.00    +0.125 A 
ATOM     34  C   UNL     1      16.327   7.782   3.978  0.00  0.00    +0.091 A 
BRANCH  32   4
ATOM      4  O   UNL     1      17.517   8.638   5.860  0.00  0.00    -0.495 OA
ATOM     35  C   UNL     1      18.699   8.510   5.072  0.00  0.00    +0.277 C 
ENDBRANCH  32   4
BRANCH  33   5
ATOM      5  O   UNL     1      15.108   6.924   2.113  0.00  0.00    -0.495 OA
ATOM     36  C   UNL     1      14.667   5.592   1.857  0.00  0.00    +0.277 C 
ENDBRANCH  33   5
ENDBRANCH   9  29
BRANCH  20   8
ATOM      3  O   UNL     1       9.423   4.703  -0.247  0.00  0.00    -0.275 OA
ATOM      8  N   UNL     1      11.306   5.530   0.853  0.00  0.00    -0.281 N 
ATOM     28  C   UNL     1      10.583   5.110  -0.252  0.00  0.00    +0.220 C 
ATOM     37  H   UNL     1      12.317   5.602   0.767  0.00  0.00    +0.155 HD
BRANCH  28  22
ATOM     22  C   UNL     1      11.389   5.166  -1.517  0.00  0.00    +0.075 C 
ATOM     23  C   UNL     1      12.841   4.755  -1.262  0.00  0.00    +0.013 C 
ATOM     24  C   UNL     1      10.719   4.327  -2.606  0.00  0.00    +0.013 C 
ATOM     25  C   UNL     1      13.026   3.247  -1.099  0.00  0.00    +0.001 C 
ATOM     26  C   UNL     1      10.918   2.825  -2.413  0.00  0.00    +0.001 C 
ATOM     27  C   UNL     1      12.391   2.469  -2.246  0.00  0.00    +0.000 C 
ENDBRANCH  28  22
ENDBRANCH  20   8
TORSDOF 5
ENDMDL
MODEL 5
REMARK VINA RESULT:      -6.8      1.695      2.297
REMARK  Name = 40586225
REMARK  7 active torsions:
REMARK  status: ('A' for Active; 'I' for Inactive)
REMARK    1  A    between atoms: O_4  and  C_32
REMARK    2  A    between atoms: O_4  and  C_35
REMARK    3  A    between atoms: O_5  and  C_33
REMARK    4  A    between atoms: O_5  and  C_36
REMARK    5  A    between atoms: N_8  and  C_20
REMARK    6  A    between atoms: N_9  and  C_29
REMARK    7  A    between atoms: C_22  and  C_28
REMARK                            x       y       z     vdW  Elec       q    Type
REMARK                         _______ _______ _______ _____ _____    ______ ____
ROOT
ATOM      1  O   UNL     1      14.061  10.480  17.310  0.00  0.00    -0.266 OA
ATOM      2  O   UNL     1      11.396   8.342  21.079  0.00  0.00    -0.252 OA
ATOM      6  N   UNL     1      15.014   9.258  19.060  0.00  0.00    -0.310 N 
ATOM      7  N   UNL     1      13.595   7.707  21.403  0.00  0.00    -0.284 N 
ATOM      9  N   UNL     1      12.684   9.514  22.614  0.00  0.00    -0.269 N 
ATOM     10  C   UNL     1      14.632   6.743  19.361  0.00  0.00    +0.027 C 
ATOM     11  C   UNL     1      16.021   7.975  20.980  0.00  0.00    +0.054 C 
ATOM     12  C   UNL     1      15.995   6.765  20.046  0.00  0.00    +0.018 C 
ATOM     13  C   UNL     1      14.504   8.002  18.492  0.00  0.00    +0.130 C 
ATOM     14  C   UNL     1      13.501   6.642  20.403  0.00  0.00    +0.114 C 
ATOM     15  C   UNL     1      14.917   7.816  22.043  0.00  0.00    +0.119 C 
ATOM     16  C   UNL     1      15.812   9.264  20.209  0.00  0.00    +0.027 A 
ATOM     17  C   UNL     1      16.356  10.411  20.650  0.00  0.00    +0.024 A 
ATOM     18  C   UNL     1      14.741  10.437  18.336  0.00  0.00    +0.273 A 
ATOM     19  C   UNL     1      12.466   8.510  21.671  0.00  0.00    +0.306 C 
ATOM     20  C   UNL     1      15.346  11.698  18.874  0.00  0.00    +0.099 A 
ATOM     21  C   UNL     1      16.116  11.651  19.967  0.00  0.00    +0.030 A 
ATOM     38  H   UNL     1      13.377   9.353  23.335  0.00  0.00    +0.156 HD
ENDROOT
BRANCH   9  29
ATOM     29  C   UNL     1      12.046  10.776  22.689  0.00  0.00    +0.042 A 
ATOM     30  C   UNL     1      12.049  11.626  21.583  0.00  0.00    +0.069 A 
ATOM     31  C   UNL     1      11.413  11.169  23.869  0.00  0.00    +0.069 A 
ATOM     32  C   UNL     1      10.784  12.412  23.942  0.00  0.00    +0.125 A 
ATOM     33  C   UNL     1      11.420  12.869  21.656  0.00  0.00    +0.125 A 
ATOM     34  C   UNL     1      10.788  13.263  22.836  0.00  0.00    +0.091 A 
BRANCH  32   4
ATOM      4  O   UNL     1      10.167  12.796  25.093  0.00  0.00    -0.495 OA
ATOM     35  C   UNL     1      10.553  14.051  25.650  0.00  0.00    +0.277 C 
ENDBRANCH  32   4
BRANCH  33   5
ATOM      5  O   UNL     1      11.424  13.699  20.577  0.00  0.00    -0.495 OA
ATOM     36  C   UNL     1      10.540  14.819  20.616  0.00  0.00    +0.277 C 
ENDBRANCH  33   5
ENDBRANCH   9  29
BRANCH  20   8
ATOM      3  O   UNL     1      17.003  12.928  16.880  0.00  0.00    -0.275 OA
ATOM      8  N   UNL     1      15.090  12.863  18.213  0.00  0.00    -0.281 N 
ATOM     28  C   UNL     1      15.929  13.399  17.248  0.00  0.00    +0.220 C 
ATOM     37  H   UNL     1      14.368  13.461  18.607  0.00  0.00    +0.155 HD
BRANCH  28  22
ATOM     22  C   UNL     1      15.403  14.686  16.685  0.00  0.00    +0.075 C 
ATOM     23  C   UNL     1      16.308  15.209  15.567  0.00  0.00    +0.013 C 
ATOM     24  C   UNL     1      13.951  14.511  16.236  0.00  0.00    +0.013 C 
ATOM     25  C   UNL     1      16.142  14.455  14.248  0.00  0.00    +0.001 C 
ATOM     26  C   UNL     1      13.818  13.750  14.919  0.00  0.00    +0.001 C 
ATOM     27  C   UNL     1      14.681  14.367  13.823  0.00  0.00    +0.000 C 
ENDBRANCH  28  22
ENDBRANCH  20   8
TORSDOF 5
ENDMDL
MODEL 6
REMARK VINA RESULT:      -6.6     28.380     29.932
REMARK  Name = 40586225
REMARK  7 active torsions:
REMARK  status: ('A' for Active; 'I' for Inactive)
REMARK    1  A    between atoms: O_4  and  C_32
REMARK    2  A    between atoms: O_4  and  C_35
REMARK    3  A    between atoms: O_5  and  C_33
REMARK    4  A    between atoms: O_5  and  C_36
REMARK    5  A    between atoms: N_8  and  C_20
REMARK    6  A    between atoms: N_9  and  C_29
REMARK    7  A    between atoms: C_22  and  C_28
REMARK                            x       y       z     vdW  Elec       q    Type
REMARK                         _______ _______ _______ _____ _____    ______ ____
ROOT
ATOM      1  O   UNL     1      -6.575 -13.138  14.662  0.00  0.00    -0.266 OA
ATOM      2  O   UNL     1      -9.847 -11.462  18.178  0.00  0.00    -0.252 OA
ATOM      6  N   UNL     1      -5.945 -11.982  16.593  0.00  0.00    -0.310 N 
ATOM      7  N   UNL     1      -7.733 -10.991  18.986  0.00  0.00    -0.284 N 
ATOM      9  N   UNL     1      -8.997  -9.320  17.905  0.00  0.00    -0.269 N 
ATOM     10  C   UNL     1      -6.222 -12.962  18.944  0.00  0.00    +0.027 C 
ATOM     11  C   UNL     1      -5.296 -10.697  18.661  0.00  0.00    +0.054 C 
ATOM     12  C   UNL     1      -5.043 -12.063  19.301  0.00  0.00    +0.018 C 
ATOM     13  C   UNL     1      -6.239 -13.160  17.422  0.00  0.00    +0.130 C 
ATOM     14  C   UNL     1      -7.542 -12.361  19.465  0.00  0.00    +0.114 C 
ATOM     15  C   UNL     1      -6.590 -10.099  19.244  0.00  0.00    +0.119 C 
ATOM     16  C   UNL     1      -5.415 -10.815  17.153  0.00  0.00    +0.027 A 
ATOM     17  C   UNL     1      -5.053  -9.789  16.364  0.00  0.00    +0.024 A 
ATOM     18  C   UNL     1      -6.130 -12.125  15.202  0.00  0.00    +0.273 A 
ATOM     19  C   UNL     1      -8.943 -10.641  18.349  0.00  0.00    +0.306 C 
ATOM     20  C   UNL     1      -5.737 -10.950  14.361  0.00  0.00    +0.099 A 
ATOM     21  C   UNL     1      -5.219  -9.861  14.940  0.00  0.00    +0.030 A 
ATOM     38  H   UNL     1      -8.467  -8.620  18.410  0.00  0.00    +0.156 HD
ENDROOT
BRANCH   9  29
ATOM     29  C   UNL     1      -9.716  -8.817  16.792  0.00  0.00    +0.042 A 
ATOM     30  C   UNL     1      -9.557  -9.402  15.536  0.00  0.00    +0.069 A 
ATOM     31  C   UNL     1     -10.583  -7.736  16.953  0.00  0.00    +0.069 A 
ATOM     32  C   UNL     1     -11.291  -7.241  15.858  0.00  0.00    +0.125 A 
ATOM     33  C   UNL     1     -10.265  -8.907  14.441  0.00  0.00    +0.125 A 
ATOM     34  C   UNL     1     -11.132  -7.825  14.602  0.00  0.00    +0.091 A 
BRANCH  32   4
ATOM      4  O   UNL     1     -12.138  -6.186  16.015  0.00  0.00    -0.495 OA
ATOM     35  C   UNL     1     -12.970  -5.852  14.906  0.00  0.00    +0.277 C 
ENDBRANCH  32   4
BRANCH  33   5
ATOM      5  O   UNL     1     -10.109  -9.478  13.215  0.00  0.00    -0.495 OA
ATOM     36  C   UNL     1      -9.490 -10.763  13.171  0.00  0.00    +0.277 C 
ENDBRANCH  33   5
ENDBRANCH   9  29
BRANCH  20   8
ATOM      3  O   UNL     1      -3.695 -11.372  12.389  0.00  0.00    -0.275 OA
ATOM      8  N   UNL     1      -5.918 -11.040  13.012  0.00  0.00    -0.281 N 
ATOM     28  C   UNL     1      -4.887 -11.259  12.111  0.00  0.00    +0.220 C 
ATOM     37  H   UNL     1      -6.812 -10.716  12.650  0.00  0.00    +0.155 HD
BRANCH  28  22
ATOM     22  C   UNL     1      -5.371 -11.314  10.692  0.00  0.00    +0.075 C 
ATOM     23  C   UNL     1      -6.507 -10.315  10.458  0.00  0.00    +0.013 C 
ATOM     24  C   UNL     1      -4.201 -11.114   9.727  0.00  0.00    +0.013 C 
ATOM     25  C   UNL     1      -6.029  -8.868  10.338  0.00  0.00    +0.001 C 
ATOM     26  C   UNL     1      -3.743  -9.660   9.633  0.00  0.00    +0.001 C 
ATOM     27  C   UNL     1      -4.904  -8.724   9.319  0.00  0.00    +0.000 C 
ENDBRANCH  28  22
ENDBRANCH  20   8
TORSDOF 5
ENDMDL
MODEL 7
REMARK VINA RESULT:      -6.6     28.440     30.017
REMARK  Name = 40586225
REMARK  7 active torsions:
REMARK  status: ('A' for Active; 'I' for Inactive)
REMARK    1  A    between atoms: O_4  and  C_32
REMARK    2  A    between atoms: O_4  and  C_35
REMARK    3  A    between atoms: O_5  and  C_33
REMARK    4  A    between atoms: O_5  and  C_36
REMARK    5  A    between atoms: N_8  and  C_20
REMARK    6  A    between atoms: N_9  and  C_29
REMARK    7  A    between atoms: C_22  and  C_28
REMARK                            x       y       z     vdW  Elec       q    Type
REMARK                         _______ _______ _______ _____ _____    ______ ____
ROOT
ATOM      1  O   UNL     1      -6.605 -13.144  14.644  0.00  0.00    -0.266 OA
ATOM      2  O   UNL     1      -9.827 -11.446  18.195  0.00  0.00    -0.252 OA
ATOM      6  N   UNL     1      -5.949 -11.969  16.555  0.00  0.00    -0.310 N 
ATOM      7  N   UNL     1      -7.703 -10.961  18.966  0.00  0.00    -0.284 N 
ATOM      9  N   UNL     1      -8.988  -9.303  17.889  0.00  0.00    -0.269 N 
ATOM     10  C   UNL     1      -6.186 -12.929  18.918  0.00  0.00    +0.027 C 
ATOM     11  C   UNL     1      -5.271 -10.664  18.600  0.00  0.00    +0.054 C 
ATOM     12  C   UNL     1      -5.005 -12.023  19.249  0.00  0.00    +0.018 C 
ATOM     13  C   UNL     1      -6.227 -13.141  17.399  0.00  0.00    +0.130 C 
ATOM     14  C   UNL     1      -7.500 -12.327  19.454  0.00  0.00    +0.114 C 
ATOM     15  C   UNL     1      -6.558 -10.063  19.197  0.00  0.00    +0.119 C 
ATOM     16  C   UNL     1      -5.414 -10.795  17.096  0.00  0.00    +0.027 A 
ATOM     17  C   UNL     1      -5.067  -9.776  16.292  0.00  0.00    +0.024 A 
ATOM     18  C   UNL     1      -6.155 -12.124  15.168  0.00  0.00    +0.273 A 
ATOM     19  C   UNL     1      -8.923 -10.620  18.344  0.00  0.00    +0.306 C 
ATOM     20  C   UNL     1      -5.779 -10.957  14.310  0.00  0.00    +0.099 A 
ATOM     21  C   UNL     1      -5.255  -9.861  14.871  0.00  0.00    +0.030 A 
ATOM     38  H   UNL     1      -8.452  -8.597  18.379  0.00  0.00    +0.156 HD
ENDROOT
BRANCH   9  29
ATOM     29  C   UNL     1      -9.725  -8.812  16.783  0.00  0.00    +0.042 A 
ATOM     30  C   UNL     1     -10.613  -7.750  16.953  0.00  0.00    +0.069 A 
ATOM     31  C   UNL     1      -9.563  -9.391  15.524  0.00  0.00    +0.069 A 
ATOM     32  C   UNL     1     -10.288  -8.908  14.435  0.00  0.00    +0.125 A 
ATOM     33  C   UNL     1     -11.338  -7.266  15.864  0.00  0.00    +0.125 A 
ATOM     34  C   UNL     1     -11.177  -7.845  14.605  0.00  0.00    +0.091 A 
BRANCH  32   4
ATOM      4  O   UNL     1     -10.130  -9.471  13.207  0.00  0.00    -0.495 OA
ATOM     35  C   UNL     1      -9.560 -10.778  13.160  0.00  0.00    +0.277 C 
ENDBRANCH  32   4
BRANCH  33   5
ATOM      5  O   UNL     1     -12.206  -6.230  16.030  0.00  0.00    -0.495 OA
ATOM     36  C   UNL     1     -13.016  -5.876  14.910  0.00  0.00    +0.277 C 
ENDBRANCH  33   5
ENDBRANCH   9  29
BRANCH  20   8
ATOM      3  O   UNL     1      -3.782 -11.498  12.321  0.00  0.00    -0.275 OA
ATOM      8  N   UNL     1      -5.980 -11.060  12.965  0.00  0.00    -0.281 N 
ATOM     28  C   UNL     1      -4.971 -11.337  12.055  0.00  0.00    +0.220 C 
ATOM     37  H   UNL     1      -6.863 -10.702  12.608  0.00  0.00    +0.155 HD
BRANCH  28  22
ATOM     22  C   UNL     1      -5.475 -11.393  10.643  0.00  0.00    +0.075 C 
ATOM     23  C   UNL     1      -6.599 -10.379  10.419  0.00  0.00    +0.013 C 
ATOM     24  C   UNL     1      -4.315 -11.214   9.662  0.00  0.00    +0.013 C 
ATOM     25  C   UNL     1      -6.103  -8.940  10.285  0.00  0.00    +0.001 C 
ATOM     26  C   UNL     1      -3.838  -9.767   9.554  0.00  0.00    +0.001 C 
ATOM     27  C   UNL     1      -4.990  -8.816   9.250  0.00  0.00    +0.000 C 
ENDBRANCH  28  22
ENDBRANCH  20   8
TORSDOF 5
ENDMDL
MODEL 8
REMARK VINA RESULT:      -6.5     23.957     27.001
REMARK  Name = 40586225
REMARK  7 active torsions:
REMARK  status: ('A' for Active; 'I' for Inactive)
REMARK    1  A    between atoms: O_4  and  C_32
REMARK    2  A    between atoms: O_4  and  C_35
REMARK    3  A    between atoms: O_5  and  C_33
REMARK    4  A    between atoms: O_5  and  C_36
REMARK    5  A    between atoms: N_8  and  C_20
REMARK    6  A    between atoms: N_9  and  C_29
REMARK    7  A    between atoms: C_22  and  C_28
REMARK                            x       y       z     vdW  Elec       q    Type
REMARK                         _______ _______ _______ _____ _____    ______ ____
ROOT
ATOM      1  O   UNL     1     -14.248   8.121  18.658  0.00  0.00    -0.266 OA
ATOM      2  O   UNL     1     -16.811   9.717  22.751  0.00  0.00    -0.252 OA
ATOM      6  N   UNL     1     -14.882   6.735  20.429  0.00  0.00    -0.310 N 
ATOM      7  N   UNL     1     -16.599   7.426  22.975  0.00  0.00    -0.284 N 
ATOM      9  N   UNL     1     -15.120   8.877  24.101  0.00  0.00    -0.269 N 
ATOM     10  C   UNL     1     -17.331   6.187  20.949  0.00  0.00    +0.027 C 
ATOM     11  C   UNL     1     -15.540   5.271  22.372  0.00  0.00    +0.054 C 
ATOM     12  C   UNL     1     -16.767   4.898  21.538  0.00  0.00    +0.018 C 
ATOM     13  C   UNL     1     -16.287   6.784  19.996  0.00  0.00    +0.130 C 
ATOM     14  C   UNL     1     -17.722   7.171  22.069  0.00  0.00    +0.114 C 
ATOM     15  C   UNL     1     -15.973   6.208  23.515  0.00  0.00    +0.119 C 
ATOM     16  C   UNL     1     -14.486   5.951  21.519  0.00  0.00    +0.027 A 
ATOM     17  C   UNL     1     -13.185   5.835  21.831  0.00  0.00    +0.024 A 
ATOM     18  C   UNL     1     -13.950   7.434  19.636  0.00  0.00    +0.273 A 
ATOM     19  C   UNL     1     -16.222   8.757  23.255  0.00  0.00    +0.306 C 
ATOM     20  C   UNL     1     -12.512   7.298  20.032  0.00  0.00    +0.099 A 
ATOM     21  C   UNL     1     -12.180   6.524  21.071  0.00  0.00    +0.030 A 
ATOM     38  H   UNL     1     -14.956   8.147  24.784  0.00  0.00    +0.156 HD
ENDROOT
BRANCH   9  29
ATOM     29  C   UNL     1     -14.161   9.919  24.120  0.00  0.00    +0.042 A 
ATOM     30  C   UNL     1     -13.359  10.109  25.245  0.00  0.00    +0.069 A 
ATOM     31  C   UNL     1     -14.017  10.755  23.012  0.00  0.00    +0.069 A 
ATOM     32  C   UNL     1     -13.072  11.781  23.030  0.00  0.00    +0.125 A 
ATOM     33  C   UNL     1     -12.414  11.135  25.264  0.00  0.00    +0.125 A 
ATOM     34  C   UNL     1     -12.271  11.972  24.156  0.00  0.00    +0.091 A 
BRANCH  32   4
ATOM      4  O   UNL     1     -12.931  12.597  21.950  0.00  0.00    -0.495 OA
ATOM     35  C   UNL     1     -14.121  12.968  21.256  0.00  0.00    +0.277 C 
ENDBRANCH  32   4
BRANCH  33   5
ATOM      5  O   UNL     1     -11.633  11.321  26.363  0.00  0.00    -0.495 OA
ATOM     36  C   UNL     1     -10.711  10.282  26.688  0.00  0.00    +0.277 C 
ENDBRANCH  33   5
ENDBRANCH   9  29
BRANCH  20   8
ATOM      3  O   UNL     1     -11.652  10.005  20.447  0.00  0.00    -0.275 OA
ATOM      8  N   UNL     1     -11.580   7.975  19.301  0.00  0.00    -0.281 N 
ATOM     28  C   UNL     1     -11.199   9.282  19.562  0.00  0.00    +0.220 C 
ATOM     37  H   UNL     1     -11.325   7.570  18.404  0.00  0.00    +0.155 HD
BRANCH  28  22
ATOM     22  C   UNL     1     -10.156   9.775  18.603  0.00  0.00    +0.075 C 
ATOM     23  C   UNL     1     -10.134   8.925  17.330  0.00  0.00    +0.013 C 
ATOM     24  C   UNL     1     -10.366  11.263  18.315  0.00  0.00    +0.013 C 
ATOM     25  C   UNL     1     -11.289   9.226  16.377  0.00  0.00    +0.001 C 
ATOM     26  C   UNL     1     -11.531  11.532  17.364  0.00  0.00    +0.001 C 
ATOM     27  C   UNL     1     -11.409  10.717  16.081  0.00  0.00    +0.000 C 
ENDBRANCH  28  22
ENDBRANCH  20   8
TORSDOF 5
ENDMDL
MODEL 9
REMARK VINA RESULT:      -6.5     23.927     26.936
REMARK  Name = 40586225
REMARK  7 active torsions:
REMARK  status: ('A' for Active; 'I' for Inactive)
REMARK    1  A    between atoms: O_4  and  C_32
REMARK    2  A    between atoms: O_4  and  C_35
REMARK    3  A    between atoms: O_5  and  C_33
REMARK    4  A    between atoms: O_5  and  C_36
REMARK    5  A    between atoms: N_8  and  C_20
REMARK    6  A    between atoms: N_9  and  C_29
REMARK    7  A    between atoms: C_22  and  C_28
REMARK                            x       y       z     vdW  Elec       q    Type
REMARK                         _______ _______ _______ _____ _____    ______ ____
ROOT
ATOM      1  O   UNL     1     -14.212   8.195  18.654  0.00  0.00    -0.266 OA
ATOM      2  O   UNL     1     -16.764   9.647  22.808  0.00  0.00    -0.252 OA
ATOM      6  N   UNL     1     -14.792   6.759  20.404  0.00  0.00    -0.310 N 
ATOM      7  N   UNL     1     -16.494   7.358  22.983  0.00  0.00    -0.284 N 
ATOM      9  N   UNL     1     -15.037   8.822  24.120  0.00  0.00    -0.269 N 
ATOM     10  C   UNL     1     -17.219   6.141  20.942  0.00  0.00    +0.027 C 
ATOM     11  C   UNL     1     -15.390   5.241  22.324  0.00  0.00    +0.054 C 
ATOM     12  C   UNL     1     -16.617   4.855  21.498  0.00  0.00    +0.018 C 
ATOM     13  C   UNL     1     -16.202   6.783  19.988  0.00  0.00    +0.130 C 
ATOM     14  C   UNL     1     -17.621   7.093  22.086  0.00  0.00    +0.114 C 
ATOM     15  C   UNL     1     -15.832   6.145  23.491  0.00  0.00    +0.119 C 
ATOM     16  C   UNL     1     -14.363   5.964  21.473  0.00  0.00    +0.027 A 
ATOM     17  C   UNL     1     -13.056   5.874  21.768  0.00  0.00    +0.024 A 
ATOM     18  C   UNL     1     -13.886   7.497  19.614  0.00  0.00    +0.273 A 
ATOM     19  C   UNL     1     -16.146   8.692  23.285  0.00  0.00    +0.306 C 
ATOM     20  C   UNL     1     -12.441   7.389  19.991  0.00  0.00    +0.099 A 
ATOM     21  C   UNL     1     -12.077   6.603  21.010  0.00  0.00    +0.030 A 
ATOM     38  H   UNL     1     -14.848   8.083  24.787  0.00  0.00    +0.156 HD
ENDROOT
BRANCH   9  29
ATOM     29  C   UNL     1     -14.103   9.887  24.149  0.00  0.00    +0.042 A 
ATOM     30  C   UNL     1     -14.051  10.798  23.094  0.00  0.00    +0.069 A 
ATOM     31  C   UNL     1     -13.236  10.025  25.234  0.00  0.00    +0.069 A 
ATOM     32  C   UNL     1     -12.317  11.074  25.262  0.00  0.00    +0.125 A 
ATOM     33  C   UNL     1     -13.132  11.846  23.122  0.00  0.00    +0.125 A 
ATOM     34  C   UNL     1     -12.264  11.984  24.206  0.00  0.00    +0.091 A 
BRANCH  32   4
ATOM      4  O   UNL     1     -11.471  11.210  26.319  0.00  0.00    -0.495 OA
ATOM     35  C   UNL     1     -11.052  10.014  26.974  0.00  0.00    +0.277 C 
ENDBRANCH  32   4
BRANCH  33   5
ATOM      5  O   UNL     1     -13.080  12.735  22.092  0.00  0.00    -0.495 OA
ATOM     36  C   UNL     1     -14.189  13.621  21.942  0.00  0.00    +0.277 C 
ENDBRANCH  33   5
ENDBRANCH   9  29
BRANCH  20   8
ATOM      3  O   UNL     1     -11.640  10.106  20.452  0.00  0.00    -0.275 OA
ATOM      8  N   UNL     1     -11.534   8.102  19.263  0.00  0.00    -0.281 N 
ATOM     28  C   UNL     1     -11.181   9.412  19.547  0.00  0.00    +0.220 C 
ATOM     37  H   UNL     1     -11.281   7.722  18.354  0.00  0.00    +0.155 HD
BRANCH  28  22
ATOM     22  C   UNL     1     -10.163   9.950  18.585  0.00  0.00    +0.075 C 
ATOM     23  C   UNL     1     -10.082   9.082  17.327  0.00  0.00    +0.013 C 
ATOM     24  C   UNL     1     -10.457  11.418  18.272  0.00  0.00    +0.013 C 
ATOM     25  C   UNL     1     -11.247   9.300  16.362  0.00  0.00    +0.001 C 
ATOM     26  C   UNL     1     -11.629  11.603  17.310  0.00  0.00    +0.001 C 
ATOM     27  C   UNL     1     -11.451  10.776  16.041  0.00  0.00    +0.000 C 
ENDBRANCH  28  22
ENDBRANCH  20   8
TORSDOF 5
ENDMDL
MODEL 10
REMARK VINA RESULT:      -6.3     27.976     30.418
REMARK  Name = 40586225
REMARK  7 active torsions:
REMARK  status: ('A' for Active; 'I' for Inactive)
REMARK    1  A    between atoms: O_4  and  C_32
REMARK    2  A    between atoms: O_4  and  C_35
REMARK    3  A    between atoms: O_5  and  C_33
REMARK    4  A    between atoms: O_5  and  C_36
REMARK    5  A    between atoms: N_8  and  C_20
REMARK    6  A    between atoms: N_9  and  C_29
REMARK    7  A    between atoms: C_22  and  C_28
REMARK                            x       y       z     vdW  Elec       q    Type
REMARK                         _______ _______ _______ _____ _____    ______ ____
ROOT
ATOM      1  O   UNL     1      -5.305 -14.142  15.924  0.00  0.00    -0.266 OA
ATOM      2  O   UNL     1      -9.163 -11.198  14.400  0.00  0.00    -0.252 OA
ATOM      6  N   UNL     1      -5.940 -12.160  16.987  0.00  0.00    -0.310 N 
ATOM      7  N   UNL     1      -8.366 -10.257  16.356  0.00  0.00    -0.284 N 
ATOM      9  N   UNL     1      -7.699  -9.402  14.262  0.00  0.00    -0.269 N 
ATOM     10  C   UNL     1      -8.176 -11.900  18.210  0.00  0.00    +0.027 C 
ATOM     11  C   UNL     1      -6.616  -9.997  18.089  0.00  0.00    +0.054 C 
ATOM     12  C   UNL     1      -7.432 -10.865  19.047  0.00  0.00    +0.018 C 
ATOM     13  C   UNL     1      -7.143 -12.809  17.529  0.00  0.00    +0.130 C 
ATOM     14  C   UNL     1      -9.102 -11.211  17.189  0.00  0.00    +0.114 C 
ATOM     15  C   UNL     1      -7.573  -9.279  17.119  0.00  0.00    +0.119 C 
ATOM     16  C   UNL     1      -5.623 -10.835  17.306  0.00  0.00    +0.027 A 
ATOM     17  C   UNL     1      -4.465 -10.297  16.888  0.00  0.00    +0.024 A 
ATOM     18  C   UNL     1      -5.079 -12.967  16.215  0.00  0.00    +0.273 A 
ATOM     19  C   UNL     1      -8.470 -10.338  14.951  0.00  0.00    +0.306 C 
ATOM     20  C   UNL     1      -3.811 -12.322  15.747  0.00  0.00    +0.099 A 
ATOM     21  C   UNL     1      -3.543 -11.057  16.092  0.00  0.00    +0.030 A 
ATOM     38  H   UNL     1      -7.510  -8.512  14.708  0.00  0.00    +0.156 HD
ENDROOT
BRANCH   9  29
ATOM     29  C   UNL     1      -7.117  -9.547  12.979  0.00  0.00    +0.042 A 
ATOM     30  C   UNL     1      -5.735  -9.689  12.851  0.00  0.00    +0.069 A 
ATOM     31  C   UNL     1      -7.926  -9.547  11.841  0.00  0.00    +0.069 A 
ATOM     32  C   UNL     1      -7.352  -9.689  10.578  0.00  0.00    +0.125 A 
ATOM     33  C   UNL     1      -5.162  -9.832  11.588  0.00  0.00    +0.125 A 
ATOM     34  C   UNL     1      -5.970  -9.831  10.450  0.00  0.00    +0.091 A 
BRANCH  32   4
ATOM      4  O   UNL     1      -8.140  -9.690   9.468  0.00  0.00    -0.495 OA
ATOM     35  C   UNL     1      -7.759 -10.556   8.401  0.00  0.00    +0.277 C 
ENDBRANCH  32   4
BRANCH  33   5
ATOM      5  O   UNL     1      -3.813  -9.970  11.464  0.00  0.00    -0.495 OA
ATOM     36  C   UNL     1      -3.197  -9.344  10.339  0.00  0.00    +0.277 C 
ENDBRANCH  33   5
ENDBRANCH   9  29
BRANCH  20   8
ATOM      3  O   UNL     1      -4.098 -12.905  12.952  0.00  0.00    -0.275 OA
ATOM      8  N   UNL     1      -2.960 -13.064  14.982  0.00  0.00    -0.281 N 
ATOM     28  C   UNL     1      -3.150 -13.298  13.629  0.00  0.00    +0.220 C 
ATOM     37  H   UNL     1      -2.286 -13.640  15.479  0.00  0.00    +0.155 HD
BRANCH  28  22
ATOM     22  C   UNL     1      -2.061 -14.144  13.037  0.00  0.00    +0.075 C 
ATOM     23  C   UNL     1      -1.459 -15.080  14.089  0.00  0.00    +0.013 C 
ATOM     24  C   UNL     1      -2.582 -14.892  11.809  0.00  0.00    +0.013 C 
ATOM     25  C   UNL     1      -2.347 -16.282  14.412  0.00  0.00    +0.001 C 
ATOM     26  C   UNL     1      -3.470 -16.084  12.165  0.00  0.00    +0.001 C 
ATOM     27  C   UNL     1      -2.784 -17.021  13.153  0.00  0.00    +0.000 C 
ENDBRANCH  28  22
ENDBRANCH  20   8
TORSDOF 5
ENDMDL
