REMARK  Name = 45783806
REMARK  9 active torsions:
REMARK  status: ('A' for Active; 'I' for Inactive)
REMARK    1  A    between atoms: O_3  and  C_21
REMARK    2  A    between atoms: N_4  and  C_13
REMARK    3  A    between atoms: N_8  and  C_25
REMARK    4  A    between atoms: N_8  and  C_26
REMARK    5  A    between atoms: N_8  and  C_27
REMARK    6  A    between atoms: C_9  and  C_14
REMARK    7  A    between atoms: C_13  and  C_15
REMARK    8  A    between atoms: C_17  and  C_20
REMARK    9  A    between atoms: C_18  and  C_21
REMARK                            x       y       z     vdW  Elec       q    Type
REMARK                         _______ _______ _______ _____ _____    ______ ____
ROOT
ATOM      4  N   UNL     1      -3.623  -0.629  -0.698  0.00  0.00    -0.284 NA
ATOM      9  C   UNL     1      -3.102  -1.563   0.320  0.00  0.00    +0.146 C 
ATOM     10  C   UNL     1      -3.267  -2.959  -0.309  0.00  0.00    +0.030 C 
ATOM     11  C   UNL     1      -3.943  -2.713  -1.651  0.00  0.00    +0.017 C 
ATOM     12  C   UNL     1      -4.622  -1.371  -1.468  0.00  0.00    +0.085 C 
ENDROOT
BRANCH   9  14
ATOM      1  O   UNL     1      -1.437  -1.022   2.025  0.00  0.00    -0.336 OA
ATOM      5  N   UNL     1      -0.602  -1.196  -0.046  0.00  0.00    -0.190 NA
ATOM      6  N   UNL     1      -0.063  -0.773   2.137  0.00  0.00    -0.056 NA
ATOM     14  C   UNL     1      -1.670  -1.262   0.708  0.00  0.00    +0.245 A 
ATOM     17  C   UNL     1       0.359  -0.893   0.874  0.00  0.00    +0.204 A 
BRANCH  17  20
ATOM      7  N   UNL     1       4.008  -0.234   1.159  0.00  0.00    -0.240 NA
ATOM     20  C   UNL     1       1.733  -0.719   0.500  0.00  0.00    +0.041 A 
ATOM     22  C   UNL     1       2.137  -0.853  -0.824  0.00  0.00    +0.016 A 
ATOM     23  C   UNL     1       2.698  -0.411   1.445  0.00  0.00    +0.124 A 
ATOM     24  C   UNL     1       3.476  -0.678  -1.157  0.00  0.00    +0.044 A 
ATOM     25  C   UNL     1       4.363  -0.372  -0.137  0.00  0.00    +0.121 A 
BRANCH  25   8
ATOM      8  N   UNL     1       5.724  -0.198  -0.492  0.00  0.00    -0.321 N 
ATOM     26  C   UNL     1       6.704   0.130   0.519  0.00  0.00    +0.130 C 
ATOM     27  C   UNL     1       6.140  -0.340  -1.870  0.00  0.00    +0.130 C 
ENDBRANCH  25   8
ENDBRANCH  17  20
ENDBRANCH   9  14
BRANCH   4  13
ATOM     13  C   UNL     1      -4.168   0.596  -0.128  0.00  0.00    +0.159 C 
BRANCH  13  15
ATOM      2  O   UNL     1      -2.272   1.977  -0.779  0.00  0.00    -0.461 OA
ATOM     15  C   UNL     1      -3.085   1.577   0.234  0.00  0.00    +0.119 A 
ATOM     16  C   UNL     1      -2.720   2.184   1.414  0.00  0.00    +0.046 A 
ATOM     18  C   UNL     1      -1.379   2.848  -0.241  0.00  0.00    +0.131 A 
ATOM     19  C   UNL     1      -1.613   3.009   1.105  0.00  0.00    +0.047 A 
BRANCH  18  21
ATOM     21  C   UNL     1      -0.389   3.418  -1.165  0.00  0.00    +0.230 C 
BRANCH  21   3
ATOM      3  O   UNL     1       0.612   2.446  -1.477  0.00  0.00    -0.387 OA
ATOM     28  H   UNL     1       1.240   2.871  -2.087  0.00  0.00    +0.210 HD
ENDBRANCH  21   3
ENDBRANCH  18  21
ENDBRANCH  13  15
ENDBRANCH   4  13
TORSDOF 7
