MODEL 1
REMARK VINA RESULT:      -7.7      0.000      0.000
REMARK  Name = 40777425
REMARK  9 active torsions:
REMARK  status: ('A' for Active; 'I' for Inactive)
REMARK    1  A    between atoms: O_4  and  C_28
REMARK    2  A    between atoms: O_4  and  C_32
REMARK    3  A    between atoms: N_6  and  C_19
REMARK    4  A    between atoms: C_8  and  C_14
REMARK    5  A    between atoms: C_9  and  C_13
REMARK    6  A    between atoms: C_13  and  C_15
REMARK    7  A    between atoms: C_14  and  C_16
REMARK    8  A    between atoms: C_18  and  C_20
REMARK    9  A    between atoms: C_19  and  C_21
REMARK                            x       y       z     vdW  Elec       q    Type
REMARK                         _______ _______ _______ _____ _____    ______ ____
ROOT
ATOM      5  N   UNL     1      11.732   8.954  22.917  0.00  0.00    -0.316 NA
ATOM      8  C   UNL     1      11.950   7.739  20.237  0.00  0.00    +0.004 C 
ATOM      9  C   UNL     1      13.165   8.341  20.984  0.00  0.00    +0.012 C 
ATOM     10  C   UNL     1      10.883   7.327  21.264  0.00  0.00    +0.019 C 
ATOM     11  C   UNL     1      12.736   9.440  21.970  0.00  0.00    +0.085 C 
ATOM     12  C   UNL     1      10.540   8.455  22.235  0.00  0.00    +0.081 C 
ATOM     33  H   UNL     1      11.469   9.712  23.547  0.00  0.00    +0.122 HD
ENDROOT
BRANCH   9  13
ATOM     13  C   UNL     1      14.251   8.859  20.040  0.00  0.00    +0.064 C 
BRANCH  13  15
ATOM      3  O   UNL     1      16.656   6.265  19.367  0.00  0.00    -0.354 OA
ATOM      7  N   UNL     1      15.444   6.908  19.141  0.00  0.00    -0.083 NA
ATOM     15  C   UNL     1      15.430   7.930  20.001  0.00  0.00    +0.085 A 
ATOM     17  C   UNL     1      16.594   7.983  20.787  0.00  0.00    +0.076 A 
ATOM     18  C   UNL     1      17.331   6.915  20.348  0.00  0.00    +0.167 A 
BRANCH  18  20
ATOM     20  C   UNL     1      18.610   6.363  20.693  0.00  0.00    +0.020 A 
ATOM     22  C   UNL     1      19.126   5.290  19.967  0.00  0.00    +0.015 A 
ATOM     23  C   UNL     1      19.338   6.901  21.754  0.00  0.00    +0.015 A 
ATOM     26  C   UNL     1      20.369   4.754  20.301  0.00  0.00    +0.046 A 
ATOM     27  C   UNL     1      20.581   6.365  22.090  0.00  0.00    +0.046 A 
ATOM     28  C   UNL     1      21.096   5.292  21.363  0.00  0.00    +0.120 A 
BRANCH  28   4
ATOM      4  O   UNL     1      22.311   4.771  21.690  0.00  0.00    -0.495 OA
ATOM     32  C   UNL     1      23.360   4.923  20.735  0.00  0.00    +0.277 C 
ENDBRANCH  28   4
ENDBRANCH  18  20
ENDBRANCH  13  15
ENDBRANCH   9  13
BRANCH   8  14
ATOM     14  C   UNL     1      11.352   8.666  19.171  0.00  0.00    +0.099 C 
BRANCH  14  16
ATOM      2  O   UNL     1      12.029   7.311  17.285  0.00  0.00    -0.276 OA
ATOM      6  N   UNL     1      12.379   9.607  17.224  0.00  0.00    -0.311 N 
ATOM     16  C   UNL     1      11.947   8.422  17.801  0.00  0.00    +0.214 C 
ATOM     34  H   UNL     1      12.282  10.476  17.743  0.00  0.00    +0.149 HD
BRANCH   6  19
ATOM     19  C   UNL     1      12.992   9.673  15.917  0.00  0.00    +0.139 C 
BRANCH  19  21
ATOM      1  F   UNL     1      17.579  12.936  15.902  0.00  0.00    -0.205 F 
ATOM     21  C   UNL     1      14.215  10.542  15.912  0.00  0.00    -0.030 A 
ATOM     24  C   UNL     1      14.542  11.291  17.043  0.00  0.00    +0.008 A 
ATOM     25  C   UNL     1      15.025  10.601  14.779  0.00  0.00    +0.008 A 
ATOM     29  C   UNL     1      15.678  12.100  17.039  0.00  0.00    +0.038 A 
ATOM     30  C   UNL     1      16.161  11.410  14.774  0.00  0.00    +0.038 A 
ATOM     31  C   UNL     1      16.488  12.160  15.905  0.00  0.00    +0.123 A 
ENDBRANCH  19  21
ENDBRANCH   6  19
ENDBRANCH  14  16
ENDBRANCH   8  14
TORSDOF 8
ENDMDL
MODEL 2
REMARK VINA RESULT:      -7.5      3.449      7.686
REMARK  Name = 40777425
REMARK  9 active torsions:
REMARK  status: ('A' for Active; 'I' for Inactive)
REMARK    1  A    between atoms: O_4  and  C_28
REMARK    2  A    between atoms: O_4  and  C_32
REMARK    3  A    between atoms: N_6  and  C_19
REMARK    4  A    between atoms: C_8  and  C_14
REMARK    5  A    between atoms: C_9  and  C_13
REMARK    6  A    between atoms: C_13  and  C_15
REMARK    7  A    between atoms: C_14  and  C_16
REMARK    8  A    between atoms: C_18  and  C_20
REMARK    9  A    between atoms: C_19  and  C_21
REMARK                            x       y       z     vdW  Elec       q    Type
REMARK                         _______ _______ _______ _____ _____    ______ ____
ROOT
ATOM      5  N   UNL     1      21.411   5.584  23.878  0.00  0.00    -0.316 NA
ATOM      8  C   UNL     1      20.245   7.869  22.419  0.00  0.00    +0.004 C 
ATOM      9  C   UNL     1      20.065   6.402  21.958  0.00  0.00    +0.012 C 
ATOM     10  C   UNL     1      20.524   7.889  23.931  0.00  0.00    +0.019 C 
ATOM     11  C   UNL     1      21.228   5.513  22.427  0.00  0.00    +0.085 C 
ATOM     12  C   UNL     1      21.664   6.952  24.326  0.00  0.00    +0.081 C 
ATOM     33  H   UNL     1      22.194   4.990  24.148  0.00  0.00    +0.122 HD
ENDROOT
BRANCH   9  13
ATOM     13  C   UNL     1      19.861   6.269  20.448  0.00  0.00    +0.064 C 
BRANCH  13  15
ATOM      3  O   UNL     1      16.606   5.805  18.982  0.00  0.00    -0.354 OA
ATOM      7  N   UNL     1      17.979   5.591  19.023  0.00  0.00    -0.083 NA
ATOM     15  C   UNL     1      18.403   6.272  20.090  0.00  0.00    +0.085 A 
ATOM     17  C   UNL     1      17.355   6.930  20.756  0.00  0.00    +0.076 A 
ATOM     18  C   UNL     1      16.247   6.603  20.020  0.00  0.00    +0.167 A 
BRANCH  18  20
ATOM     20  C   UNL     1      14.849   6.914  20.110  0.00  0.00    +0.020 A 
ATOM     22  C   UNL     1      14.156   7.350  18.981  0.00  0.00    +0.015 A 
ATOM     23  C   UNL     1      14.182   6.779  21.328  0.00  0.00    +0.015 A 
ATOM     26  C   UNL     1      12.798   7.651  19.068  0.00  0.00    +0.046 A 
ATOM     27  C   UNL     1      12.823   7.080  21.416  0.00  0.00    +0.046 A 
ATOM     28  C   UNL     1      12.132   7.517  20.286  0.00  0.00    +0.120 A 
BRANCH  28   4
ATOM      4  O   UNL     1      10.805   7.809  20.372  0.00  0.00    -0.495 OA
ATOM     32  C   UNL     1      10.232   7.845  21.679  0.00  0.00    +0.277 C 
ENDBRANCH  28   4
ENDBRANCH  18  20
ENDBRANCH  13  15
ENDBRANCH   9  13
BRANCH   8  14
ATOM     14  C   UNL     1      21.330   8.634  21.653  0.00  0.00    +0.099 C 
BRANCH  14  16
ATOM      2  O   UNL     1      21.443  10.535  20.161  0.00  0.00    -0.276 OA
ATOM      6  N   UNL     1      19.418   9.989  21.161  0.00  0.00    -0.311 N 
ATOM     16  C   UNL     1      20.770   9.822  20.900  0.00  0.00    +0.214 C 
ATOM     34  H   UNL     1      18.954   9.353  21.805  0.00  0.00    +0.149 HD
BRANCH   6  19
ATOM     19  C   UNL     1      18.625  11.048  20.578  0.00  0.00    +0.139 C 
BRANCH  19  21
ATOM      1  F   UNL     1      13.118  10.282  21.457  0.00  0.00    -0.205 F 
ATOM     21  C   UNL     1      17.157  10.844  20.812  0.00  0.00    -0.030 A 
ATOM     24  C   UNL     1      16.703  10.410  22.058  0.00  0.00    +0.008 A 
ATOM     25  C   UNL     1      16.246  11.089  19.784  0.00  0.00    +0.008 A 
ATOM     29  C   UNL     1      15.338  10.220  22.275  0.00  0.00    +0.038 A 
ATOM     30  C   UNL     1      14.882  10.898  20.002  0.00  0.00    +0.038 A 
ATOM     31  C   UNL     1      14.427  10.464  21.248  0.00  0.00    +0.123 A 
ENDBRANCH  19  21
ENDBRANCH   6  19
ENDBRANCH  14  16
ENDBRANCH   8  14
TORSDOF 8
ENDMDL
MODEL 3
REMARK VINA RESULT:      -7.4     27.261     30.431
REMARK  Name = 40777425
REMARK  9 active torsions:
REMARK  status: ('A' for Active; 'I' for Inactive)
REMARK    1  A    between atoms: O_4  and  C_28
REMARK    2  A    between atoms: O_4  and  C_32
REMARK    3  A    between atoms: N_6  and  C_19
REMARK    4  A    between atoms: C_8  and  C_14
REMARK    5  A    between atoms: C_9  and  C_13
REMARK    6  A    between atoms: C_13  and  C_15
REMARK    7  A    between atoms: C_14  and  C_16
REMARK    8  A    between atoms: C_18  and  C_20
REMARK    9  A    between atoms: C_19  and  C_21
REMARK                            x       y       z     vdW  Elec       q    Type
REMARK                         _______ _______ _______ _____ _____    ______ ____
ROOT
ATOM      5  N   UNL     1      -2.554 -15.337  11.867  0.00  0.00    -0.316 NA
ATOM      8  C   UNL     1      -2.999 -13.293  13.948  0.00  0.00    +0.004 C 
ATOM      9  C   UNL     1      -3.795 -13.323  12.620  0.00  0.00    +0.012 C 
ATOM     10  C   UNL     1      -2.481 -14.708  14.254  0.00  0.00    +0.019 C 
ATOM     11  C   UNL     1      -2.992 -13.992  11.493  0.00  0.00    +0.085 C 
ATOM     12  C   UNL     1      -1.731 -15.323  13.075  0.00  0.00    +0.081 C 
ATOM     33  H   UNL     1      -2.020 -15.744  11.099  0.00  0.00    +0.122 HD
ENDROOT
BRANCH   9  13
ATOM     13  C   UNL     1      -4.285 -11.941  12.185  0.00  0.00    +0.064 C 
BRANCH  13  15
ATOM      3  O   UNL     1      -5.648  -9.771  14.713  0.00  0.00    -0.354 OA
ATOM      7  N   UNL     1      -4.707 -10.087  13.741  0.00  0.00    -0.083 NA
ATOM     15  C   UNL     1      -5.085 -11.278  13.268  0.00  0.00    +0.085 A 
ATOM     17  C   UNL     1      -6.247 -11.758  13.897  0.00  0.00    +0.076 A 
ATOM     18  C   UNL     1      -6.561 -10.772  14.796  0.00  0.00    +0.167 A 
BRANCH  18  20
ATOM     20  C   UNL     1      -7.603 -10.586  15.764  0.00  0.00    +0.020 A 
ATOM     22  C   UNL     1      -7.650  -9.417  16.523  0.00  0.00    +0.015 A 
ATOM     23  C   UNL     1      -8.571 -11.574  15.944  0.00  0.00    +0.015 A 
ATOM     26  C   UNL     1      -8.664  -9.235  17.463  0.00  0.00    +0.046 A 
ATOM     27  C   UNL     1      -9.585 -11.393  16.885  0.00  0.00    +0.046 A 
ATOM     28  C   UNL     1      -9.631 -10.223  17.644  0.00  0.00    +0.120 A 
BRANCH  28   4
ATOM      4  O   UNL     1     -10.622 -10.046  18.560  0.00  0.00    -0.495 OA
ATOM     32  C   UNL     1     -10.443 -10.658  19.837  0.00  0.00    +0.277 C 
ENDBRANCH  28   4
ENDBRANCH  18  20
ENDBRANCH  13  15
ENDBRANCH   9  13
BRANCH   8  14
ATOM     14  C   UNL     1      -1.851 -12.276  13.963  0.00  0.00    +0.099 C 
BRANCH  14  16
ATOM      2  O   UNL     1      -0.925 -10.699  15.546  0.00  0.00    -0.276 OA
ATOM      6  N   UNL     1      -3.046 -11.572  15.915  0.00  0.00    -0.311 N 
ATOM     16  C   UNL     1      -1.859 -11.422  15.213  0.00  0.00    +0.214 C 
ATOM     34  H   UNL     1      -3.754 -12.212  15.564  0.00  0.00    +0.149 HD
BRANCH   6  19
ATOM     19  C   UNL     1      -3.327 -10.877  17.151  0.00  0.00    +0.139 C 
BRANCH  19  21
ATOM      1  F   UNL     1      -7.905 -12.911  19.718  0.00  0.00    -0.205 F 
ATOM     21  C   UNL     1      -4.547 -11.418  17.835  0.00  0.00    -0.030 A 
ATOM     24  C   UNL     1      -5.049 -12.671  17.479  0.00  0.00    +0.008 A 
ATOM     25  C   UNL     1      -5.180 -10.672  18.830  0.00  0.00    +0.008 A 
ATOM     29  C   UNL     1      -6.183 -13.174  18.115  0.00  0.00    +0.038 A 
ATOM     30  C   UNL     1      -6.314 -11.175  19.465  0.00  0.00    +0.038 A 
ATOM     31  C   UNL     1      -6.816 -12.427  19.108  0.00  0.00    +0.123 A 
ENDBRANCH  19  21
ENDBRANCH   6  19
ENDBRANCH  14  16
ENDBRANCH   8  14
TORSDOF 8
ENDMDL
MODEL 4
REMARK VINA RESULT:      -7.4     12.887     15.200
REMARK  Name = 40777425
REMARK  9 active torsions:
REMARK  status: ('A' for Active; 'I' for Inactive)
REMARK    1  A    between atoms: O_4  and  C_28
REMARK    2  A    between atoms: O_4  and  C_32
REMARK    3  A    between atoms: N_6  and  C_19
REMARK    4  A    between atoms: C_8  and  C_14
REMARK    5  A    between atoms: C_9  and  C_13
REMARK    6  A    between atoms: C_13  and  C_15
REMARK    7  A    between atoms: C_14  and  C_16
REMARK    8  A    between atoms: C_18  and  C_20
REMARK    9  A    between atoms: C_19  and  C_21
REMARK                            x       y       z     vdW  Elec       q    Type
REMARK                         _______ _______ _______ _____ _____    ______ ____
ROOT
ATOM      5  N   UNL     1      16.168  -3.068  32.133  0.00  0.00    -0.316 NA
ATOM      8  C   UNL     1      17.521  -2.839  29.521  0.00  0.00    +0.004 C 
ATOM      9  C   UNL     1      17.125  -4.201  30.141  0.00  0.00    +0.012 C 
ATOM     10  C   UNL     1      16.612  -1.741  30.097  0.00  0.00    +0.019 C 
ATOM     11  C   UNL     1      17.067  -4.129  31.676  0.00  0.00    +0.085 C 
ATOM     12  C   UNL     1      16.572  -1.759  31.624  0.00  0.00    +0.081 C 
ATOM     33  H   UNL     1      16.163  -3.046  33.152  0.00  0.00    +0.122 HD
ENDROOT
BRANCH   9  13
ATOM     13  C   UNL     1      18.028  -5.349  29.690  0.00  0.00    +0.064 C 
BRANCH  13  15
ATOM      3  O   UNL     1      17.047  -5.950  26.279  0.00  0.00    -0.354 OA
ATOM      7  N   UNL     1      16.767  -5.809  27.633  0.00  0.00    -0.083 NA
ATOM     15  C   UNL     1      17.947  -5.559  28.206  0.00  0.00    +0.085 A 
ATOM     17  C   UNL     1      18.998  -5.529  27.274  0.00  0.00    +0.076 A 
ATOM     18  C   UNL     1      18.379  -5.780  26.077  0.00  0.00    +0.167 A 
BRANCH  18  20
ATOM     20  C   UNL     1      18.822  -5.896  24.718  0.00  0.00    +0.020 A 
ATOM     22  C   UNL     1      20.139  -5.580  24.384  0.00  0.00    +0.015 A 
ATOM     23  C   UNL     1      17.937  -6.328  23.731  0.00  0.00    +0.015 A 
ATOM     26  C   UNL     1      20.570  -5.694  23.063  0.00  0.00    +0.046 A 
ATOM     27  C   UNL     1      18.367  -6.441  22.409  0.00  0.00    +0.046 A 
ATOM     28  C   UNL     1      19.684  -6.124  22.075  0.00  0.00    +0.120 A 
BRANCH  28   4
ATOM      4  O   UNL     1      20.104  -6.238  20.786  0.00  0.00    -0.495 OA
ATOM     32  C   UNL     1      19.176  -6.776  19.845  0.00  0.00    +0.277 C 
ENDBRANCH  28   4
ENDBRANCH  18  20
ENDBRANCH  13  15
ENDBRANCH   9  13
BRANCH   8  14
ATOM     14  C   UNL     1      18.999  -2.476  29.705  0.00  0.00    +0.099 C 
BRANCH  14  16
ATOM      2  O   UNL     1      20.569  -1.119  28.461  0.00  0.00    -0.276 OA
ATOM      6  N   UNL     1      18.923  -2.297  27.319  0.00  0.00    -0.311 N 
ATOM     16  C   UNL     1      19.603  -1.878  28.453  0.00  0.00    +0.214 C 
ATOM     34  H   UNL     1      18.122  -2.914  27.420  0.00  0.00    +0.149 HD
BRANCH   6  19
ATOM     19  C   UNL     1      19.282  -1.879  25.982  0.00  0.00    +0.139 C 
BRANCH  19  21
ATOM      1  F   UNL     1      15.316  -3.217  22.218  0.00  0.00    -0.205 F 
ATOM     21  C   UNL     1      18.225  -2.236  24.980  0.00  0.00    -0.030 A 
ATOM     24  C   UNL     1      18.562  -2.389  23.634  0.00  0.00    +0.008 A 
ATOM     25  C   UNL     1      16.904  -2.415  25.391  0.00  0.00    +0.008 A 
ATOM     29  C   UNL     1      17.579  -2.720  22.702  0.00  0.00    +0.038 A 
ATOM     30  C   UNL     1      15.921  -2.745  24.459  0.00  0.00    +0.038 A 
ATOM     31  C   UNL     1      16.259  -2.899  23.113  0.00  0.00    +0.123 A 
ENDBRANCH  19  21
ENDBRANCH   6  19
ENDBRANCH  14  16
ENDBRANCH   8  14
TORSDOF 8
ENDMDL
MODEL 5
REMARK VINA RESULT:      -7.2      4.360     10.763
REMARK  Name = 40777425
REMARK  9 active torsions:
REMARK  status: ('A' for Active; 'I' for Inactive)
REMARK    1  A    between atoms: O_4  and  C_28
REMARK    2  A    between atoms: O_4  and  C_32
REMARK    3  A    between atoms: N_6  and  C_19
REMARK    4  A    between atoms: C_8  and  C_14
REMARK    5  A    between atoms: C_9  and  C_13
REMARK    6  A    between atoms: C_13  and  C_15
REMARK    7  A    between atoms: C_14  and  C_16
REMARK    8  A    between atoms: C_18  and  C_20
REMARK    9  A    between atoms: C_19  and  C_21
REMARK                            x       y       z     vdW  Elec       q    Type
REMARK                         _______ _______ _______ _____ _____    ______ ____
ROOT
ATOM      5  N   UNL     1      21.062   9.789  21.997  0.00  0.00    -0.316 NA
ATOM      8  C   UNL     1      21.620   7.298  20.517  0.00  0.00    +0.004 C 
ATOM      9  C   UNL     1      20.208   7.666  21.033  0.00  0.00    +0.012 C 
ATOM     10  C   UNL     1      22.440   8.586  20.337  0.00  0.00    +0.019 C 
ATOM     11  C   UNL     1      20.276   8.584  22.264  0.00  0.00    +0.085 C 
ATOM     12  C   UNL     1      22.426   9.465  21.586  0.00  0.00    +0.081 C 
ATOM     33  H   UNL     1      21.091  10.367  22.837  0.00  0.00    +0.122 HD
ENDROOT
BRANCH   9  13
ATOM     13  C   UNL     1      19.338   6.442  21.322  0.00  0.00    +0.064 C 
BRANCH  13  15
ATOM      3  O   UNL     1      16.762   5.918  18.862  0.00  0.00    -0.354 OA
ATOM      7  N   UNL     1      18.025   5.679  19.391  0.00  0.00    -0.083 NA
ATOM     15  C   UNL     1      18.093   6.445  20.483  0.00  0.00    +0.085 A 
ATOM     17  C   UNL     1      16.915   7.183  20.693  0.00  0.00    +0.076 A 
ATOM     18  C   UNL     1      16.111   6.815  19.646  0.00  0.00    +0.167 A 
BRANCH  18  20
ATOM     20  C   UNL     1      14.785   7.163  19.224  0.00  0.00    +0.020 A 
ATOM     22  C   UNL     1      14.573   7.681  17.946  0.00  0.00    +0.015 A 
ATOM     23  C   UNL     1      13.707   6.981  20.091  0.00  0.00    +0.015 A 
ATOM     26  C   UNL     1      13.284   8.018  17.535  0.00  0.00    +0.046 A 
ATOM     27  C   UNL     1      12.418   7.319  19.680  0.00  0.00    +0.046 A 
ATOM     28  C   UNL     1      12.207   7.838  18.403  0.00  0.00    +0.120 A 
BRANCH  28   4
ATOM      4  O   UNL     1      10.948   8.165  18.002  0.00  0.00    -0.495 OA
ATOM     32  C   UNL     1      10.792   8.622  16.659  0.00  0.00    +0.277 C 
ENDBRANCH  28   4
ENDBRANCH  18  20
ENDBRANCH  13  15
ENDBRANCH   9  13
BRANCH   8  14
ATOM     14  C   UNL     1      22.366   6.295  21.405  0.00  0.00    +0.099 C 
BRANCH  14  16
ATOM      2  O   UNL     1      21.825   4.150  20.428  0.00  0.00    -0.276 OA
ATOM      6  N   UNL     1      24.015   4.920  20.345  0.00  0.00    -0.311 N 
ATOM     16  C   UNL     1      22.671   5.003  20.679  0.00  0.00    +0.214 C 
ATOM     34  H   UNL     1      24.641   5.675  20.614  0.00  0.00    +0.149 HD
BRANCH   6  19
ATOM     19  C   UNL     1      24.588   3.792  19.647  0.00  0.00    +0.139 C 
BRANCH  19  21
ATOM      1  F   UNL     1      26.493  -0.138  23.199  0.00  0.00    -0.205 F 
ATOM     21  C   UNL     1      25.095   2.744  20.593  0.00  0.00    -0.030 A 
ATOM     24  C   UNL     1      26.359   2.878  21.170  0.00  0.00    +0.008 A 
ATOM     25  C   UNL     1      24.304   1.637  20.899  0.00  0.00    +0.008 A 
ATOM     29  C   UNL     1      26.831   1.904  22.049  0.00  0.00    +0.038 A 
ATOM     30  C   UNL     1      24.776   0.663  21.778  0.00  0.00    +0.038 A 
ATOM     31  C   UNL     1      26.040   0.796  22.354  0.00  0.00    +0.123 A 
ENDBRANCH  19  21
ENDBRANCH   6  19
ENDBRANCH  14  16
ENDBRANCH   8  14
TORSDOF 8
ENDMDL
MODEL 6
REMARK VINA RESULT:      -7.1     27.709     30.044
REMARK  Name = 40777425
REMARK  9 active torsions:
REMARK  status: ('A' for Active; 'I' for Inactive)
REMARK    1  A    between atoms: O_4  and  C_28
REMARK    2  A    between atoms: O_4  and  C_32
REMARK    3  A    between atoms: N_6  and  C_19
REMARK    4  A    between atoms: C_8  and  C_14
REMARK    5  A    between atoms: C_9  and  C_13
REMARK    6  A    between atoms: C_13  and  C_15
REMARK    7  A    between atoms: C_14  and  C_16
REMARK    8  A    between atoms: C_18  and  C_20
REMARK    9  A    between atoms: C_19  and  C_21
REMARK                            x       y       z     vdW  Elec       q    Type
REMARK                         _______ _______ _______ _____ _____    ______ ____
ROOT
ATOM      5  N   UNL     1      -4.738  -8.792   8.822  0.00  0.00    -0.316 NA
ATOM      8  C   UNL     1      -4.776 -11.211  10.512  0.00  0.00    +0.004 C 
ATOM      9  C   UNL     1      -3.904  -9.975  10.840  0.00  0.00    +0.012 C 
ATOM     10  C   UNL     1      -5.968 -10.769   9.647  0.00  0.00    +0.019 C 
ATOM     11  C   UNL     1      -3.544  -9.182   9.573  0.00  0.00    +0.085 C 
ATOM     12  C   UNL     1      -5.535  -9.952   8.431  0.00  0.00    +0.081 C 
ATOM     33  H   UNL     1      -4.459  -8.277   7.987  0.00  0.00    +0.122 HD
ENDROOT
BRANCH   9  13
ATOM     13  C   UNL     1      -2.643 -10.324  11.632  0.00  0.00    +0.064 C 
BRANCH  13  15
ATOM      3  O   UNL     1      -2.629 -11.134  15.140  0.00  0.00    -0.354 OA
ATOM      7  N   UNL     1      -2.021 -11.058  13.893  0.00  0.00    -0.083 NA
ATOM     15  C   UNL     1      -2.954 -10.550  13.084  0.00  0.00    +0.085 A 
ATOM     17  C   UNL     1      -4.159 -10.287  13.756  0.00  0.00    +0.076 A 
ATOM     18  C   UNL     1      -3.902 -10.671  15.046  0.00  0.00    +0.167 A 
BRANCH  18  20
ATOM     20  C   UNL     1      -4.661 -10.688  16.263  0.00  0.00    +0.020 A 
ATOM     22  C   UNL     1      -4.236 -11.466  17.340  0.00  0.00    +0.015 A 
ATOM     23  C   UNL     1      -5.823  -9.923  16.370  0.00  0.00    +0.015 A 
ATOM     26  C   UNL     1      -4.974 -11.481  18.524  0.00  0.00    +0.046 A 
ATOM     27  C   UNL     1      -6.561  -9.939  17.554  0.00  0.00    +0.046 A 
ATOM     28  C   UNL     1      -6.136 -10.718  18.630  0.00  0.00    +0.120 A 
BRANCH  28   4
ATOM      4  O   UNL     1      -6.855 -10.730  19.785  0.00  0.00    -0.495 OA
ATOM     32  C   UNL     1      -8.189 -11.233  19.715  0.00  0.00    +0.277 C 
ENDBRANCH  28   4
ENDBRANCH  18  20
ENDBRANCH  13  15
ENDBRANCH   9  13
BRANCH   8  14
ATOM     14  C   UNL     1      -4.008 -12.355   9.839  0.00  0.00    +0.099 C 
BRANCH  14  16
ATOM      2  O   UNL     1      -3.350 -14.617  10.386  0.00  0.00    -0.276 OA
ATOM      6  N   UNL     1      -4.500 -13.351  11.960  0.00  0.00    -0.311 N 
ATOM     16  C   UNL     1      -3.900 -13.574  10.729  0.00  0.00    +0.214 C 
ATOM     34  H   UNL     1      -4.945 -12.455  12.140  0.00  0.00    +0.149 HD
BRANCH   6  19
ATOM     19  C   UNL     1      -4.548 -14.346  13.007  0.00  0.00    +0.139 C 
BRANCH  19  21
ATOM      1  F   UNL     1      -8.234 -12.986  17.038  0.00  0.00    -0.205 F 
ATOM     21  C   UNL     1      -5.531 -13.983  14.081  0.00  0.00    -0.030 A 
ATOM     24  C   UNL     1      -5.415 -14.548  15.352  0.00  0.00    +0.008 A 
ATOM     25  C   UNL     1      -6.559 -13.080  13.811  0.00  0.00    +0.008 A 
ATOM     29  C   UNL     1      -6.329 -14.211  16.350  0.00  0.00    +0.038 A 
ATOM     30  C   UNL     1      -7.473 -12.744  14.809  0.00  0.00    +0.038 A 
ATOM     31  C   UNL     1      -7.358 -13.309  16.080  0.00  0.00    +0.123 A 
ENDBRANCH  19  21
ENDBRANCH   6  19
ENDBRANCH  14  16
ENDBRANCH   8  14
TORSDOF 8
ENDMDL
MODEL 7
REMARK VINA RESULT:      -7.0     27.121     29.834
REMARK  Name = 40777425
REMARK  9 active torsions:
REMARK  status: ('A' for Active; 'I' for Inactive)
REMARK    1  A    between atoms: O_4  and  C_28
REMARK    2  A    between atoms: O_4  and  C_32
REMARK    3  A    between atoms: N_6  and  C_19
REMARK    4  A    between atoms: C_8  and  C_14
REMARK    5  A    between atoms: C_9  and  C_13
REMARK    6  A    between atoms: C_13  and  C_15
REMARK    7  A    between atoms: C_14  and  C_16
REMARK    8  A    between atoms: C_18  and  C_20
REMARK    9  A    between atoms: C_19  and  C_21
REMARK                            x       y       z     vdW  Elec       q    Type
REMARK                         _______ _______ _______ _____ _____    ______ ____
ROOT
ATOM      5  N   UNL     1      -7.379 -11.333  18.226  0.00  0.00    -0.316 NA
ATOM      8  C   UNL     1      -5.311 -10.969  16.153  0.00  0.00    +0.004 C 
ATOM      9  C   UNL     1      -6.027 -12.321  16.392  0.00  0.00    +0.012 C 
ATOM     10  C   UNL     1      -6.212  -9.828  16.653  0.00  0.00    +0.019 C 
ATOM     11  C   UNL     1      -6.518 -12.453  17.843  0.00  0.00    +0.085 C 
ATOM     12  C   UNL     1      -6.694 -10.050  18.085  0.00  0.00    +0.081 C 
ATOM     33  H   UNL     1      -7.677 -11.453  19.194  0.00  0.00    +0.122 HD
ENDROOT
BRANCH   9  13
ATOM     13  C   UNL     1      -5.174 -13.528  16.001  0.00  0.00    +0.064 C 
BRANCH  13  15
ATOM      3  O   UNL     1      -3.680 -13.740  12.732  0.00  0.00    -0.354 OA
ATOM      7  N   UNL     1      -3.630 -13.851  14.116  0.00  0.00    -0.083 NA
ATOM     15  C   UNL     1      -4.855 -13.520  14.533  0.00  0.00    +0.085 A 
ATOM     17  C   UNL     1      -5.712 -13.194  13.468  0.00  0.00    +0.076 A 
ATOM     18  C   UNL     1      -4.924 -13.349  12.358  0.00  0.00    +0.167 A 
BRANCH  18  20
ATOM     20  C   UNL     1      -5.129 -13.191  10.947  0.00  0.00    +0.020 A 
ATOM     22  C   UNL     1      -6.396 -12.873  10.457  0.00  0.00    +0.015 A 
ATOM     23  C   UNL     1      -4.061 -13.354  10.065  0.00  0.00    +0.015 A 
ATOM     26  C   UNL     1      -6.595 -12.718   9.086  0.00  0.00    +0.046 A 
ATOM     27  C   UNL     1      -4.260 -13.200   8.693  0.00  0.00    +0.046 A 
ATOM     28  C   UNL     1      -5.527 -12.882   8.204  0.00  0.00    +0.120 A 
BRANCH  28   4
ATOM      4  O   UNL     1      -5.720 -12.730   6.865  0.00  0.00    -0.495 OA
ATOM     32  C   UNL     1      -6.051 -11.422   6.402  0.00  0.00    +0.277 C 
ENDBRANCH  28   4
ENDBRANCH  18  20
ENDBRANCH  13  15
ENDBRANCH   9  13
BRANCH   8  14
ATOM     14  C   UNL     1      -3.917 -10.881  16.787  0.00  0.00    +0.099 C 
BRANCH  14  16
ATOM      2  O   UNL     1      -1.626 -10.803  16.014  0.00  0.00    -0.276 OA
ATOM      6  N   UNL     1      -3.355 -10.554  14.482  0.00  0.00    -0.311 N 
ATOM     16  C   UNL     1      -2.824 -10.747  15.749  0.00  0.00    +0.214 C 
ATOM     34  H   UNL     1      -4.365 -10.504  14.369  0.00  0.00    +0.149 HD
BRANCH   6  19
ATOM     19  C   UNL     1      -2.541 -10.392  13.299  0.00  0.00    +0.139 C 
BRANCH  19  21
ATOM      1  F   UNL     1      -5.631  -9.095   8.776  0.00  0.00    -0.205 F 
ATOM     21  C   UNL     1      -3.364 -10.046  12.093  0.00  0.00    -0.030 A 
ATOM     24  C   UNL     1      -4.733  -9.813  12.227  0.00  0.00    +0.008 A 
ATOM     25  C   UNL     1      -2.761  -9.957  10.838  0.00  0.00    +0.008 A 
ATOM     29  C   UNL     1      -5.498  -9.492  11.106  0.00  0.00    +0.038 A 
ATOM     30  C   UNL     1      -3.527  -9.638   9.718  0.00  0.00    +0.038 A 
ATOM     31  C   UNL     1      -4.896  -9.404   9.852  0.00  0.00    +0.123 A 
ENDBRANCH  19  21
ENDBRANCH   6  19
ENDBRANCH  14  16
ENDBRANCH   8  14
TORSDOF 8
ENDMDL
MODEL 8
REMARK VINA RESULT:      -6.8     13.043     17.140
REMARK  Name = 40777425
REMARK  9 active torsions:
REMARK  status: ('A' for Active; 'I' for Inactive)
REMARK    1  A    between atoms: O_4  and  C_28
REMARK    2  A    between atoms: O_4  and  C_32
REMARK    3  A    between atoms: N_6  and  C_19
REMARK    4  A    between atoms: C_8  and  C_14
REMARK    5  A    between atoms: C_9  and  C_13
REMARK    6  A    between atoms: C_13  and  C_15
REMARK    7  A    between atoms: C_14  and  C_16
REMARK    8  A    between atoms: C_18  and  C_20
REMARK    9  A    between atoms: C_19  and  C_21
REMARK                            x       y       z     vdW  Elec       q    Type
REMARK                         _______ _______ _______ _____ _____    ______ ____
ROOT
ATOM      5  N   UNL     1       9.491   8.809  -1.596  0.00  0.00    -0.316 NA
ATOM      8  C   UNL     1       9.999   9.694   1.173  0.00  0.00    +0.004 C 
ATOM      9  C   UNL     1       8.707   8.950   0.756  0.00  0.00    +0.012 C 
ATOM     10  C   UNL     1      11.121   9.345   0.181  0.00  0.00    +0.019 C 
ATOM     11  C   UNL     1       8.374   9.180  -0.727  0.00  0.00    +0.085 C 
ATOM     12  C   UNL     1      10.702   9.559  -1.272  0.00  0.00    +0.081 C 
ATOM     33  H   UNL     1       9.235   8.983  -2.567  0.00  0.00    +0.122 HD
ENDROOT
BRANCH   9  13
ATOM     13  C   UNL     1       7.506   9.296   1.637  0.00  0.00    +0.064 C 
BRANCH  13  15
ATOM      3  O   UNL     1       7.706   9.044   5.223  0.00  0.00    -0.354 OA
ATOM      7  N   UNL     1       7.333   9.699   4.055  0.00  0.00    -0.083 NA
ATOM     15  C   UNL     1       7.744   8.900   3.066  0.00  0.00    +0.085 A 
ATOM     17  C   UNL     1       8.375   7.739   3.544  0.00  0.00    +0.076 A 
ATOM     18  C   UNL     1       8.324   7.879   4.906  0.00  0.00    +0.167 A 
BRANCH  18  20
ATOM     20  C   UNL     1       8.769   7.088   6.017  0.00  0.00    +0.020 A 
ATOM     22  C   UNL     1       9.308   5.820   5.800  0.00  0.00    +0.015 A 
ATOM     23  C   UNL     1       8.663   7.588   7.315  0.00  0.00    +0.015 A 
ATOM     26  C   UNL     1       9.741   5.052   6.881  0.00  0.00    +0.046 A 
ATOM     27  C   UNL     1       9.095   6.820   8.396  0.00  0.00    +0.046 A 
ATOM     28  C   UNL     1       9.634   5.552   8.178  0.00  0.00    +0.120 A 
BRANCH  28   4
ATOM      4  O   UNL     1      10.058   4.803   9.233  0.00  0.00    -0.495 OA
ATOM     32  C   UNL     1       9.085   4.461  10.219  0.00  0.00    +0.277 C 
ENDBRANCH  28   4
ENDBRANCH  18  20
ENDBRANCH  13  15
ENDBRANCH   9  13
BRANCH   8  14
ATOM     14  C   UNL     1       9.832  11.213   1.296  0.00  0.00    +0.099 C 
BRANCH  14  16
ATOM      2  O   UNL     1      10.704  12.912   2.780  0.00  0.00    -0.276 OA
ATOM      6  N   UNL     1      10.433  10.743   3.566  0.00  0.00    -0.311 N 
ATOM     16  C   UNL     1      10.370  11.744   2.607  0.00  0.00    +0.214 C 
ATOM     34  H   UNL     1      10.148   9.799   3.318  0.00  0.00    +0.149 HD
BRANCH   6  19
ATOM     19  C   UNL     1      10.911  10.966   4.911  0.00  0.00    +0.139 C 
BRANCH  19  21
ATOM      1  F   UNL     1      13.197   6.326   7.133  0.00  0.00    -0.205 F 
ATOM     21  C   UNL     1      11.520   9.729   5.503  0.00  0.00    -0.030 A 
ATOM     24  C   UNL     1      11.714   9.638   6.882  0.00  0.00    +0.008 A 
ATOM     25  C   UNL     1      11.893   8.669   4.676  0.00  0.00    +0.008 A 
ATOM     29  C   UNL     1      12.281   8.488   7.432  0.00  0.00    +0.038 A 
ATOM     30  C   UNL     1      12.460   7.520   5.226  0.00  0.00    +0.038 A 
ATOM     31  C   UNL     1      12.654   7.429   6.605  0.00  0.00    +0.123 A 
ENDBRANCH  19  21
ENDBRANCH   6  19
ENDBRANCH  14  16
ENDBRANCH   8  14
TORSDOF 8
ENDMDL
MODEL 9
REMARK VINA RESULT:      -6.7     28.175     30.396
REMARK  Name = 40777425
REMARK  9 active torsions:
REMARK  status: ('A' for Active; 'I' for Inactive)
REMARK    1  A    between atoms: O_4  and  C_28
REMARK    2  A    between atoms: O_4  and  C_32
REMARK    3  A    between atoms: N_6  and  C_19
REMARK    4  A    between atoms: C_8  and  C_14
REMARK    5  A    between atoms: C_9  and  C_13
REMARK    6  A    between atoms: C_13  and  C_15
REMARK    7  A    between atoms: C_14  and  C_16
REMARK    8  A    between atoms: C_18  and  C_20
REMARK    9  A    between atoms: C_19  and  C_21
REMARK                            x       y       z     vdW  Elec       q    Type
REMARK                         _______ _______ _______ _____ _____    ______ ____
ROOT
ATOM      5  N   UNL     1     -11.981  -6.449  14.283  0.00  0.00    -0.316 NA
ATOM      8  C   UNL     1     -10.499  -8.328  16.010  0.00  0.00    +0.004 C 
ATOM      9  C   UNL     1     -10.786  -8.613  14.515  0.00  0.00    +0.012 C 
ATOM     10  C   UNL     1     -10.522  -6.808  16.244  0.00  0.00    +0.019 C 
ATOM     11  C   UNL     1     -12.053  -7.889  14.033  0.00  0.00    +0.085 C 
ATOM     12  C   UNL     1     -11.792  -6.154  15.702  0.00  0.00    +0.081 C 
ATOM     33  H   UNL     1     -12.841  -6.007  13.958  0.00  0.00    +0.122 HD
ENDROOT
BRANCH   9  13
ATOM     13  C   UNL     1     -10.864 -10.106  14.195  0.00  0.00    +0.064 C 
BRANCH  13  15
ATOM      3  O   UNL     1      -7.984 -12.168  14.843  0.00  0.00    -0.354 OA
ATOM      7  N   UNL     1      -9.324 -11.839  15.010  0.00  0.00    -0.083 NA
ATOM     15  C   UNL     1      -9.509 -10.751  14.258  0.00  0.00    +0.085 A 
ATOM     17  C   UNL     1      -8.335 -10.351  13.598  0.00  0.00    +0.076 A 
ATOM     18  C   UNL     1      -7.406 -11.275  13.999  0.00  0.00    +0.167 A 
BRANCH  18  20
ATOM     20  C   UNL     1      -6.014 -11.488  13.728  0.00  0.00    +0.020 A 
ATOM     22  C   UNL     1      -5.420 -12.711  14.041  0.00  0.00    +0.015 A 
ATOM     23  C   UNL     1      -5.253 -10.472  13.149  0.00  0.00    +0.015 A 
ATOM     26  C   UNL     1      -4.067 -12.918  13.776  0.00  0.00    +0.046 A 
ATOM     27  C   UNL     1      -3.900 -10.678  12.885  0.00  0.00    +0.046 A 
ATOM     28  C   UNL     1      -3.307 -11.901  13.199  0.00  0.00    +0.120 A 
BRANCH  28   4
ATOM      4  O   UNL     1      -1.986 -12.103  12.938  0.00  0.00    -0.495 OA
ATOM     32  C   UNL     1      -1.345 -13.177  13.625  0.00  0.00    +0.277 C 
ENDBRANCH  28   4
ENDBRANCH  18  20
ENDBRANCH  13  15
ENDBRANCH   9  13
BRANCH   8  14
ATOM     14  C   UNL     1     -11.451  -9.044  16.975  0.00  0.00    +0.099 C 
BRANCH  14  16
ATOM      2  O   UNL     1     -11.329 -10.925  18.490  0.00  0.00    -0.276 OA
ATOM      6  N   UNL     1      -9.365  -9.973  17.694  0.00  0.00    -0.311 N 
ATOM     16  C   UNL     1     -10.742 -10.090  17.807  0.00  0.00    +0.214 C 
ATOM     34  H   UNL     1      -8.975  -9.234  17.115  0.00  0.00    +0.149 HD
BRANCH   6  19
ATOM     19  C   UNL     1      -8.438 -10.842  18.383  0.00  0.00    +0.139 C 
BRANCH  19  21
ATOM      1  F   UNL     1      -3.206 -10.376  16.359  0.00  0.00    -0.205 F 
ATOM     21  C   UNL     1      -7.044 -10.717  17.843  0.00  0.00    -0.030 A 
ATOM     24  C   UNL     1      -6.103 -11.714  18.104  0.00  0.00    +0.008 A 
ATOM     25  C   UNL     1      -6.687  -9.605  17.080  0.00  0.00    +0.008 A 
ATOM     29  C   UNL     1      -4.807 -11.598  17.602  0.00  0.00    +0.038 A 
ATOM     30  C   UNL     1      -5.391  -9.489  16.579  0.00  0.00    +0.038 A 
ATOM     31  C   UNL     1      -4.450 -10.486  16.840  0.00  0.00    +0.123 A 
ENDBRANCH  19  21
ENDBRANCH   6  19
ENDBRANCH  14  16
ENDBRANCH   8  14
TORSDOF 8
ENDMDL
MODEL 10
REMARK VINA RESULT:      -6.7     29.054     32.036
REMARK  Name = 40777425
REMARK  9 active torsions:
REMARK  status: ('A' for Active; 'I' for Inactive)
REMARK    1  A    between atoms: O_4  and  C_28
REMARK    2  A    between atoms: O_4  and  C_32
REMARK    3  A    between atoms: N_6  and  C_19
REMARK    4  A    between atoms: C_8  and  C_14
REMARK    5  A    between atoms: C_9  and  C_13
REMARK    6  A    between atoms: C_13  and  C_15
REMARK    7  A    between atoms: C_14  and  C_16
REMARK    8  A    between atoms: C_18  and  C_20
REMARK    9  A    between atoms: C_19  and  C_21
REMARK                            x       y       z     vdW  Elec       q    Type
REMARK                         _______ _______ _______ _____ _____    ______ ____
ROOT
ATOM      5  N   UNL     1      -4.202 -13.895  15.509  0.00  0.00    -0.316 NA
ATOM      8  C   UNL     1      -6.259 -12.683  17.243  0.00  0.00    +0.004 C 
ATOM      9  C   UNL     1      -5.523 -11.888  16.136  0.00  0.00    +0.012 C 
ATOM     10  C   UNL     1      -6.230 -14.179  16.890  0.00  0.00    +0.019 C 
ATOM     11  C   UNL     1      -4.131 -12.474  15.849  0.00  0.00    +0.085 C 
ATOM     12  C   UNL     1      -4.821 -14.677  16.577  0.00  0.00    +0.081 C 
ATOM     33  H   UNL     1      -3.261 -14.248  15.334  0.00  0.00    +0.122 HD
ENDROOT
BRANCH   9  13
ATOM     13  C   UNL     1      -5.426 -10.392  16.437  0.00  0.00    +0.064 C 
BRANCH  13  15
ATOM      3  O   UNL     1      -8.522  -8.667  17.070  0.00  0.00    -0.354 OA
ATOM      7  N   UNL     1      -7.291  -9.173  17.472  0.00  0.00    -0.083 NA
ATOM     15  C   UNL     1      -6.774  -9.734  16.376  0.00  0.00    +0.085 A 
ATOM     17  C   UNL     1      -7.624  -9.614  15.263  0.00  0.00    +0.076 A 
ATOM     18  C   UNL     1      -8.708  -8.935  15.753  0.00  0.00    +0.167 A 
BRANCH  18  20
ATOM     20  C   UNL     1      -9.943  -8.470  15.192  0.00  0.00    +0.020 A 
ATOM     22  C   UNL     1     -10.582  -7.357  15.737  0.00  0.00    +0.015 A 
ATOM     23  C   UNL     1     -10.505  -9.131  14.099  0.00  0.00    +0.015 A 
ATOM     26  C   UNL     1     -11.783  -6.904  15.191  0.00  0.00    +0.046 A 
ATOM     27  C   UNL     1     -11.706  -8.679  13.553  0.00  0.00    +0.046 A 
ATOM     28  C   UNL     1     -12.345  -7.565  14.100  0.00  0.00    +0.120 A 
BRANCH  28   4
ATOM      4  O   UNL     1     -13.516  -7.123  13.565  0.00  0.00    -0.495 OA
ATOM     32  C   UNL     1     -14.268  -6.185  14.334  0.00  0.00    +0.277 C 
ENDBRANCH  28   4
ENDBRANCH  18  20
ENDBRANCH  13  15
ENDBRANCH   9  13
BRANCH   8  14
ATOM     14  C   UNL     1      -5.707 -12.444  18.653  0.00  0.00    +0.099 C 
BRANCH  14  16
ATOM      2  O   UNL     1      -6.334 -10.967  20.464  0.00  0.00    -0.276 OA
ATOM      6  N   UNL     1      -7.991 -11.902  19.130  0.00  0.00    -0.311 N 
ATOM     16  C   UNL     1      -6.680 -11.682  19.527  0.00  0.00    +0.214 C 
ATOM     34  H   UNL     1      -8.174 -12.528  18.350  0.00  0.00    +0.149 HD
BRANCH   6  19
ATOM     19  C   UNL     1      -9.128 -11.301  19.788  0.00  0.00    +0.139 C 
BRANCH  19  21
ATOM      1  F   UNL     1     -13.273 -10.116  16.168  0.00  0.00    -0.205 F 
ATOM     21  C   UNL     1     -10.233 -10.985  18.824  0.00  0.00    -0.030 A 
ATOM     24  C   UNL     1     -10.378 -11.739  17.658  0.00  0.00    +0.008 A 
ATOM     25  C   UNL     1     -11.116  -9.939  19.091  0.00  0.00    +0.008 A 
ATOM     29  C   UNL     1     -11.405 -11.445  16.761  0.00  0.00    +0.038 A 
ATOM     30  C   UNL     1     -12.142  -9.645  18.194  0.00  0.00    +0.038 A 
ATOM     31  C   UNL     1     -12.287 -10.398  17.028  0.00  0.00    +0.123 A 
ENDBRANCH  19  21
ENDBRANCH   6  19
ENDBRANCH  14  16
ENDBRANCH   8  14
TORSDOF 8
ENDMDL
