MODEL 1
REMARK VINA RESULT:      -7.4      0.000      0.000
REMARK  Name = 44716338
REMARK  9 active torsions:
REMARK  status: ('A' for Active; 'I' for Inactive)
REMARK    1  A    between atoms: O_1  and  C_30
REMARK    2  A    between atoms: O_1  and  C_31
REMARK    3  A    between atoms: N_3  and  C_20
REMARK    4  A    between atoms: N_4  and  C_14
REMARK    5  A    between atoms: N_4  and  C_24
REMARK    6  A    between atoms: C_7  and  C_13
REMARK    7  A    between atoms: C_8  and  C_14
REMARK    8  A    between atoms: C_16  and  C_17
REMARK    9  A    between atoms: C_24  and  C_25
REMARK                            x       y       z     vdW  Elec       q    Type
REMARK                         _______ _______ _______ _____ _____    ______ ____
ROOT
ATOM      2  N   UNL     1      12.353   6.775  21.154  0.00  0.00    -0.298 NA
ATOM      6  C   UNL     1      11.594   9.204  20.602  0.00  0.00    +0.002 C 
ATOM      7  C   UNL     1      11.794   8.386  19.296  0.00  0.00    +0.055 C 
ATOM      8  C   UNL     1      13.200   7.752  21.890  0.00  0.00    +0.071 C 
ATOM      9  C   UNL     1      12.903   9.192  21.418  0.00  0.00    +0.024 C 
ATOM     10  C   UNL     1      12.436   7.026  19.695  0.00  0.00    +0.094 C 
ATOM     11  C   UNL     1      10.532   8.456  21.437  0.00  0.00    +0.019 C 
ATOM     12  C   UNL     1      10.949   6.981  21.581  0.00  0.00    +0.085 C 
ENDROOT
BRANCH   7  13
ATOM      3  N   UNL     1      12.002   9.137  16.880  0.00  0.00    -0.271 N 
ATOM      5  N   UNL     1      12.803   9.761  16.000  0.00  0.00    -0.176 NA
ATOM     13  C   UNL     1      12.524   9.051  18.138  0.00  0.00    +0.044 A 
ATOM     15  C   UNL     1      13.752   9.663  18.076  0.00  0.00    +0.048 A 
ATOM     16  C   UNL     1      13.870  10.082  16.737  0.00  0.00    +0.066 A 
ATOM     20  C   UNL     1      10.723   8.633  16.435  0.00  0.00    +0.172 C 
BRANCH  16  17
ATOM     17  C   UNL     1      15.033  10.819  16.098  0.00  0.00    +0.040 C 
ATOM     18  C   UNL     1      15.560  11.948  17.000  0.00  0.00    +0.010 C 
ATOM     19  C   UNL     1      14.674  11.352  14.700  0.00  0.00    +0.010 C 
ATOM     21  C   UNL     1      16.736  12.678  16.352  0.00  0.00    +0.001 C 
ATOM     22  C   UNL     1      15.854  12.084  14.061  0.00  0.00    +0.001 C 
ATOM     23  C   UNL     1      16.380  13.198  14.963  0.00  0.00    +0.000 C 
ENDBRANCH  16  17
ENDBRANCH   7  13
BRANCH   8  14
ATOM     14  C   UNL     1      14.690   7.417  21.796  0.00  0.00    +0.100 C 
BRANCH  14   4
ATOM      4  N   UNL     1      15.462   8.596  21.437  0.00  0.00    -0.311 NA
ATOM     32  H   UNL     1      16.072   8.841  22.218  0.00  0.00    +0.122 HD
BRANCH   4  24
ATOM     24  C   UNL     1      16.280   8.347  20.257  0.00  0.00    +0.116 C 
BRANCH  24  25
ATOM     25  C   UNL     1      17.544   7.602  20.599  0.00  0.00    -0.033 A 
ATOM     26  C   UNL     1      18.391   8.086  21.596  0.00  0.00    +0.008 A 
ATOM     27  C   UNL     1      17.867   6.428  19.919  0.00  0.00    +0.008 A 
ATOM     28  C   UNL     1      19.561   7.396  21.913  0.00  0.00    +0.046 A 
ATOM     29  C   UNL     1      19.037   5.738  20.235  0.00  0.00    +0.046 A 
ATOM     30  C   UNL     1      19.885   6.222  21.233  0.00  0.00    +0.120 A 
BRANCH  30   1
ATOM      1  O   UNL     1      21.025   5.548  21.542  0.00  0.00    -0.495 OA
ATOM     31  C   UNL     1      21.908   5.238  20.465  0.00  0.00    +0.277 C 
ENDBRANCH  30   1
ENDBRANCH  24  25
ENDBRANCH   4  24
ENDBRANCH  14   4
ENDBRANCH   8  14
TORSDOF 7
ENDMDL
MODEL 2
REMARK VINA RESULT:      -7.1      3.311      4.776
REMARK  Name = 44716338
REMARK  9 active torsions:
REMARK  status: ('A' for Active; 'I' for Inactive)
REMARK    1  A    between atoms: O_1  and  C_30
REMARK    2  A    between atoms: O_1  and  C_31
REMARK    3  A    between atoms: N_3  and  C_20
REMARK    4  A    between atoms: N_4  and  C_14
REMARK    5  A    between atoms: N_4  and  C_24
REMARK    6  A    between atoms: C_7  and  C_13
REMARK    7  A    between atoms: C_8  and  C_14
REMARK    8  A    between atoms: C_16  and  C_17
REMARK    9  A    between atoms: C_24  and  C_25
REMARK                            x       y       z     vdW  Elec       q    Type
REMARK                         _______ _______ _______ _____ _____    ______ ____
ROOT
ATOM      2  N   UNL     1      12.206  12.315  24.857  0.00  0.00    -0.298 NA
ATOM      6  C   UNL     1      10.948  12.897  22.652  0.00  0.00    +0.002 C 
ATOM      7  C   UNL     1      11.151  11.361  22.774  0.00  0.00    +0.055 C 
ATOM      8  C   UNL     1      12.932  13.387  24.125  0.00  0.00    +0.071 C 
ATOM      9  C   UNL     1      12.320  13.600  22.724  0.00  0.00    +0.024 C 
ATOM     10  C   UNL     1      12.077  11.111  23.999  0.00  0.00    +0.094 C 
ATOM     11  C   UNL     1      10.145  13.339  23.894  0.00  0.00    +0.019 C 
ATOM     12  C   UNL     1      10.844  12.815  25.161  0.00  0.00    +0.085 C 
ENDROOT
BRANCH   7  13
ATOM      3  N   UNL     1      11.273   9.297  21.301  0.00  0.00    -0.271 N 
ATOM      5  N   UNL     1      11.777   8.805  20.157  0.00  0.00    -0.176 NA
ATOM     13  C   UNL     1      11.609  10.597  21.539  0.00  0.00    +0.044 A 
ATOM     15  C   UNL     1      12.387  10.984  20.475  0.00  0.00    +0.048 A 
ATOM     16  C   UNL     1      12.456   9.841  19.655  0.00  0.00    +0.066 A 
ATOM     20  C   UNL     1      10.462   8.443  22.138  0.00  0.00    +0.172 C 
BRANCH  16  17
ATOM     17  C   UNL     1      13.190   9.693  18.335  0.00  0.00    +0.040 C 
ATOM     18  C   UNL     1      14.037  10.935  18.009  0.00  0.00    +0.010 C 
ATOM     19  C   UNL     1      12.229   9.364  17.180  0.00  0.00    +0.010 C 
ATOM     21  C   UNL     1      14.780  10.773  16.683  0.00  0.00    +0.001 C 
ATOM     22  C   UNL     1      12.978   9.207  15.857  0.00  0.00    +0.001 C 
ATOM     23  C   UNL     1      13.825  10.437  15.541  0.00  0.00    +0.000 C 
ENDBRANCH  16  17
ENDBRANCH   7  13
BRANCH   8  14
ATOM     14  C   UNL     1      14.438  13.129  24.056  0.00  0.00    +0.100 C 
BRANCH  14   4
ATOM      4  N   UNL     1      14.839  12.774  22.704  0.00  0.00    -0.311 NA
ATOM     32  H   UNL     1      15.027  13.630  22.181  0.00  0.00    +0.122 HD
BRANCH   4  24
ATOM     24  C   UNL     1      16.041  11.951  22.713  0.00  0.00    +0.116 C 
BRANCH  24  25
ATOM     25  C   UNL     1      15.799  10.597  22.099  0.00  0.00    -0.033 A 
ATOM     26  C   UNL     1      16.420  10.255  20.897  0.00  0.00    +0.008 A 
ATOM     27  C   UNL     1      14.954   9.685  22.732  0.00  0.00    +0.008 A 
ATOM     28  C   UNL     1      16.195   9.001  20.329  0.00  0.00    +0.046 A 
ATOM     29  C   UNL     1      14.730   8.432  22.164  0.00  0.00    +0.046 A 
ATOM     30  C   UNL     1      15.350   8.089  20.962  0.00  0.00    +0.120 A 
BRANCH  30   1
ATOM      1  O   UNL     1      15.132   6.866  20.408  0.00  0.00    -0.495 OA
ATOM     31  C   UNL     1      15.884   6.538  19.240  0.00  0.00    +0.277 C 
ENDBRANCH  30   1
ENDBRANCH  24  25
ENDBRANCH   4  24
ENDBRANCH  14   4
ENDBRANCH   8  14
TORSDOF 7
ENDMDL
MODEL 3
REMARK VINA RESULT:      -7.1     25.912     29.391
REMARK  Name = 44716338
REMARK  9 active torsions:
REMARK  status: ('A' for Active; 'I' for Inactive)
REMARK    1  A    between atoms: O_1  and  C_30
REMARK    2  A    between atoms: O_1  and  C_31
REMARK    3  A    between atoms: N_3  and  C_20
REMARK    4  A    between atoms: N_4  and  C_14
REMARK    5  A    between atoms: N_4  and  C_24
REMARK    6  A    between atoms: C_7  and  C_13
REMARK    7  A    between atoms: C_8  and  C_14
REMARK    8  A    between atoms: C_16  and  C_17
REMARK    9  A    between atoms: C_24  and  C_25
REMARK                            x       y       z     vdW  Elec       q    Type
REMARK                         _______ _______ _______ _____ _____    ______ ____
ROOT
ATOM      2  N   UNL     1      -6.338 -10.549  17.617  0.00  0.00    -0.298 NA
ATOM      6  C   UNL     1      -4.184 -11.971  17.265  0.00  0.00    +0.002 C 
ATOM      7  C   UNL     1      -4.065 -10.608  16.526  0.00  0.00    +0.055 C 
ATOM      8  C   UNL     1      -6.702 -11.922  17.177  0.00  0.00    +0.071 C 
ATOM      9  C   UNL     1      -5.441 -12.713  16.765  0.00  0.00    +0.024 C 
ATOM     10  C   UNL     1      -5.453  -9.910  16.613  0.00  0.00    +0.094 C 
ATOM     11  C   UNL     1      -4.411 -11.648  18.758  0.00  0.00    +0.019 C 
ATOM     12  C   UNL     1      -5.588 -10.665  18.890  0.00  0.00    +0.085 C 
ENDROOT
BRANCH   7  13
ATOM      3  N   UNL     1      -2.174 -10.487  14.838  0.00  0.00    -0.271 N 
ATOM      5  N   UNL     1      -1.884 -10.506  13.525  0.00  0.00    -0.176 NA
ATOM     13  C   UNL     1      -3.505 -10.605  15.111  0.00  0.00    +0.044 A 
ATOM     15  C   UNL     1      -4.130 -10.711  13.892  0.00  0.00    +0.048 A 
ATOM     16  C   UNL     1      -3.084 -10.645  12.953  0.00  0.00    +0.066 A 
ATOM     20  C   UNL     1      -1.100 -10.345  15.794  0.00  0.00    +0.172 C 
BRANCH  16  17
ATOM     17  C   UNL     1      -3.193 -10.712  11.440  0.00  0.00    +0.040 C 
ATOM     18  C   UNL     1      -3.729  -9.398  10.847  0.00  0.00    +0.010 C 
ATOM     19  C   UNL     1      -4.041 -11.910  10.980  0.00  0.00    +0.010 C 
ATOM     21  C   UNL     1      -3.826  -9.471   9.323  0.00  0.00    +0.001 C 
ATOM     22  C   UNL     1      -4.138 -11.975   9.457  0.00  0.00    +0.001 C 
ATOM     23  C   UNL     1      -4.661 -10.666   8.870  0.00  0.00    +0.000 C 
ENDBRANCH  16  17
ENDBRANCH   7  13
BRANCH   8  14
ATOM     14  C   UNL     1      -7.760 -11.919  16.071  0.00  0.00    +0.100 C 
BRANCH  14   4
ATOM      4  N   UNL     1      -7.186 -12.351  14.808  0.00  0.00    -0.311 NA
ATOM     32  H   UNL     1      -6.808 -13.293  14.922  0.00  0.00    +0.122 HD
BRANCH   4  24
ATOM     24  C   UNL     1      -8.192 -12.370  13.754  0.00  0.00    +0.116 C 
BRANCH  24  25
ATOM     25  C   UNL     1      -7.930 -11.317  12.709  0.00  0.00    -0.033 A 
ATOM     26  C   UNL     1      -8.259 -11.562  11.375  0.00  0.00    +0.008 A 
ATOM     27  C   UNL     1      -7.359 -10.099  13.075  0.00  0.00    +0.008 A 
ATOM     28  C   UNL     1      -8.016 -10.587  10.408  0.00  0.00    +0.046 A 
ATOM     29  C   UNL     1      -7.116  -9.124  12.108  0.00  0.00    +0.046 A 
ATOM     30  C   UNL     1      -7.444  -9.368  10.773  0.00  0.00    +0.120 A 
BRANCH  30   1
ATOM      1  O   UNL     1      -7.209  -8.416   9.830  0.00  0.00    -0.495 OA
ATOM     31  C   UNL     1      -8.104  -8.367   8.720  0.00  0.00    +0.277 C 
ENDBRANCH  30   1
ENDBRANCH  24  25
ENDBRANCH   4  24
ENDBRANCH  14   4
ENDBRANCH   8  14
TORSDOF 7
ENDMDL
MODEL 4
REMARK VINA RESULT:      -7.1     28.692     31.856
REMARK  Name = 44716338
REMARK  9 active torsions:
REMARK  status: ('A' for Active; 'I' for Inactive)
REMARK    1  A    between atoms: O_1  and  C_30
REMARK    2  A    between atoms: O_1  and  C_31
REMARK    3  A    between atoms: N_3  and  C_20
REMARK    4  A    between atoms: N_4  and  C_14
REMARK    5  A    between atoms: N_4  and  C_24
REMARK    6  A    between atoms: C_7  and  C_13
REMARK    7  A    between atoms: C_8  and  C_14
REMARK    8  A    between atoms: C_16  and  C_17
REMARK    9  A    between atoms: C_24  and  C_25
REMARK                            x       y       z     vdW  Elec       q    Type
REMARK                         _______ _______ _______ _____ _____    ______ ____
ROOT
ATOM      2  N   UNL     1      -5.432 -12.043  17.308  0.00  0.00    -0.298 NA
ATOM      6  C   UNL     1      -6.009 -11.133  19.680  0.00  0.00    +0.002 C 
ATOM      7  C   UNL     1      -7.076 -12.165  19.218  0.00  0.00    +0.055 C 
ATOM      8  C   UNL     1      -5.379 -10.556  17.309  0.00  0.00    +0.071 C 
ATOM      9  C   UNL     1      -5.919  -9.994  18.643  0.00  0.00    +0.024 C 
ATOM     10  C   UNL     1      -6.777 -12.505  17.729  0.00  0.00    +0.094 C 
ATOM     11  C   UNL     1      -4.649 -11.865  19.670  0.00  0.00    +0.019 C 
ATOM     12  C   UNL     1      -4.443 -12.532  18.299  0.00  0.00    +0.085 C 
ENDROOT
BRANCH   7  13
ATOM      3  N   UNL     1      -9.408 -12.686  20.072  0.00  0.00    -0.271 N 
ATOM      5  N   UNL     1     -10.659 -12.207  20.180  0.00  0.00    -0.176 NA
ATOM     13  C   UNL     1      -8.543 -11.834  19.451  0.00  0.00    +0.044 A 
ATOM     15  C   UNL     1      -9.279 -10.719  19.130  0.00  0.00    +0.048 A 
ATOM     16  C   UNL     1     -10.574 -11.004  19.604  0.00  0.00    +0.066 A 
ATOM     20  C   UNL     1      -9.108 -13.998  20.596  0.00  0.00    +0.172 C 
BRANCH  16  17
ATOM     17  C   UNL     1     -11.805 -10.120  19.521  0.00  0.00    +0.040 C 
ATOM     18  C   UNL     1     -12.798 -10.414  20.658  0.00  0.00    +0.010 C 
ATOM     19  C   UNL     1     -12.492 -10.222  18.148  0.00  0.00    +0.010 C 
ATOM     21  C   UNL     1     -14.029  -9.512  20.571  0.00  0.00    +0.001 C 
ATOM     22  C   UNL     1     -13.724  -9.321  18.071  0.00  0.00    +0.001 C 
ATOM     23  C   UNL     1     -14.703  -9.609  19.206  0.00  0.00    +0.000 C 
ENDBRANCH  16  17
ENDBRANCH   7  13
BRANCH   8  14
ATOM     14  C   UNL     1      -6.097  -9.948  16.102  0.00  0.00    +0.100 C 
BRANCH  14   4
ATOM      4  N   UNL     1      -7.320  -9.279  16.514  0.00  0.00    -0.311 NA
ATOM     32  H   UNL     1      -7.257  -8.292  16.261  0.00  0.00    +0.122 HD
BRANCH   4  24
ATOM     24  C   UNL     1      -8.483  -9.862  15.856  0.00  0.00    +0.116 C 
BRANCH  24  25
ATOM     25  C   UNL     1      -9.642  -8.901  15.810  0.00  0.00    -0.033 A 
ATOM     26  C   UNL     1      -9.745  -7.887  16.763  0.00  0.00    +0.008 A 
ATOM     27  C   UNL     1     -10.610  -9.023  14.815  0.00  0.00    +0.008 A 
ATOM     28  C   UNL     1     -10.818  -6.997  16.720  0.00  0.00    +0.046 A 
ATOM     29  C   UNL     1     -11.683  -8.133  14.771  0.00  0.00    +0.046 A 
ATOM     30  C   UNL     1     -11.787  -7.119  15.725  0.00  0.00    +0.120 A 
BRANCH  30   1
ATOM      1  O   UNL     1     -12.833  -6.250  15.682  0.00  0.00    -0.495 OA
ATOM     31  C   UNL     1     -13.033  -5.535  14.464  0.00  0.00    +0.277 C 
ENDBRANCH  30   1
ENDBRANCH  24  25
ENDBRANCH   4  24
ENDBRANCH  14   4
ENDBRANCH   8  14
TORSDOF 7
ENDMDL
MODEL 5
REMARK VINA RESULT:      -7.0     25.974     29.700
REMARK  Name = 44716338
REMARK  9 active torsions:
REMARK  status: ('A' for Active; 'I' for Inactive)
REMARK    1  A    between atoms: O_1  and  C_30
REMARK    2  A    between atoms: O_1  and  C_31
REMARK    3  A    between atoms: N_3  and  C_20
REMARK    4  A    between atoms: N_4  and  C_14
REMARK    5  A    between atoms: N_4  and  C_24
REMARK    6  A    between atoms: C_7  and  C_13
REMARK    7  A    between atoms: C_8  and  C_14
REMARK    8  A    between atoms: C_16  and  C_17
REMARK    9  A    between atoms: C_24  and  C_25
REMARK                            x       y       z     vdW  Elec       q    Type
REMARK                         _______ _______ _______ _____ _____    ______ ____
ROOT
ATOM      2  N   UNL     1      -5.718 -10.466  17.888  0.00  0.00    -0.298 NA
ATOM      6  C   UNL     1      -4.778 -12.521  16.592  0.00  0.00    +0.002 C 
ATOM      7  C   UNL     1      -3.874 -11.276  16.369  0.00  0.00    +0.055 C 
ATOM      8  C   UNL     1      -6.799 -11.102  17.089  0.00  0.00    +0.071 C 
ATOM      9  C   UNL     1      -6.220 -12.188  16.157  0.00  0.00    +0.024 C 
ATOM     10  C   UNL     1      -4.603 -10.055  17.000  0.00  0.00    +0.094 C 
ATOM     11  C   UNL     1      -4.810 -12.779  18.114  0.00  0.00    +0.019 C 
ATOM     12  C   UNL     1      -5.202 -11.479  18.840  0.00  0.00    +0.085 C 
ENDROOT
BRANCH   7  13
ATOM      3  N   UNL     1      -2.133 -10.517  14.685  0.00  0.00    -0.271 N 
ATOM      5  N   UNL     1      -1.896 -10.329  13.376  0.00  0.00    -0.176 NA
ATOM     13  C   UNL     1      -3.384 -10.989  14.957  0.00  0.00    +0.044 A 
ATOM     15  C   UNL     1      -4.008 -11.119  13.741  0.00  0.00    +0.048 A 
ATOM     16  C   UNL     1      -3.044 -10.699  12.803  0.00  0.00    +0.066 A 
ATOM     20  C   UNL     1      -1.093 -10.214  15.641  0.00  0.00    +0.172 C 
BRANCH  16  17
ATOM     17  C   UNL     1      -3.189 -10.635  11.294  0.00  0.00    +0.040 C 
ATOM     18  C   UNL     1      -3.899  -9.347  10.842  0.00  0.00    +0.010 C 
ATOM     19  C   UNL     1      -3.897 -11.881  10.733  0.00  0.00    +0.010 C 
ATOM     21  C   UNL     1      -4.031  -9.287   9.320  0.00  0.00    +0.001 C 
ATOM     22  C   UNL     1      -4.029 -11.811   9.212  0.00  0.00    +0.001 C 
ATOM     23  C   UNL     1      -4.726 -10.528   8.766  0.00  0.00    +0.000 C 
ENDBRANCH  16  17
ENDBRANCH   7  13
BRANCH   8  14
ATOM     14  C   UNL     1      -7.634 -10.076  16.319  0.00  0.00    +0.100 C 
BRANCH  14   4
ATOM      4  N   UNL     1      -8.186  -9.079  17.222  0.00  0.00    -0.311 NA
ATOM     32  H   UNL     1      -8.176  -8.170  16.756  0.00  0.00    +0.122 HD
BRANCH   4  24
ATOM     24  C   UNL     1      -9.558  -9.407  17.588  0.00  0.00    +0.116 C 
BRANCH  24  25
ATOM     25  C   UNL     1     -10.548  -8.460  16.961  0.00  0.00    -0.033 A 
ATOM     26  C   UNL     1     -11.897  -8.810  16.887  0.00  0.00    +0.008 A 
ATOM     27  C   UNL     1     -10.116  -7.235  16.455  0.00  0.00    +0.008 A 
ATOM     28  C   UNL     1     -12.812  -7.933  16.307  0.00  0.00    +0.046 A 
ATOM     29  C   UNL     1     -11.032  -6.358  15.875  0.00  0.00    +0.046 A 
ATOM     30  C   UNL     1     -12.381  -6.707  15.801  0.00  0.00    +0.120 A 
BRANCH  30   1
ATOM      1  O   UNL     1     -13.275  -5.851  15.236  0.00  0.00    -0.495 OA
ATOM     31  C   UNL     1     -13.017  -5.434  13.896  0.00  0.00    +0.277 C 
ENDBRANCH  30   1
ENDBRANCH  24  25
ENDBRANCH   4  24
ENDBRANCH  14   4
ENDBRANCH   8  14
TORSDOF 7
ENDMDL
MODEL 6
REMARK VINA RESULT:      -6.6     27.419     29.746
REMARK  Name = 44716338
REMARK  9 active torsions:
REMARK  status: ('A' for Active; 'I' for Inactive)
REMARK    1  A    between atoms: O_1  and  C_30
REMARK    2  A    between atoms: O_1  and  C_31
REMARK    3  A    between atoms: N_3  and  C_20
REMARK    4  A    between atoms: N_4  and  C_14
REMARK    5  A    between atoms: N_4  and  C_24
REMARK    6  A    between atoms: C_7  and  C_13
REMARK    7  A    between atoms: C_8  and  C_14
REMARK    8  A    between atoms: C_16  and  C_17
REMARK    9  A    between atoms: C_24  and  C_25
REMARK                            x       y       z     vdW  Elec       q    Type
REMARK                         _______ _______ _______ _____ _____    ______ ____
ROOT
ATOM      2  N   UNL     1      -4.995 -12.698  16.806  0.00  0.00    -0.298 NA
ATOM      6  C   UNL     1      -5.451 -10.749  18.473  0.00  0.00    +0.002 C 
ATOM      7  C   UNL     1      -6.787 -11.398  18.014  0.00  0.00    +0.055 C 
ATOM      8  C   UNL     1      -4.249 -11.482  16.383  0.00  0.00    +0.071 C 
ATOM      9  C   UNL     1      -4.668 -10.264  17.235  0.00  0.00    +0.024 C 
ATOM     10  C   UNL     1      -6.447 -12.406  16.878  0.00  0.00    +0.094 C 
ATOM     11  C   UNL     1      -4.615 -11.870  19.128  0.00  0.00    +0.019 C 
ATOM     12  C   UNL     1      -4.528 -13.066  18.164  0.00  0.00    +0.085 C 
ENDROOT
BRANCH   7  13
ATOM      3  N   UNL     1      -9.066 -10.350  18.403  0.00  0.00    -0.271 N 
ATOM      5  N   UNL     1      -9.967  -9.488  17.902  0.00  0.00    -0.176 NA
ATOM     13  C   UNL     1      -7.941 -10.478  17.642  0.00  0.00    +0.044 A 
ATOM     15  C   UNL     1      -8.118  -9.639  16.569  0.00  0.00    +0.048 A 
ATOM     16  C   UNL     1      -9.382  -9.055  16.782  0.00  0.00    +0.066 A 
ATOM     20  C   UNL     1      -9.358 -11.035  19.642  0.00  0.00    +0.172 C 
BRANCH  16  17
ATOM     17  C   UNL     1     -10.092  -8.042  15.904  0.00  0.00    +0.040 C 
ATOM     18  C   UNL     1     -10.770  -6.940  16.736  0.00  0.00    +0.010 C 
ATOM     19  C   UNL     1     -11.099  -8.713  14.954  0.00  0.00    +0.010 C 
ATOM     21  C   UNL     1     -11.474  -5.918  15.843  0.00  0.00    +0.001 C 
ATOM     22  C   UNL     1     -11.802  -7.685  14.068  0.00  0.00    +0.001 C 
ATOM     23  C   UNL     1     -12.466  -6.588  14.896  0.00  0.00    +0.000 C 
ENDBRANCH  16  17
ENDBRANCH   7  13
BRANCH   8  14
ATOM     14  C   UNL     1      -4.389 -11.206  14.885  0.00  0.00    +0.100 C 
BRANCH  14   4
ATOM      4  N   UNL     1      -3.260 -10.432  14.396  0.00  0.00    -0.311 NA
ATOM     32  H   UNL     1      -2.683 -10.153  15.190  0.00  0.00    +0.122 HD
BRANCH   4  24
ATOM     24  C   UNL     1      -2.448 -11.217  13.473  0.00  0.00    +0.116 C 
BRANCH  24  25
ATOM     25  C   UNL     1      -2.979 -11.151  12.065  0.00  0.00    -0.033 A 
ATOM     26  C   UNL     1      -3.323 -12.326  11.395  0.00  0.00    +0.008 A 
ATOM     27  C   UNL     1      -3.126  -9.918  11.432  0.00  0.00    +0.008 A 
ATOM     28  C   UNL     1      -3.815 -12.265  10.092  0.00  0.00    +0.046 A 
ATOM     29  C   UNL     1      -3.617  -9.857  10.128  0.00  0.00    +0.046 A 
ATOM     30  C   UNL     1      -3.962 -11.031   9.457  0.00  0.00    +0.120 A 
BRANCH  30   1
ATOM      1  O   UNL     1      -4.443 -10.972   8.186  0.00  0.00    -0.495 OA
ATOM     31  C   UNL     1      -4.870 -12.199   7.596  0.00  0.00    +0.277 C 
ENDBRANCH  30   1
ENDBRANCH  24  25
ENDBRANCH   4  24
ENDBRANCH  14   4
ENDBRANCH   8  14
TORSDOF 7
ENDMDL
MODEL 7
REMARK VINA RESULT:      -6.6     26.856     29.087
REMARK  Name = 44716338
REMARK  9 active torsions:
REMARK  status: ('A' for Active; 'I' for Inactive)
REMARK    1  A    between atoms: O_1  and  C_30
REMARK    2  A    between atoms: O_1  and  C_31
REMARK    3  A    between atoms: N_3  and  C_20
REMARK    4  A    between atoms: N_4  and  C_14
REMARK    5  A    between atoms: N_4  and  C_24
REMARK    6  A    between atoms: C_7  and  C_13
REMARK    7  A    between atoms: C_8  and  C_14
REMARK    8  A    between atoms: C_16  and  C_17
REMARK    9  A    between atoms: C_24  and  C_25
REMARK                            x       y       z     vdW  Elec       q    Type
REMARK                         _______ _______ _______ _____ _____    ______ ____
ROOT
ATOM      2  N   UNL     1      -4.490 -12.411  17.194  0.00  0.00    -0.298 NA
ATOM      6  C   UNL     1      -5.942 -10.263  17.447  0.00  0.00    +0.002 C 
ATOM      7  C   UNL     1      -6.539 -11.200  16.360  0.00  0.00    +0.055 C 
ATOM      8  C   UNL     1      -3.624 -11.202  17.141  0.00  0.00    +0.071 C 
ATOM      9  C   UNL     1      -4.483  -9.921  17.080  0.00  0.00    +0.024 C 
ATOM     10  C   UNL     1      -5.517 -12.349  16.125  0.00  0.00    +0.094 C 
ATOM     11  C   UNL     1      -5.901 -11.076  18.760  0.00  0.00    +0.019 C 
ATOM     12  C   UNL     1      -5.184 -12.414  18.504  0.00  0.00    +0.085 C 
ENDROOT
BRANCH   7  13
ATOM      3  N   UNL     1      -8.277 -10.094  14.876  0.00  0.00    -0.271 N 
ATOM      5  N   UNL     1      -8.496  -9.582  13.653  0.00  0.00    -0.176 NA
ATOM     13  C   UNL     1      -7.013 -10.574  15.055  0.00  0.00    +0.044 A 
ATOM     15  C   UNL     1      -6.358 -10.359  13.867  0.00  0.00    +0.048 A 
ATOM     16  C   UNL     1      -7.319  -9.746  13.041  0.00  0.00    +0.066 A 
ATOM     20  C   UNL     1      -9.351 -10.094  15.843  0.00  0.00    +0.172 C 
BRANCH  16  17
ATOM     17  C   UNL     1      -7.146  -9.283  11.606  0.00  0.00    +0.040 C 
ATOM     18  C   UNL     1      -7.442 -10.411  10.602  0.00  0.00    +0.010 C 
ATOM     19  C   UNL     1      -5.751  -8.682  11.363  0.00  0.00    +0.010 C 
ATOM     21  C   UNL     1      -7.275  -9.933   9.160  0.00  0.00    +0.001 C 
ATOM     22  C   UNL     1      -5.590  -8.211   9.918  0.00  0.00    +0.001 C 
ATOM     23  C   UNL     1      -5.893  -9.329   8.925  0.00  0.00    +0.000 C 
ENDBRANCH  16  17
ENDBRANCH   7  13
BRANCH   8  14
ATOM     14  C   UNL     1      -2.610 -11.263  15.998  0.00  0.00    +0.100 C 
BRANCH  14   4
ATOM      4  N   UNL     1      -2.955 -10.314  14.951  0.00  0.00    -0.311 NA
ATOM     32  H   UNL     1      -2.842  -9.367  15.315  0.00  0.00    +0.122 HD
BRANCH   4  24
ATOM     24  C   UNL     1      -2.093 -10.481  13.788  0.00  0.00    +0.116 C 
BRANCH  24  25
ATOM     25  C   UNL     1      -2.831 -11.092  12.626  0.00  0.00    -0.033 A 
ATOM     26  C   UNL     1      -3.675 -12.184  12.833  0.00  0.00    +0.008 A 
ATOM     27  C   UNL     1      -2.672 -10.567  11.344  0.00  0.00    +0.008 A 
ATOM     28  C   UNL     1      -4.359 -12.749  11.757  0.00  0.00    +0.046 A 
ATOM     29  C   UNL     1      -3.355 -11.132  10.269  0.00  0.00    +0.046 A 
ATOM     30  C   UNL     1      -4.200 -12.224  10.475  0.00  0.00    +0.120 A 
BRANCH  30   1
ATOM      1  O   UNL     1      -4.868 -12.775   9.425  0.00  0.00    -0.495 OA
ATOM     31  C   UNL     1      -4.128 -12.984   8.223  0.00  0.00    +0.277 C 
ENDBRANCH  30   1
ENDBRANCH  24  25
ENDBRANCH   4  24
ENDBRANCH  14   4
ENDBRANCH   8  14
TORSDOF 7
ENDMDL
MODEL 8
REMARK VINA RESULT:      -6.5     27.575     30.389
REMARK  Name = 44716338
REMARK  9 active torsions:
REMARK  status: ('A' for Active; 'I' for Inactive)
REMARK    1  A    between atoms: O_1  and  C_30
REMARK    2  A    between atoms: O_1  and  C_31
REMARK    3  A    between atoms: N_3  and  C_20
REMARK    4  A    between atoms: N_4  and  C_14
REMARK    5  A    between atoms: N_4  and  C_24
REMARK    6  A    between atoms: C_7  and  C_13
REMARK    7  A    between atoms: C_8  and  C_14
REMARK    8  A    between atoms: C_16  and  C_17
REMARK    9  A    between atoms: C_24  and  C_25
REMARK                            x       y       z     vdW  Elec       q    Type
REMARK                         _______ _______ _______ _____ _____    ______ ____
ROOT
ATOM      2  N   UNL     1      -6.067 -10.458   9.633  0.00  0.00    -0.298 NA
ATOM      6  C   UNL     1      -4.080  -9.218  10.773  0.00  0.00    +0.002 C 
ATOM      7  C   UNL     1      -4.427 -10.520  11.548  0.00  0.00    +0.055 C 
ATOM      8  C   UNL     1      -6.411  -9.025   9.835  0.00  0.00    +0.071 C 
ATOM      9  C   UNL     1      -5.335  -8.324  10.692  0.00  0.00    +0.024 C 
ATOM     10  C   UNL     1      -5.737 -11.091  10.934  0.00  0.00    +0.094 C 
ATOM     11  C   UNL     1      -3.730  -9.641   9.329  0.00  0.00    +0.019 C 
ATOM     12  C   UNL     1      -4.864 -10.519   8.770  0.00  0.00    +0.085 C 
ENDROOT
BRANCH   7  13
ATOM      3  N   UNL     1      -3.428 -10.798  13.865  0.00  0.00    -0.271 N 
ATOM      5  N   UNL     1      -3.679 -10.674  15.180  0.00  0.00    -0.176 NA
ATOM     13  C   UNL     1      -4.481 -10.457  13.068  0.00  0.00    +0.044 A 
ATOM     15  C   UNL     1      -5.492 -10.083  13.920  0.00  0.00    +0.048 A 
ATOM     16  C   UNL     1      -4.941 -10.236  15.207  0.00  0.00    +0.066 A 
ATOM     20  C   UNL     1      -2.129 -11.262  13.436  0.00  0.00    +0.172 C 
BRANCH  16  17
ATOM     17  C   UNL     1      -5.615  -9.963  16.540  0.00  0.00    +0.040 C 
ATOM     18  C   UNL     1      -5.109 -10.911  17.641  0.00  0.00    +0.010 C 
ATOM     19  C   UNL     1      -7.148 -10.016  16.427  0.00  0.00    +0.010 C 
ATOM     21  C   UNL     1      -5.786 -10.622  18.980  0.00  0.00    +0.001 C 
ATOM     22  C   UNL     1      -7.817  -9.731  17.771  0.00  0.00    +0.001 C 
ATOM     23  C   UNL     1      -7.307 -10.667  18.864  0.00  0.00    +0.000 C 
ENDBRANCH  16  17
ENDBRANCH   7  13
BRANCH   8  14
ATOM     14  C   UNL     1      -7.814  -8.840  10.417  0.00  0.00    +0.100 C 
BRANCH  14   4
ATOM      4  N   UNL     1      -8.829  -9.131   9.418  0.00  0.00    -0.311 NA
ATOM     32  H   UNL     1      -9.744  -9.144   9.871  0.00  0.00    +0.122 HD
BRANCH   4  24
ATOM     24  C   UNL     1      -8.836  -8.121   8.367  0.00  0.00    +0.116 C 
BRANCH  24  25
ATOM     25  C   UNL     1      -9.654  -6.916   8.753  0.00  0.00    -0.033 A 
ATOM     26  C   UNL     1      -9.198  -5.635   8.443  0.00  0.00    +0.008 A 
ATOM     27  C   UNL     1     -10.869  -7.083   9.417  0.00  0.00    +0.008 A 
ATOM     28  C   UNL     1      -9.956  -4.520   8.800  0.00  0.00    +0.046 A 
ATOM     29  C   UNL     1     -11.628  -5.968   9.774  0.00  0.00    +0.046 A 
ATOM     30  C   UNL     1     -11.171  -4.686   9.465  0.00  0.00    +0.120 A 
BRANCH  30   1
ATOM      1  O   UNL     1     -11.912  -3.598   9.812  0.00  0.00    -0.495 OA
ATOM     31  C   UNL     1     -13.116  -3.374   9.081  0.00  0.00    +0.277 C 
ENDBRANCH  30   1
ENDBRANCH  24  25
ENDBRANCH   4  24
ENDBRANCH  14   4
ENDBRANCH   8  14
TORSDOF 7
ENDMDL
MODEL 9
REMARK VINA RESULT:      -6.5     27.135     31.860
REMARK  Name = 44716338
REMARK  9 active torsions:
REMARK  status: ('A' for Active; 'I' for Inactive)
REMARK    1  A    between atoms: O_1  and  C_30
REMARK    2  A    between atoms: O_1  and  C_31
REMARK    3  A    between atoms: N_3  and  C_20
REMARK    4  A    between atoms: N_4  and  C_14
REMARK    5  A    between atoms: N_4  and  C_24
REMARK    6  A    between atoms: C_7  and  C_13
REMARK    7  A    between atoms: C_8  and  C_14
REMARK    8  A    between atoms: C_16  and  C_17
REMARK    9  A    between atoms: C_24  and  C_25
REMARK                            x       y       z     vdW  Elec       q    Type
REMARK                         _______ _______ _______ _____ _____    ______ ____
ROOT
ATOM      2  N   UNL     1     -17.008   5.076  23.644  0.00  0.00    -0.298 NA
ATOM      6  C   UNL     1     -17.504   2.958  25.077  0.00  0.00    +0.002 C 
ATOM      7  C   UNL     1     -17.534   4.235  25.963  0.00  0.00    +0.055 C 
ATOM      8  C   UNL     1     -15.979   4.034  23.385  0.00  0.00    +0.071 C 
ATOM      9  C   UNL     1     -16.135   2.858  24.373  0.00  0.00    +0.024 C 
ATOM     10  C   UNL     1     -17.034   5.419  25.087  0.00  0.00    +0.094 C 
ATOM     11  C   UNL     1     -18.568   3.157  23.975  0.00  0.00    +0.019 C 
ATOM     12  C   UNL     1     -18.328   4.509  23.279  0.00  0.00    +0.085 C 
ENDROOT
BRANCH   7  13
ATOM      3  N   UNL     1     -16.939   5.184  28.240  0.00  0.00    -0.271 N 
ATOM      5  N   UNL     1     -16.252   4.949  29.371  0.00  0.00    -0.176 NA
ATOM     13  C   UNL     1     -16.841   4.185  27.317  0.00  0.00    +0.044 A 
ATOM     15  C   UNL     1     -16.034   3.228  27.883  0.00  0.00    +0.048 A 
ATOM     16  C   UNL     1     -15.702   3.752  29.148  0.00  0.00    +0.066 A 
ATOM     20  C   UNL     1     -17.681   6.417  28.110  0.00  0.00    +0.172 C 
BRANCH  16  17
ATOM     17  C   UNL     1     -14.828   3.114  30.212  0.00  0.00    +0.040 C 
ATOM     18  C   UNL     1     -15.397   1.765  30.686  0.00  0.00    +0.010 C 
ATOM     19  C   UNL     1     -14.591   4.060  31.401  0.00  0.00    +0.010 C 
ATOM     21  C   UNL     1     -14.505   1.126  31.750  0.00  0.00    +0.001 C 
ATOM     22  C   UNL     1     -13.702   3.413  32.463  0.00  0.00    +0.001 C 
ATOM     23  C   UNL     1     -14.264   2.071  32.924  0.00  0.00    +0.000 C 
ENDBRANCH  16  17
ENDBRANCH   7  13
BRANCH   8  14
ATOM     14  C   UNL     1     -14.559   4.604  23.397  0.00  0.00    +0.100 C 
BRANCH  14   4
ATOM      4  N   UNL     1     -14.123   4.931  22.049  0.00  0.00    -0.311 NA
ATOM     32  H   UNL     1     -14.564   4.284  21.394  0.00  0.00    +0.122 HD
BRANCH   4  24
ATOM     24  C   UNL     1     -14.497   6.294  21.693  0.00  0.00    +0.116 C 
BRANCH  24  25
ATOM     25  C   UNL     1     -13.520   6.910  20.727  0.00  0.00    -0.033 A 
ATOM     26  C   UNL     1     -12.148   6.769  20.937  0.00  0.00    +0.008 A 
ATOM     27  C   UNL     1     -13.986   7.620  19.621  0.00  0.00    +0.008 A 
ATOM     28  C   UNL     1     -11.244   7.338  20.042  0.00  0.00    +0.046 A 
ATOM     29  C   UNL     1     -13.082   8.189  18.725  0.00  0.00    +0.046 A 
ATOM     30  C   UNL     1     -11.710   8.049  18.936  0.00  0.00    +0.120 A 
BRANCH  30   1
ATOM      1  O   UNL     1     -10.827   8.604  18.061  0.00  0.00    -0.495 OA
ATOM     31  C   UNL     1     -10.154   9.790  18.483  0.00  0.00    +0.277 C 
ENDBRANCH  30   1
ENDBRANCH  24  25
ENDBRANCH   4  24
ENDBRANCH  14   4
ENDBRANCH   8  14
TORSDOF 7
ENDMDL
MODEL 10
REMARK VINA RESULT:      -6.5     16.360     19.786
REMARK  Name = 44716338
REMARK  9 active torsions:
REMARK  status: ('A' for Active; 'I' for Inactive)
REMARK    1  A    between atoms: O_1  and  C_30
REMARK    2  A    between atoms: O_1  and  C_31
REMARK    3  A    between atoms: N_3  and  C_20
REMARK    4  A    between atoms: N_4  and  C_14
REMARK    5  A    between atoms: N_4  and  C_24
REMARK    6  A    between atoms: C_7  and  C_13
REMARK    7  A    between atoms: C_8  and  C_14
REMARK    8  A    between atoms: C_16  and  C_17
REMARK    9  A    between atoms: C_24  and  C_25
REMARK                            x       y       z     vdW  Elec       q    Type
REMARK                         _______ _______ _______ _____ _____    ______ ____
ROOT
ATOM      2  N   UNL     1      12.468   6.010   1.559  0.00  0.00    -0.298 NA
ATOM      6  C   UNL     1      11.721   3.601   0.908  0.00  0.00    +0.002 C 
ATOM      7  C   UNL     1      11.969   4.457  -0.365  0.00  0.00    +0.055 C 
ATOM      8  C   UNL     1      11.245   5.634   2.317  0.00  0.00    +0.071 C 
ATOM      9  C   UNL     1      10.670   4.299   1.796  0.00  0.00    +0.024 C 
ATOM     10  C   UNL     1      12.210   5.922   0.100  0.00  0.00    +0.094 C 
ATOM     11  C   UNL     1      13.047   3.588   1.699  0.00  0.00    +0.019 C 
ATOM     12  C   UNL     1      13.531   5.035   1.901  0.00  0.00    +0.085 C 
ENDROOT
BRANCH   7  13
ATOM      3  N   UNL     1      10.944   3.359  -2.411  0.00  0.00    -0.271 N 
ATOM      5  N   UNL     1       9.968   3.466  -3.330  0.00  0.00    -0.176 NA
ATOM     13  C   UNL     1      10.954   4.370  -1.496  0.00  0.00    +0.044 A 
ATOM     15  C   UNL     1       9.911   5.197  -1.839  0.00  0.00    +0.048 A 
ATOM     16  C   UNL     1       9.340   4.590  -2.974  0.00  0.00    +0.066 A 
ATOM     20  C   UNL     1      11.852   2.238  -2.476  0.00  0.00    +0.172 C 
BRANCH  16  17
ATOM     17  C   UNL     1       8.147   5.073  -3.779  0.00  0.00    +0.040 C 
ATOM     18  C   UNL     1       8.463   5.147  -5.282  0.00  0.00    +0.010 C 
ATOM     19  C   UNL     1       7.615   6.421  -3.261  0.00  0.00    +0.010 C 
ATOM     21  C   UNL     1       7.254   5.625  -6.085  0.00  0.00    +0.001 C 
ATOM     22  C   UNL     1       6.408   6.894  -4.071  0.00  0.00    +0.001 C 
ATOM     23  C   UNL     1       6.723   6.957  -5.563  0.00  0.00    +0.000 C 
ENDBRANCH  16  17
ENDBRANCH   7  13
BRANCH   8  14
ATOM     14  C   UNL     1      10.194   6.746   2.315  0.00  0.00    +0.100 C 
BRANCH  14   4
ATOM      4  N   UNL     1      10.093   7.363   3.628  0.00  0.00    -0.311 NA
ATOM     32  H   UNL     1      10.069   8.377   3.515  0.00  0.00    +0.122 HD
BRANCH   4  24
ATOM     24  C   UNL     1       8.883   6.935   4.317  0.00  0.00    +0.116 C 
BRANCH  24  25
ATOM     25  C   UNL     1       9.177   6.433   5.707  0.00  0.00    -0.033 A 
ATOM     26  C   UNL     1       9.702   5.153   5.889  0.00  0.00    +0.008 A 
ATOM     27  C   UNL     1       8.926   7.247   6.810  0.00  0.00    +0.008 A 
ATOM     28  C   UNL     1       9.975   4.689   7.176  0.00  0.00    +0.046 A 
ATOM     29  C   UNL     1       9.198   6.784   8.096  0.00  0.00    +0.046 A 
ATOM     30  C   UNL     1       9.723   5.503   8.280  0.00  0.00    +0.120 A 
BRANCH  30   1
ATOM      1  O   UNL     1       9.990   5.051   9.535  0.00  0.00    -0.495 OA
ATOM     31  C   UNL     1       8.878   4.627  10.322  0.00  0.00    +0.277 C 
ENDBRANCH  30   1
ENDBRANCH  24  25
ENDBRANCH   4  24
ENDBRANCH  14   4
ENDBRANCH   8  14
TORSDOF 7
ENDMDL
