MODEL 1
REMARK VINA RESULT:      -5.8      0.000      0.000
REMARK  Name = 11882062
REMARK  11 active torsions:
REMARK  status: ('A' for Active; 'I' for Inactive)
REMARK    1  A    between atoms: S_1  and  C_20
REMARK    2  A    between atoms: S_1  and  C_26
REMARK    3  A    between atoms: N_8  and  C_12
REMARK    4  A    between atoms: N_9  and  C_18
REMARK    5  A    between atoms: N_10  and  C_24
REMARK    6  A    between atoms: C_13  and  C_16
REMARK    7  A    between atoms: C_17  and  C_20
REMARK    8  A    between atoms: C_18  and  C_21
REMARK    9  A    between atoms: C_18  and  C_22
REMARK   10  A    between atoms: C_21  and  C_23
REMARK   11  A    between atoms: C_24  and  C_28
REMARK                            x       y       z     vdW  Elec       q    Type
REMARK                         _______ _______ _______ _____ _____    ______ ____
ROOT
ATOM      4  O   UNL     1      15.495   6.992   3.178  0.00  0.00    -0.275 OA
ATOM      7  N   UNL     1      13.373   7.657   3.823  0.00  0.00    -0.287 N 
ATOM     12  C   UNL     1      11.346   6.492   4.215  0.00  0.00    +0.105 C 
ATOM     13  C   UNL     1      12.706   6.394   3.524  0.00  0.00    +0.182 C 
ATOM     14  C   UNL     1      11.069   7.997   4.246  0.00  0.00    +0.043 C 
ATOM     15  C   UNL     1      12.450   8.617   4.420  0.00  0.00    +0.110 C 
ATOM     17  C   UNL     1      14.743   7.825   3.689  0.00  0.00    +0.226 C 
ENDROOT
BRANCH  12   8
ATOM      5  O   UNL     1       9.229   5.125   5.622  0.00  0.00    -0.253 OA
ATOM      8  N   UNL     1      11.402   5.940   5.547  0.00  0.00    -0.294 N 
ATOM     10  N   UNL     1      10.653   4.861   7.435  0.00  0.00    -0.296 N 
ATOM     19  C   UNL     1      10.327   5.293   6.152  0.00  0.00    +0.300 C 
ATOM     31  H   UNL     1      12.286   5.968   6.048  0.00  0.00    +0.151 HD
ATOM     33  H   UNL     1      11.593   5.028   7.782  0.00  0.00    +0.151 HD
BRANCH  10  24
ATOM     24  C   UNL     1       9.720   4.160   8.285  0.00  0.00    +0.132 C 
BRANCH  24  28
ATOM     28  C   UNL     1       9.384   5.022   9.457  0.00  0.00    -0.016 C 
ATOM     30  C   UNL     1       8.669   4.607  10.508  0.00  0.00    +0.005 C 
ENDBRANCH  24  28
ENDBRANCH  10  24
ENDBRANCH  12   8
BRANCH  13  16
ATOM      3  O   UNL     1      12.734   7.317   1.322  0.00  0.00    -0.274 OA
ATOM      9  N   UNL     1      12.200   5.068   1.594  0.00  0.00    -0.302 N 
ATOM     16  C   UNL     1      12.562   6.330   2.032  0.00  0.00    +0.236 C 
ATOM     32  H   UNL     1      12.005   4.347   2.283  0.00  0.00    +0.150 HD
BRANCH   9  18
ATOM     18  C   UNL     1      11.975   4.748   0.203  0.00  0.00    +0.163 C 
BRANCH  18  22
ATOM      6  O   UNL     1       9.802   3.954   0.948  0.00  0.00    -0.274 OA
ATOM     11  N   UNL     1       9.996   4.784  -1.186  0.00  0.00    -0.328 N 
ATOM     22  C   UNL     1      10.494   4.431   0.051  0.00  0.00    +0.231 C 
ATOM     34  H   UNL     1       9.018   4.640  -1.413  0.00  0.00    +0.145 HD
ATOM     35  H   UNL     1      10.578   5.180  -1.916  0.00  0.00    +0.145 HD
ENDBRANCH  18  22
BRANCH  18  21
ATOM     21  C   UNL     1      12.826   3.562  -0.267  0.00  0.00    +0.074 C 
BRANCH  21  23
ATOM      2  S   UNL     1      14.436   4.468  -2.353  0.00  0.00    -0.102 S 
ATOM     23  C   UNL     1      14.200   3.989  -0.726  0.00  0.00    -0.008 A 
ATOM     25  C   UNL     1      15.366   4.056   0.007  0.00  0.00    +0.011 A 
ATOM     27  C   UNL     1      16.466   4.506  -0.779  0.00  0.00    +0.008 A 
ATOM     29  C   UNL     1      16.100   4.767  -2.081  0.00  0.00    +0.045 A 
ENDBRANCH  21  23
ENDBRANCH  18  21
ENDBRANCH   9  18
ENDBRANCH  13  16
BRANCH  17  20
ATOM     20  C   UNL     1      15.292   9.129   4.209  0.00  0.00    +0.164 C 
BRANCH  20   1
ATOM      1  S   UNL     1      16.050   8.804   5.808  0.00  0.00    -0.155 S 
ATOM     26  C   UNL     1      17.788   8.984   5.335  0.00  0.00    +0.085 C 
ENDBRANCH  20   1
ENDBRANCH  17  20
TORSDOF 10
ENDMDL
MODEL 2
REMARK VINA RESULT:      -5.8      2.736      4.570
REMARK  Name = 11882062
REMARK  11 active torsions:
REMARK  status: ('A' for Active; 'I' for Inactive)
REMARK    1  A    between atoms: S_1  and  C_20
REMARK    2  A    between atoms: S_1  and  C_26
REMARK    3  A    between atoms: N_8  and  C_12
REMARK    4  A    between atoms: N_9  and  C_18
REMARK    5  A    between atoms: N_10  and  C_24
REMARK    6  A    between atoms: C_13  and  C_16
REMARK    7  A    between atoms: C_17  and  C_20
REMARK    8  A    between atoms: C_18  and  C_21
REMARK    9  A    between atoms: C_18  and  C_22
REMARK   10  A    between atoms: C_21  and  C_23
REMARK   11  A    between atoms: C_24  and  C_28
REMARK                            x       y       z     vdW  Elec       q    Type
REMARK                         _______ _______ _______ _____ _____    ______ ____
ROOT
ATOM      4  O   UNL     1      13.527   2.869   1.275  0.00  0.00    -0.275 OA
ATOM      7  N   UNL     1      12.753   4.887   2.106  0.00  0.00    -0.287 N 
ATOM     12  C   UNL     1      10.853   5.506   3.380  0.00  0.00    +0.105 C 
ATOM     13  C   UNL     1      11.424   4.414   2.475  0.00  0.00    +0.182 C 
ATOM     14  C   UNL     1      11.569   6.773   2.906  0.00  0.00    +0.043 C 
ATOM     15  C   UNL     1      12.952   6.279   2.498  0.00  0.00    +0.110 C 
ATOM     17  C   UNL     1      13.729   4.042   1.596  0.00  0.00    +0.226 C 
ENDROOT
BRANCH  12   8
ATOM      5  O   UNL     1       9.439   6.517   5.684  0.00  0.00    -0.253 OA
ATOM      8  N   UNL     1      11.140   5.229   4.767  0.00  0.00    -0.294 N 
ATOM     10  N   UNL     1      10.893   5.334   7.052  0.00  0.00    -0.296 N 
ATOM     19  C   UNL     1      10.401   5.763   5.821  0.00  0.00    +0.300 C 
ATOM     31  H   UNL     1      11.875   4.563   4.988  0.00  0.00    +0.151 HD
ATOM     33  H   UNL     1      11.682   4.694   7.066  0.00  0.00    +0.151 HD
BRANCH  10  24
ATOM     24  C   UNL     1      10.312   5.738   8.310  0.00  0.00    +0.132 C 
BRANCH  24  28
ATOM     28  C   UNL     1       9.529   4.598   8.875  0.00  0.00    -0.016 C 
ATOM     30  C   UNL     1       9.040   4.573  10.119  0.00  0.00    +0.005 C 
ENDBRANCH  24  28
ENDBRANCH  10  24
ENDBRANCH  12   8
BRANCH  13  16
ATOM      3  O   UNL     1       9.469   3.938   1.189  0.00  0.00    -0.274 OA
ATOM      9  N   UNL     1      11.407   4.608   0.087  0.00  0.00    -0.302 N 
ATOM     16  C   UNL     1      10.644   4.296   1.199  0.00  0.00    +0.236 C 
ATOM     32  H   UNL     1      12.394   4.812   0.211  0.00  0.00    +0.150 HD
BRANCH   9  18
ATOM     18  C   UNL     1      10.897   4.549  -1.264  0.00  0.00    +0.163 C 
BRANCH  18  22
ATOM      6  O   UNL     1      12.281   4.146  -3.221  0.00  0.00    -0.274 OA
ATOM     11  N   UNL     1      12.456   2.709  -1.437  0.00  0.00    -0.328 N 
ATOM     22  C   UNL     1      11.926   3.798  -2.098  0.00  0.00    +0.231 C 
ATOM     34  H   UNL     1      13.165   2.130  -1.875  0.00  0.00    +0.145 HD
ATOM     35  H   UNL     1      12.156   2.434  -0.507  0.00  0.00    +0.145 HD
ENDBRANCH  18  22
BRANCH  18  21
ATOM     21  C   UNL     1      10.646   5.942  -1.853  0.00  0.00    +0.074 C 
BRANCH  21  23
ATOM      2  S   UNL     1       8.294   7.346  -2.365  0.00  0.00    -0.102 S 
ATOM     23  C   UNL     1       9.345   6.017  -2.616  0.00  0.00    -0.008 A 
ATOM     25  C   UNL     1       8.841   5.126  -3.540  0.00  0.00    +0.011 A 
ATOM     27  C   UNL     1       7.576   5.541  -4.046  0.00  0.00    +0.008 A 
ATOM     29  C   UNL     1       7.161   6.732  -3.492  0.00  0.00    +0.045 A 
ENDBRANCH  21  23
ENDBRANCH  18  21
ENDBRANCH   9  18
ENDBRANCH  13  16
BRANCH  17  20
ATOM     20  C   UNL     1      15.099   4.651   1.438  0.00  0.00    +0.164 C 
BRANCH  20   1
ATOM      1  S   UNL     1      15.249   5.228  -0.259  0.00  0.00    -0.155 S 
ATOM     26  C   UNL     1      16.560   4.114  -0.819  0.00  0.00    +0.085 C 
ENDBRANCH  20   1
ENDBRANCH  17  20
TORSDOF 10
ENDMDL
MODEL 3
REMARK VINA RESULT:      -5.7     13.309     17.527
REMARK  Name = 11882062
REMARK  11 active torsions:
REMARK  status: ('A' for Active; 'I' for Inactive)
REMARK    1  A    between atoms: S_1  and  C_20
REMARK    2  A    between atoms: S_1  and  C_26
REMARK    3  A    between atoms: N_8  and  C_12
REMARK    4  A    between atoms: N_9  and  C_18
REMARK    5  A    between atoms: N_10  and  C_24
REMARK    6  A    between atoms: C_13  and  C_16
REMARK    7  A    between atoms: C_17  and  C_20
REMARK    8  A    between atoms: C_18  and  C_21
REMARK    9  A    between atoms: C_18  and  C_22
REMARK   10  A    between atoms: C_21  and  C_23
REMARK   11  A    between atoms: C_24  and  C_28
REMARK                            x       y       z     vdW  Elec       q    Type
REMARK                         _______ _______ _______ _____ _____    ______ ____
ROOT
ATOM      4  O   UNL     1      11.723  10.891  20.757  0.00  0.00    -0.275 OA
ATOM      7  N   UNL     1      13.603  11.067  19.418  0.00  0.00    -0.287 N 
ATOM     12  C   UNL     1      14.035  10.580  17.138  0.00  0.00    +0.105 C 
ATOM     13  C   UNL     1      13.082  10.291  18.298  0.00  0.00    +0.182 C 
ATOM     14  C   UNL     1      15.357  10.907  17.837  0.00  0.00    +0.043 C 
ATOM     15  C   UNL     1      14.927  11.605  19.121  0.00  0.00    +0.110 C 
ATOM     17  C   UNL     1      12.839  11.364  20.537  0.00  0.00    +0.226 C 
ENDROOT
BRANCH  12   8
ATOM      5  O   UNL     1      14.336  10.945  14.291  0.00  0.00    -0.253 OA
ATOM      8  N   UNL     1      13.568  11.695  16.350  0.00  0.00    -0.294 N 
ATOM     10  N   UNL     1      13.209  12.965  14.467  0.00  0.00    -0.296 N 
ATOM     19  C   UNL     1      13.757  11.790  14.973  0.00  0.00    +0.300 C 
ATOM     31  H   UNL     1      13.018  12.417  16.808  0.00  0.00    +0.151 HD
ATOM     33  H   UNL     1      12.732  13.596  15.105  0.00  0.00    +0.151 HD
BRANCH  10  24
ATOM     24  C   UNL     1      13.264  13.315  13.067  0.00  0.00    +0.132 C 
BRANCH  24  28
ATOM     28  C   UNL     1      11.885  13.270  12.498  0.00  0.00    -0.016 C 
ATOM     30  C   UNL     1      11.126  12.169  12.467  0.00  0.00    +0.005 C 
ENDBRANCH  24  28
ENDBRANCH  10  24
ENDBRANCH  12   8
BRANCH  13  16
ATOM      3  O   UNL     1      12.812   7.944  17.952  0.00  0.00    -0.274 OA
ATOM      9  N   UNL     1      13.574   8.698  20.018  0.00  0.00    -0.302 N 
ATOM     16  C   UNL     1      13.141   8.851  18.712  0.00  0.00    +0.236 C 
ATOM     32  H   UNL     1      13.741   9.528  20.580  0.00  0.00    +0.150 HD
BRANCH   9  18
ATOM     18  C   UNL     1      13.697   7.412  20.666  0.00  0.00    +0.163 C 
BRANCH  18  22
ATOM      6  O   UNL     1      11.799   6.216  21.600  0.00  0.00    -0.274 OA
ATOM     11  N   UNL     1      12.232   8.344  22.348  0.00  0.00    -0.328 N 
ATOM     22  C   UNL     1      12.474   7.241  21.556  0.00  0.00    +0.231 C 
ATOM     34  H   UNL     1      11.454   8.356  23.000  0.00  0.00    +0.145 HD
ATOM     35  H   UNL     1      12.800   9.184  22.304  0.00  0.00    +0.145 HD
ENDBRANCH  18  22
BRANCH  18  21
ATOM     21  C   UNL     1      14.982   7.297  21.494  0.00  0.00    +0.074 C 
BRANCH  21  23
ATOM      2  S   UNL     1      17.715   6.774  21.359  0.00  0.00    -0.102 S 
ATOM     23  C   UNL     1      16.140   6.762  20.686  0.00  0.00    -0.008 A 
ATOM     25  C   UNL     1      16.126   6.235  19.413  0.00  0.00    +0.011 A 
ATOM     27  C   UNL     1      17.424   5.835  18.985  0.00  0.00    +0.008 A 
ATOM     29  C   UNL     1      18.382   6.072  19.946  0.00  0.00    +0.045 A 
ENDBRANCH  21  23
ENDBRANCH  18  21
ENDBRANCH   9  18
ENDBRANCH  13  16
BRANCH  17  20
ATOM     20  C   UNL     1      13.467  12.324  21.516  0.00  0.00    +0.164 C 
BRANCH  20   1
ATOM      1  S   UNL     1      12.147  13.310  22.238  0.00  0.00    -0.155 S 
ATOM     26  C   UNL     1      12.125  12.579  23.894  0.00  0.00    +0.085 C 
ENDBRANCH  20   1
ENDBRANCH  17  20
TORSDOF 10
ENDMDL
MODEL 4
REMARK VINA RESULT:      -5.7     32.854     38.665
REMARK  Name = 11882062
REMARK  11 active torsions:
REMARK  status: ('A' for Active; 'I' for Inactive)
REMARK    1  A    between atoms: S_1  and  C_20
REMARK    2  A    between atoms: S_1  and  C_26
REMARK    3  A    between atoms: N_8  and  C_12
REMARK    4  A    between atoms: N_9  and  C_18
REMARK    5  A    between atoms: N_10  and  C_24
REMARK    6  A    between atoms: C_13  and  C_16
REMARK    7  A    between atoms: C_17  and  C_20
REMARK    8  A    between atoms: C_18  and  C_21
REMARK    9  A    between atoms: C_18  and  C_22
REMARK   10  A    between atoms: C_21  and  C_23
REMARK   11  A    between atoms: C_24  and  C_28
REMARK                            x       y       z     vdW  Elec       q    Type
REMARK                         _______ _______ _______ _____ _____    ______ ____
ROOT
ATOM      4  O   UNL     1     -14.692   2.636  29.894  0.00  0.00    -0.275 OA
ATOM      7  N   UNL     1     -16.069   2.398  28.048  0.00  0.00    -0.287 N 
ATOM     12  C   UNL     1     -16.661   3.832  26.256  0.00  0.00    +0.105 C 
ATOM     13  C   UNL     1     -16.091   3.807  27.674  0.00  0.00    +0.182 C 
ATOM     14  C   UNL     1     -17.541   2.580  26.204  0.00  0.00    +0.043 C 
ATOM     15  C   UNL     1     -16.805   1.581  27.088  0.00  0.00    +0.110 C 
ATOM     17  C   UNL     1     -15.302   1.918  29.100  0.00  0.00    +0.226 C 
ENDROOT
BRANCH  12   8
ATOM      5  O   UNL     1     -16.457   5.375  23.826  0.00  0.00    -0.253 OA
ATOM      8  N   UNL     1     -15.605   3.772  25.273  0.00  0.00    -0.294 N 
ATOM     10  N   UNL     1     -14.457   4.299  23.351  0.00  0.00    -0.296 N 
ATOM     19  C   UNL     1     -15.587   4.558  24.123  0.00  0.00    +0.300 C 
ATOM     31  H   UNL     1     -14.803   3.175  25.457  0.00  0.00    +0.151 HD
ATOM     33  H   UNL     1     -13.782   3.619  23.687  0.00  0.00    +0.151 HD
BRANCH  10  24
ATOM     24  C   UNL     1     -14.189   4.976  22.105  0.00  0.00    +0.132 C 
BRANCH  24  28
ATOM     28  C   UNL     1     -12.754   5.386  22.070  0.00  0.00    -0.016 C 
ATOM     30  C   UNL     1     -12.260   6.299  21.228  0.00  0.00    +0.005 C 
ENDBRANCH  24  28
ENDBRANCH  10  24
ENDBRANCH  12   8
BRANCH  13  16
ATOM      3  O   UNL     1     -18.212   4.265  28.671  0.00  0.00    -0.274 OA
ATOM      9  N   UNL     1     -16.332   5.393  29.454  0.00  0.00    -0.302 N 
ATOM     16  C   UNL     1     -17.005   4.493  28.646  0.00  0.00    +0.236 C 
ATOM     32  H   UNL     1     -15.344   5.557  29.287  0.00  0.00    +0.150 HD
BRANCH   9  18
ATOM     18  C   UNL     1     -16.988   6.199  30.458  0.00  0.00    +0.163 C 
BRANCH  18  22
ATOM      6  O   UNL     1     -16.930   7.978  28.803  0.00  0.00    -0.274 OA
ATOM     11  N   UNL     1     -18.679   7.919  30.291  0.00  0.00    -0.328 N 
ATOM     22  C   UNL     1     -17.493   7.455  29.762  0.00  0.00    +0.231 C 
ATOM     34  H   UNL     1     -19.132   8.743  29.909  0.00  0.00    +0.145 HD
ATOM     35  H   UNL     1     -19.135   7.476  31.082  0.00  0.00    +0.145 HD
ENDBRANCH  18  22
BRANCH  18  21
ATOM     21  C   UNL     1     -16.050   6.567  31.614  0.00  0.00    +0.074 C 
BRANCH  21  23
ATOM      2  S   UNL     1     -16.449   4.114  32.873  0.00  0.00    -0.102 S 
ATOM     23  C   UNL     1     -15.433   5.351  32.262  0.00  0.00    -0.008 A 
ATOM     25  C   UNL     1     -14.098   5.064  32.450  0.00  0.00    +0.011 A 
ATOM     27  C   UNL     1     -13.908   3.813  33.104  0.00  0.00    +0.008 A 
ATOM     29  C   UNL     1     -15.103   3.191  33.391  0.00  0.00    +0.045 A 
ENDBRANCH  21  23
ENDBRANCH  18  21
ENDBRANCH   9  18
ENDBRANCH  13  16
BRANCH  17  20
ATOM     20  C   UNL     1     -15.253   0.417  29.238  0.00  0.00    +0.164 C 
BRANCH  20   1
ATOM      1  S   UNL     1     -13.833   0.008  30.264  0.00  0.00    -0.155 S 
ATOM     26  C   UNL     1     -13.089  -1.267  29.217  0.00  0.00    +0.085 C 
ENDBRANCH  20   1
ENDBRANCH  17  20
TORSDOF 10
ENDMDL
MODEL 5
REMARK VINA RESULT:      -5.7     16.605     21.337
REMARK  Name = 11882062
REMARK  11 active torsions:
REMARK  status: ('A' for Active; 'I' for Inactive)
REMARK    1  A    between atoms: S_1  and  C_20
REMARK    2  A    between atoms: S_1  and  C_26
REMARK    3  A    between atoms: N_8  and  C_12
REMARK    4  A    between atoms: N_9  and  C_18
REMARK    5  A    between atoms: N_10  and  C_24
REMARK    6  A    between atoms: C_13  and  C_16
REMARK    7  A    between atoms: C_17  and  C_20
REMARK    8  A    between atoms: C_18  and  C_21
REMARK    9  A    between atoms: C_18  and  C_22
REMARK   10  A    between atoms: C_21  and  C_23
REMARK   11  A    between atoms: C_24  and  C_28
REMARK                            x       y       z     vdW  Elec       q    Type
REMARK                         _______ _______ _______ _____ _____    ______ ____
ROOT
ATOM      4  O   UNL     1      12.200   7.970  22.099  0.00  0.00    -0.275 OA
ATOM      7  N   UNL     1      14.091   8.717  20.993  0.00  0.00    -0.287 N 
ATOM     12  C   UNL     1      16.224   9.453  21.720  0.00  0.00    +0.105 C 
ATOM     13  C   UNL     1      14.781   9.229  22.171  0.00  0.00    +0.182 C 
ATOM     14  C   UNL     1      16.090   9.718  20.218  0.00  0.00    +0.043 C 
ATOM     15  C   UNL     1      14.918   8.842  19.796  0.00  0.00    +0.110 C 
ATOM     17  C   UNL     1      12.873   8.057  21.071  0.00  0.00    +0.226 C 
ENDROOT
BRANCH  12   8
ATOM      5  O   UNL     1      19.086   9.220  21.427  0.00  0.00    -0.253 OA
ATOM      8  N   UNL     1      17.032   8.285  21.976  0.00  0.00    -0.294 N 
ATOM     10  N   UNL     1      18.942   7.011  22.124  0.00  0.00    -0.296 N 
ATOM     19  C   UNL     1      18.415   8.261  21.808  0.00  0.00    +0.300 C 
ATOM     31  H   UNL     1      16.583   7.457  22.358  0.00  0.00    +0.151 HD
ATOM     33  H   UNL     1      18.312   6.284  22.449  0.00  0.00    +0.151 HD
BRANCH  10  24
ATOM     24  C   UNL     1      20.351   6.711  22.037  0.00  0.00    +0.132 C 
BRANCH  24  28
ATOM     28  C   UNL     1      20.563   5.656  21.002  0.00  0.00    -0.016 C 
ATOM     30  C   UNL     1      21.740   5.413  20.416  0.00  0.00    +0.005 C 
ENDBRANCH  24  28
ENDBRANCH  10  24
ENDBRANCH  12   8
BRANCH  13  16
ATOM      3  O   UNL     1      13.707  11.302  21.670  0.00  0.00    -0.274 OA
ATOM      9  N   UNL     1      14.038  10.715  23.898  0.00  0.00    -0.302 N 
ATOM     16  C   UNL     1      14.111  10.523  22.529  0.00  0.00    +0.236 C 
ATOM     32  H   UNL     1      14.480  10.038  24.512  0.00  0.00    +0.150 HD
BRANCH   9  18
ATOM     18  C   UNL     1      13.459  11.893  24.502  0.00  0.00    +0.163 C 
BRANCH  18  22
ATOM      6  O   UNL     1      13.544  12.754  26.773  0.00  0.00    -0.274 OA
ATOM     11  N   UNL     1      14.860  10.950  26.231  0.00  0.00    -0.328 N 
ATOM     22  C   UNL     1      13.949  11.944  25.942  0.00  0.00    +0.231 C 
ATOM     34  H   UNL     1      15.255  10.862  27.162  0.00  0.00    +0.145 HD
ATOM     35  H   UNL     1      15.183  10.285  25.536  0.00  0.00    +0.145 HD
ENDBRANCH  18  22
BRANCH  18  21
ATOM     21  C   UNL     1      11.926  11.877  24.458  0.00  0.00    +0.074 C 
BRANCH  21  23
ATOM      2  S   UNL     1      12.384  14.361  23.283  0.00  0.00    -0.102 S 
ATOM     23  C   UNL     1      11.351  13.192  23.991  0.00  0.00    -0.008 A 
ATOM     25  C   UNL     1      10.044  13.626  24.050  0.00  0.00    +0.011 A 
ATOM     27  C   UNL     1       9.890  14.934  23.507  0.00  0.00    +0.008 A 
ATOM     29  C   UNL     1      11.083  15.450  23.053  0.00  0.00    +0.045 A 
ENDBRANCH  21  23
ENDBRANCH  18  21
ENDBRANCH   9  18
ENDBRANCH  13  16
BRANCH  17  20
ATOM     20  C   UNL     1      12.388   7.434  19.787  0.00  0.00    +0.164 C 
BRANCH  20   1
ATOM      1  S   UNL     1      11.218   8.574  19.034  0.00  0.00    -0.155 S 
ATOM     26  C   UNL     1      11.968   8.702  17.392  0.00  0.00    +0.085 C 
ENDBRANCH  20   1
ENDBRANCH  17  20
TORSDOF 10
ENDMDL
MODEL 6
REMARK VINA RESULT:      -5.5     26.159     31.083
REMARK  Name = 11882062
REMARK  11 active torsions:
REMARK  status: ('A' for Active; 'I' for Inactive)
REMARK    1  A    between atoms: S_1  and  C_20
REMARK    2  A    between atoms: S_1  and  C_26
REMARK    3  A    between atoms: N_8  and  C_12
REMARK    4  A    between atoms: N_9  and  C_18
REMARK    5  A    between atoms: N_10  and  C_24
REMARK    6  A    between atoms: C_13  and  C_16
REMARK    7  A    between atoms: C_17  and  C_20
REMARK    8  A    between atoms: C_18  and  C_21
REMARK    9  A    between atoms: C_18  and  C_22
REMARK   10  A    between atoms: C_21  and  C_23
REMARK   11  A    between atoms: C_24  and  C_28
REMARK                            x       y       z     vdW  Elec       q    Type
REMARK                         _______ _______ _______ _____ _____    ______ ____
ROOT
ATOM      4  O   UNL     1      -8.088 -11.898  20.047  0.00  0.00    -0.275 OA
ATOM      7  N   UNL     1      -8.031 -12.168  17.748  0.00  0.00    -0.287 N 
ATOM     12  C   UNL     1      -6.906 -11.031  15.998  0.00  0.00    +0.105 C 
ATOM     13  C   UNL     1      -7.370 -10.903  17.449  0.00  0.00    +0.182 C 
ATOM     14  C   UNL     1      -7.908 -12.016  15.390  0.00  0.00    +0.043 C 
ATOM     15  C   UNL     1      -8.234 -12.961  16.539  0.00  0.00    +0.110 C 
ATOM     17  C   UNL     1      -8.271 -12.594  19.046  0.00  0.00    +0.226 C 
ENDROOT
BRANCH  12   8
ATOM      5  O   UNL     1      -4.478  -9.645  16.714  0.00  0.00    -0.253 OA
ATOM      8  N   UNL     1      -5.558 -11.545  15.930  0.00  0.00    -0.294 N 
ATOM     10  N   UNL     1      -3.268 -11.537  16.133  0.00  0.00    -0.296 N 
ATOM     19  C   UNL     1      -4.439 -10.802  16.298  0.00  0.00    +0.300 C 
ATOM     31  H   UNL     1      -5.421 -12.515  15.661  0.00  0.00    +0.151 HD
ATOM     33  H   UNL     1      -3.335 -12.495  15.801  0.00  0.00    +0.151 HD
BRANCH  10  24
ATOM     24  C   UNL     1      -1.961 -11.006  16.441  0.00  0.00    +0.132 C 
BRANCH  24  28
ATOM     28  C   UNL     1      -1.413 -10.324  15.231  0.00  0.00    -0.016 C 
ATOM     30  C   UNL     1      -1.887 -10.507  13.994  0.00  0.00    +0.005 C 
ENDBRANCH  24  28
ENDBRANCH  10  24
ENDBRANCH  12   8
BRANCH  13  16
ATOM      3  O   UNL     1      -8.185  -8.664  17.293  0.00  0.00    -0.274 OA
ATOM      9  N   UNL     1      -9.591 -10.319  18.133  0.00  0.00    -0.302 N 
ATOM     16  C   UNL     1      -8.409  -9.832  17.601  0.00  0.00    +0.236 C 
ATOM     32  H   UNL     1      -9.632 -11.291  18.426  0.00  0.00    +0.150 HD
BRANCH   9  18
ATOM     18  C   UNL     1     -10.741  -9.486  18.400  0.00  0.00    +0.163 C 
BRANCH  18  22
ATOM      6  O   UNL     1     -12.572 -10.334  19.754  0.00  0.00    -0.274 OA
ATOM     11  N   UNL     1     -10.494 -10.143  20.713  0.00  0.00    -0.328 N 
ATOM     22  C   UNL     1     -11.389 -10.013  19.672  0.00  0.00    +0.231 C 
ATOM     34  H   UNL     1     -10.793 -10.498  21.615  0.00  0.00    +0.145 HD
ATOM     35  H   UNL     1      -9.518  -9.878  20.631  0.00  0.00    +0.145 HD
ENDBRANCH  18  22
BRANCH  18  21
ATOM     21  C   UNL     1     -11.747  -9.495  17.243  0.00  0.00    +0.074 C 
BRANCH  21  23
ATOM      2  S   UNL     1     -13.276  -7.803  15.642  0.00  0.00    -0.102 S 
ATOM     23  C   UNL     1     -11.896  -8.137  16.601  0.00  0.00    -0.008 A 
ATOM     25  C   UNL     1     -11.042  -7.057  16.671  0.00  0.00    +0.011 A 
ATOM     27  C   UNL     1     -11.527  -5.943  15.928  0.00  0.00    +0.008 A 
ATOM     29  C   UNL     1     -12.732  -6.212  15.318  0.00  0.00    +0.045 A 
ENDBRANCH  21  23
ENDBRANCH  18  21
ENDBRANCH   9  18
ENDBRANCH  13  16
BRANCH  17  20
ATOM     20  C   UNL     1      -8.796 -14.000  19.182  0.00  0.00    +0.164 C 
BRANCH  20   1
ATOM      1  S   UNL     1     -10.434 -13.904  19.921  0.00  0.00    -0.155 S 
ATOM     26  C   UNL     1     -11.389 -13.516  18.433  0.00  0.00    +0.085 C 
ENDBRANCH  20   1
ENDBRANCH  17  20
TORSDOF 10
ENDMDL
MODEL 7
REMARK VINA RESULT:      -5.3     24.823     26.436
REMARK  Name = 11882062
REMARK  11 active torsions:
REMARK  status: ('A' for Active; 'I' for Inactive)
REMARK    1  A    between atoms: S_1  and  C_20
REMARK    2  A    between atoms: S_1  and  C_26
REMARK    3  A    between atoms: N_8  and  C_12
REMARK    4  A    between atoms: N_9  and  C_18
REMARK    5  A    between atoms: N_10  and  C_24
REMARK    6  A    between atoms: C_13  and  C_16
REMARK    7  A    between atoms: C_17  and  C_20
REMARK    8  A    between atoms: C_18  and  C_21
REMARK    9  A    between atoms: C_18  and  C_22
REMARK   10  A    between atoms: C_21  and  C_23
REMARK   11  A    between atoms: C_24  and  C_28
REMARK                            x       y       z     vdW  Elec       q    Type
REMARK                         _______ _______ _______ _____ _____    ______ ____
ROOT
ATOM      4  O   UNL     1      -3.537 -13.893  12.788  0.00  0.00    -0.275 OA
ATOM      7  N   UNL     1      -2.347 -12.367  14.060  0.00  0.00    -0.287 N 
ATOM     12  C   UNL     1      -2.949 -10.397  15.232  0.00  0.00    +0.105 C 
ATOM     13  C   UNL     1      -3.395 -11.355  14.127  0.00  0.00    +0.182 C 
ATOM     14  C   UNL     1      -1.423 -10.522  15.217  0.00  0.00    +0.043 C 
ATOM     15  C   UNL     1      -1.180 -11.980  14.847  0.00  0.00    +0.110 C 
ATOM     17  C   UNL     1      -2.538 -13.597  13.447  0.00  0.00    +0.226 C 
ENDROOT
BRANCH  12   8
ATOM      5  O   UNL     1      -5.455  -9.550  16.384  0.00  0.00    -0.253 OA
ATOM      8  N   UNL     1      -3.496 -10.790  16.508  0.00  0.00    -0.294 N 
ATOM     10  N   UNL     1      -5.005 -10.865  18.242  0.00  0.00    -0.296 N 
ATOM     19  C   UNL     1      -4.721 -10.330  16.988  0.00  0.00    +0.300 C 
ATOM     31  H   UNL     1      -2.997 -11.484  17.058  0.00  0.00    +0.151 HD
ATOM     33  H   UNL     1      -4.346 -11.517  18.655  0.00  0.00    +0.151 HD
BRANCH  10  24
ATOM     24  C   UNL     1      -6.213 -10.554  18.969  0.00  0.00    +0.132 C 
BRANCH  24  28
ATOM     28  C   UNL     1      -6.625 -11.749  19.765  0.00  0.00    -0.016 C 
ATOM     30  C   UNL     1      -7.717 -12.476  19.506  0.00  0.00    +0.005 C 
ENDBRANCH  24  28
ENDBRANCH  10  24
ENDBRANCH  12   8
BRANCH  13  16
ATOM      3  O   UNL     1      -2.440 -10.084  12.345  0.00  0.00    -0.274 OA
ATOM      9  N   UNL     1      -4.651 -10.789  12.167  0.00  0.00    -0.302 N 
ATOM     16  C   UNL     1      -3.419 -10.677  12.789  0.00  0.00    +0.236 C 
ATOM     32  H   UNL     1      -5.415 -11.234  12.668  0.00  0.00    +0.150 HD
BRANCH   9  18
ATOM     18  C   UNL     1      -4.943 -10.203  10.879  0.00  0.00    +0.163 C 
BRANCH  18  22
ATOM      6  O   UNL     1      -5.128  -7.817  10.457  0.00  0.00    -0.274 OA
ATOM     11  N   UNL     1      -6.348  -8.726  12.179  0.00  0.00    -0.328 N 
ATOM     22  C   UNL     1      -5.449  -8.790  11.135  0.00  0.00    +0.231 C 
ATOM     34  H   UNL     1      -6.773  -7.843  12.445  0.00  0.00    +0.145 HD
ATOM     35  H   UNL     1      -6.607  -9.538  12.728  0.00  0.00    +0.145 HD
ENDBRANCH  18  22
BRANCH  18  21
ATOM     21  C   UNL     1      -5.985 -11.010  10.095  0.00  0.00    +0.074 C 
BRANCH  21  23
ATOM      2  S   UNL     1      -6.852  -9.829   7.725  0.00  0.00    -0.102 S 
ATOM     23  C   UNL     1      -5.812 -10.871   8.601  0.00  0.00    -0.008 A 
ATOM     25  C   UNL     1      -4.893 -11.491   7.783  0.00  0.00    +0.011 A 
ATOM     27  C   UNL     1      -5.044 -11.105   6.420  0.00  0.00    +0.008 A 
ATOM     29  C   UNL     1      -6.073 -10.205   6.247  0.00  0.00    +0.045 A 
ENDBRANCH  21  23
ENDBRANCH  18  21
ENDBRANCH   9  18
ENDBRANCH  13  16
BRANCH  17  20
ATOM     20  C   UNL     1      -1.420 -14.593  13.624  0.00  0.00    +0.164 C 
BRANCH  20   1
ATOM      1  S   UNL     1      -2.055 -16.215  13.174  0.00  0.00    -0.155 S 
ATOM     26  C   UNL     1      -1.238 -16.400  11.570  0.00  0.00    +0.085 C 
ENDBRANCH  20   1
ENDBRANCH  17  20
TORSDOF 10
ENDMDL
MODEL 8
REMARK VINA RESULT:      -5.3     34.193     39.148
REMARK  Name = 11882062
REMARK  11 active torsions:
REMARK  status: ('A' for Active; 'I' for Inactive)
REMARK    1  A    between atoms: S_1  and  C_20
REMARK    2  A    between atoms: S_1  and  C_26
REMARK    3  A    between atoms: N_8  and  C_12
REMARK    4  A    between atoms: N_9  and  C_18
REMARK    5  A    between atoms: N_10  and  C_24
REMARK    6  A    between atoms: C_13  and  C_16
REMARK    7  A    between atoms: C_17  and  C_20
REMARK    8  A    between atoms: C_18  and  C_21
REMARK    9  A    between atoms: C_18  and  C_22
REMARK   10  A    between atoms: C_21  and  C_23
REMARK   11  A    between atoms: C_24  and  C_28
REMARK                            x       y       z     vdW  Elec       q    Type
REMARK                         _______ _______ _______ _____ _____    ______ ____
ROOT
ATOM      4  O   UNL     1     -13.413   2.673  30.562  0.00  0.00    -0.275 OA
ATOM      7  N   UNL     1     -15.192   2.104  29.194  0.00  0.00    -0.287 N 
ATOM     12  C   UNL     1     -16.451   3.291  27.574  0.00  0.00    +0.105 C 
ATOM     13  C   UNL     1     -15.518   3.462  28.773  0.00  0.00    +0.182 C 
ATOM     14  C   UNL     1     -17.121   1.940  27.834  0.00  0.00    +0.043 C 
ATOM     15  C   UNL     1     -16.036   1.121  28.522  0.00  0.00    +0.110 C 
ATOM     17  C   UNL     1     -14.106   1.818  30.008  0.00  0.00    +0.226 C 
ENDROOT
BRANCH  12   8
ATOM      5  O   UNL     1     -16.986   4.849  25.205  0.00  0.00    -0.253 OA
ATOM      8  N   UNL     1     -15.706   3.279  26.337  0.00  0.00    -0.294 N 
ATOM     10  N   UNL     1     -15.155   3.858  24.181  0.00  0.00    -0.296 N 
ATOM     19  C   UNL     1     -16.037   4.068  25.238  0.00  0.00    +0.300 C 
ATOM     31  H   UNL     1     -14.862   2.715  26.284  0.00  0.00    +0.151 HD
ATOM     33  H   UNL     1     -14.387   3.206  24.308  0.00  0.00    +0.151 HD
BRANCH  10  24
ATOM     24  C   UNL     1     -15.269   4.550  22.919  0.00  0.00    +0.132 C 
BRANCH  24  28
ATOM     28  C   UNL     1     -14.117   5.489  22.771  0.00  0.00    -0.016 C 
ATOM     30  C   UNL     1     -13.727   6.012  21.604  0.00  0.00    +0.005 C 
ENDBRANCH  24  28
ENDBRANCH  10  24
ENDBRANCH  12   8
BRANCH  13  16
ATOM      3  O   UNL     1     -16.851   3.454  30.754  0.00  0.00    -0.274 OA
ATOM      9  N   UNL     1     -16.086   5.488  29.918  0.00  0.00    -0.302 N 
ATOM     16  C   UNL     1     -16.221   4.110  29.928  0.00  0.00    +0.236 C 
ATOM     32  H   UNL     1     -15.609   5.928  29.137  0.00  0.00    +0.150 HD
BRANCH   9  18
ATOM     18  C   UNL     1     -16.689   6.349  30.910  0.00  0.00    +0.163 C 
BRANCH  18  22
ATOM      6  O   UNL     1     -18.456   7.288  29.530  0.00  0.00    -0.274 OA
ATOM     11  N   UNL     1     -19.036   5.875  31.246  0.00  0.00    -0.328 N 
ATOM     22  C   UNL     1     -18.131   6.582  30.482  0.00  0.00    +0.231 C 
ATOM     34  H   UNL     1     -20.032   5.929  31.056  0.00  0.00    +0.145 HD
ATOM     35  H   UNL     1     -18.754   5.292  32.028  0.00  0.00    +0.145 HD
ENDBRANCH  18  22
BRANCH  18  21
ATOM     21  C   UNL     1     -15.950   7.685  31.048  0.00  0.00    +0.074 C 
BRANCH  21  23
ATOM      2  S   UNL     1     -15.125   6.632  33.492  0.00  0.00    -0.102 S 
ATOM     23  C   UNL     1     -14.900   7.651  32.133  0.00  0.00    -0.008 A 
ATOM     25  C   UNL     1     -13.718   8.355  32.205  0.00  0.00    +0.011 A 
ATOM     27  C   UNL     1     -12.988   8.054  33.391  0.00  0.00    +0.008 A 
ATOM     29  C   UNL     1     -13.638   7.132  34.180  0.00  0.00    +0.045 A 
ENDBRANCH  21  23
ENDBRANCH  18  21
ENDBRANCH   9  18
ENDBRANCH  13  16
BRANCH  17  20
ATOM     20  C   UNL     1     -13.806   0.353  30.200  0.00  0.00    +0.164 C 
BRANCH  20   1
ATOM      1  S   UNL     1     -14.968  -0.289  31.414  0.00  0.00    -0.155 S 
ATOM     26  C   UNL     1     -14.784   0.990  32.681  0.00  0.00    +0.085 C 
ENDBRANCH  20   1
ENDBRANCH  17  20
TORSDOF 10
ENDMDL
MODEL 9
REMARK VINA RESULT:      -5.2     24.251     28.020
REMARK  Name = 11882062
REMARK  11 active torsions:
REMARK  status: ('A' for Active; 'I' for Inactive)
REMARK    1  A    between atoms: S_1  and  C_20
REMARK    2  A    between atoms: S_1  and  C_26
REMARK    3  A    between atoms: N_8  and  C_12
REMARK    4  A    between atoms: N_9  and  C_18
REMARK    5  A    between atoms: N_10  and  C_24
REMARK    6  A    between atoms: C_13  and  C_16
REMARK    7  A    between atoms: C_17  and  C_20
REMARK    8  A    between atoms: C_18  and  C_21
REMARK    9  A    between atoms: C_18  and  C_22
REMARK   10  A    between atoms: C_21  and  C_23
REMARK   11  A    between atoms: C_24  and  C_28
REMARK                            x       y       z     vdW  Elec       q    Type
REMARK                         _______ _______ _______ _____ _____    ______ ____
ROOT
ATOM      4  O   UNL     1      -4.664  -9.962  13.528  0.00  0.00    -0.275 OA
ATOM      7  N   UNL     1      -6.138 -10.702  11.903  0.00  0.00    -0.287 N 
ATOM     12  C   UNL     1      -8.191  -9.869  11.060  0.00  0.00    +0.105 C 
ATOM     13  C   UNL     1      -7.231  -9.799  12.248  0.00  0.00    +0.182 C 
ATOM     14  C   UNL     1      -7.948 -11.267  10.487  0.00  0.00    +0.043 C 
ATOM     15  C   UNL     1      -6.463 -11.507  10.729  0.00  0.00    +0.110 C 
ATOM     17  C   UNL     1      -4.905 -10.654  12.537  0.00  0.00    +0.226 C 
ENDROOT
BRANCH  12   8
ATOM      5  O   UNL     1     -10.077  -8.211   9.638  0.00  0.00    -0.253 OA
ATOM      8  N   UNL     1      -7.889  -8.843  10.091  0.00  0.00    -0.294 N 
ATOM     10  N   UNL     1      -8.302  -7.173   8.564  0.00  0.00    -0.296 N 
ATOM     19  C   UNL     1      -8.868  -8.087   9.449  0.00  0.00    +0.300 C 
ATOM     31  H   UNL     1      -6.915  -8.616   9.911  0.00  0.00    +0.151 HD
ATOM     33  H   UNL     1      -7.290  -7.130   8.489  0.00  0.00    +0.151 HD
BRANCH  10  24
ATOM     24  C   UNL     1      -9.090  -6.263   7.768  0.00  0.00    +0.132 C 
BRANCH  24  28
ATOM     28  C   UNL     1      -9.276  -4.988   8.523  0.00  0.00    -0.016 C 
ATOM     30  C   UNL     1     -10.456  -4.559   8.982  0.00  0.00    +0.005 C 
ENDBRANCH  24  28
ENDBRANCH  10  24
ENDBRANCH  12   8
BRANCH  13  16
ATOM      3  O   UNL     1      -8.569 -11.348  13.477  0.00  0.00    -0.274 OA
ATOM      9  N   UNL     1      -7.557  -9.584  14.611  0.00  0.00    -0.302 N 
ATOM     16  C   UNL     1      -7.858 -10.346  13.495  0.00  0.00    +0.236 C 
ATOM     32  H   UNL     1      -7.025  -8.728  14.491  0.00  0.00    +0.150 HD
BRANCH   9  18
ATOM     18  C   UNL     1      -8.059  -9.885  15.933  0.00  0.00    +0.163 C 
BRANCH  18  22
ATOM      6  O   UNL     1      -9.636  -8.059  16.222  0.00  0.00    -0.274 OA
ATOM     11  N   UNL     1     -10.458 -10.174  15.859  0.00  0.00    -0.328 N 
ATOM     22  C   UNL     1      -9.442  -9.259  16.040  0.00  0.00    +0.231 C 
ATOM     34  H   UNL     1     -11.430  -9.885  15.891  0.00  0.00    +0.145 HD
ATOM     35  H   UNL     1     -10.283 -11.162  15.706  0.00  0.00    +0.145 HD
ENDBRANCH  18  22
BRANCH  18  21
ATOM     21  C   UNL     1      -7.142  -9.349  17.039  0.00  0.00    +0.074 C 
BRANCH  21  23
ATOM      2  S   UNL     1      -5.764 -11.759  16.798  0.00  0.00    -0.102 S 
ATOM     23  C   UNL     1      -6.365 -10.449  17.723  0.00  0.00    -0.008 A 
ATOM     25  C   UNL     1      -6.045 -10.570  19.059  0.00  0.00    +0.011 A 
ATOM     27  C   UNL     1      -5.298 -11.753  19.324  0.00  0.00    +0.008 A 
ATOM     29  C   UNL     1      -5.074 -12.491  18.183  0.00  0.00    +0.045 A 
ENDBRANCH  21  23
ENDBRANCH  18  21
ENDBRANCH   9  18
ENDBRANCH  13  16
BRANCH  17  20
ATOM     20  C   UNL     1      -3.833 -11.530  11.940  0.00  0.00    +0.164 C 
BRANCH  20   1
ATOM      1  S   UNL     1      -2.404 -10.490  11.599  0.00  0.00    -0.155 S 
ATOM     26  C   UNL     1      -3.132  -9.420  10.333  0.00  0.00    +0.085 C 
ENDBRANCH  20   1
ENDBRANCH  17  20
TORSDOF 10
ENDMDL
MODEL 10
REMARK VINA RESULT:      -5.2     18.473     20.719
REMARK  Name = 11882062
REMARK  11 active torsions:
REMARK  status: ('A' for Active; 'I' for Inactive)
REMARK    1  A    between atoms: S_1  and  C_20
REMARK    2  A    between atoms: S_1  and  C_26
REMARK    3  A    between atoms: N_8  and  C_12
REMARK    4  A    between atoms: N_9  and  C_18
REMARK    5  A    between atoms: N_10  and  C_24
REMARK    6  A    between atoms: C_13  and  C_16
REMARK    7  A    between atoms: C_17  and  C_20
REMARK    8  A    between atoms: C_18  and  C_21
REMARK    9  A    between atoms: C_18  and  C_22
REMARK   10  A    between atoms: C_21  and  C_23
REMARK   11  A    between atoms: C_24  and  C_28
REMARK                            x       y       z     vdW  Elec       q    Type
REMARK                         _______ _______ _______ _____ _____    ______ ____
ROOT
ATOM      4  O   UNL     1      20.888   6.189  24.446  0.00  0.00    -0.275 OA
ATOM      7  N   UNL     1      19.919   7.705  22.989  0.00  0.00    -0.287 N 
ATOM     12  C   UNL     1      18.548   7.477  21.068  0.00  0.00    +0.105 C 
ATOM     13  C   UNL     1      19.532   6.734  21.972  0.00  0.00    +0.182 C 
ATOM     14  C   UNL     1      18.974   8.941  21.205  0.00  0.00    +0.043 C 
ATOM     15  C   UNL     1      19.456   9.047  22.647  0.00  0.00    +0.110 C 
ATOM     17  C   UNL     1      20.508   7.333  24.188  0.00  0.00    +0.226 C 
ENDROOT
BRANCH  12   8
ATOM      5  O   UNL     1      16.200   7.186  19.416  0.00  0.00    -0.253 OA
ATOM      8  N   UNL     1      17.189   7.282  21.514  0.00  0.00    -0.294 N 
ATOM     10  N   UNL     1      14.917   6.974  21.337  0.00  0.00    -0.296 N 
ATOM     19  C   UNL     1      16.111   7.150  20.642  0.00  0.00    +0.300 C 
ATOM     31  H   UNL     1      17.015   7.172  22.510  0.00  0.00    +0.151 HD
ATOM     33  H   UNL     1      14.943   6.939  22.352  0.00  0.00    +0.151 HD
BRANCH  10  24
ATOM     24  C   UNL     1      13.643   6.812  20.676  0.00  0.00    +0.132 C 
BRANCH  24  28
ATOM     28  C   UNL     1      12.554   7.236  21.605  0.00  0.00    -0.016 C 
ATOM     30  C   UNL     1      11.329   6.701  21.611  0.00  0.00    +0.005 C 
ENDBRANCH  24  28
ENDBRANCH  10  24
ENDBRANCH  12   8
BRANCH  13  16
ATOM      3  O   UNL     1      21.253   7.085  20.354  0.00  0.00    -0.274 OA
ATOM      9  N   UNL     1      21.302   5.152  21.650  0.00  0.00    -0.302 N 
ATOM     16  C   UNL     1      20.786   6.367  21.234  0.00  0.00    +0.236 C 
ATOM     32  H   UNL     1      20.784   4.606  22.331  0.00  0.00    +0.150 HD
BRANCH   9  18
ATOM     18  C   UNL     1      22.492   4.561  21.080  0.00  0.00    +0.163 C 
BRANCH  18  22
ATOM      6  O   UNL     1      22.485   2.740  22.688  0.00  0.00    -0.274 OA
ATOM     11  N   UNL     1      22.538   2.228  20.449  0.00  0.00    -0.328 N 
ATOM     22  C   UNL     1      22.520   3.103  21.515  0.00  0.00    +0.231 C 
ATOM     34  H   UNL     1      22.542   1.224  20.600  0.00  0.00    +0.145 HD
ATOM     35  H   UNL     1      22.563   2.542  19.484  0.00  0.00    +0.145 HD
ENDBRANCH  18  22
BRANCH  18  21
ATOM     21  C   UNL     1      23.770   5.279  21.529  0.00  0.00    +0.074 C 
BRANCH  21  23
ATOM      2  S   UNL     1      26.244   4.051  21.896  0.00  0.00    -0.102 S 
ATOM     23  C   UNL     1      25.010   4.692  20.897  0.00  0.00    -0.008 A 
ATOM     25  C   UNL     1      25.322   4.587  19.558  0.00  0.00    +0.011 A 
ATOM     27  C   UNL     1      26.590   3.973  19.352  0.00  0.00    +0.008 A 
ATOM     29  C   UNL     1      27.200   3.631  20.539  0.00  0.00    +0.045 A 
ENDBRANCH  21  23
ENDBRANCH  18  21
ENDBRANCH   9  18
ENDBRANCH  13  16
BRANCH  17  20
ATOM     20  C   UNL     1      20.678   8.438  25.200  0.00  0.00    +0.164 C 
BRANCH  20   1
ATOM      1  S   UNL     1      22.414   8.907  25.212  0.00  0.00    -0.155 S 
ATOM     26  C   UNL     1      22.225  10.687  24.944  0.00  0.00    +0.085 C 
ENDBRANCH  20   1
ENDBRANCH  17  20
TORSDOF 10
ENDMDL
