MODEL 1
REMARK VINA RESULT:      -7.4      0.000      0.000
REMARK  Name = 11865816
REMARK  11 active torsions:
REMARK  status: ('A' for Active; 'I' for Inactive)
REMARK    1  A    between atoms: S_1  and  C_18
REMARK    2  A    between atoms: S_1  and  C_25
REMARK    3  A    between atoms: N_7  and  C_11
REMARK    4  A    between atoms: N_8  and  C_19
REMARK    5  A    between atoms: N_8  and  C_20
REMARK    6  A    between atoms: N_9  and  C_21
REMARK    7  A    between atoms: C_12  and  C_15
REMARK    8  A    between atoms: C_16  and  C_18
REMARK    9  A    between atoms: C_19  and  C_22
REMARK   10  A    between atoms: C_21  and  C_23
REMARK   11  A    between atoms: C_21  and  C_24
REMARK                            x       y       z     vdW  Elec       q    Type
REMARK                         _______ _______ _______ _____ _____    ______ ____
ROOT
ATOM      3  O   UNL     1      11.951  10.996  21.092  0.00  0.00    -0.275 OA
ATOM      6  N   UNL     1      11.657   8.717  21.370  0.00  0.00    -0.287 N 
ATOM     11  C   UNL     1      12.738   6.809  20.469  0.00  0.00    +0.105 C 
ATOM     12  C   UNL     1      12.499   8.303  20.252  0.00  0.00    +0.182 C 
ATOM     13  C   UNL     1      11.498   6.358  21.246  0.00  0.00    +0.043 C 
ATOM     14  C   UNL     1      11.153   7.563  22.111  0.00  0.00    +0.110 C 
ATOM     16  C   UNL     1      11.513  10.045  21.742  0.00  0.00    +0.226 C 
ENDROOT
BRANCH  11   7
ATOM      4  O   UNL     1      15.454   7.084  19.536  0.00  0.00    -0.253 OA
ATOM      7  N   UNL     1      13.945   6.583  21.228  0.00  0.00    -0.294 N 
ATOM      9  N   UNL     1      16.204   6.458  21.641  0.00  0.00    -0.297 N 
ATOM     17  C   UNL     1      15.222   6.740  20.694  0.00  0.00    +0.300 C 
ATOM     26  H   UNL     1      13.863   6.223  22.174  0.00  0.00    +0.151 HD
ATOM     27  H   UNL     1      15.912   6.256  22.592  0.00  0.00    +0.150 HD
BRANCH   9  21
ATOM     21  C   UNL     1      17.616   6.542  21.353  0.00  0.00    +0.068 C 
ATOM     23  C   UNL     1      17.925   5.904  20.004  0.00  0.00    +0.027 C 
ATOM     24  C   UNL     1      18.081   7.992  21.398  0.00  0.00    +0.027 C 
ENDBRANCH   9  21
ENDBRANCH  11   7
BRANCH  12  15
ATOM      2  O   UNL     1      10.497   8.311  18.998  0.00  0.00    -0.273 OA
ATOM      8  N   UNL     1      12.409   9.068  17.912  0.00  0.00    -0.294 N 
ATOM     15  C   UNL     1      11.706   8.558  19.005  0.00  0.00    +0.238 C 
ATOM     20  C   UNL     1      13.838   9.344  17.963  0.00  0.00    +0.132 C 
BRANCH   8  19
ATOM     19  C   UNL     1      11.761   9.362  16.636  0.00  0.00    +0.202 C 
BRANCH  19  22
ATOM      5  O   UNL     1      13.414   8.544  15.069  0.00  0.00    -0.274 OA
ATOM     10  N   UNL     1      13.036  10.808  15.204  0.00  0.00    -0.328 N 
ATOM     22  C   UNL     1      12.806   9.494  15.552  0.00  0.00    +0.228 C 
ATOM     28  H   UNL     1      12.537  11.581  15.630  0.00  0.00    +0.145 HD
ATOM     29  H   UNL     1      13.724  11.045  14.497  0.00  0.00    +0.145 HD
ENDBRANCH  19  22
ENDBRANCH   8  19
ENDBRANCH  12  15
BRANCH  16  18
ATOM     18  C   UNL     1      10.755  10.284  23.024  0.00  0.00    +0.164 C 
BRANCH  18   1
ATOM      1  S   UNL     1      11.708  11.443  24.014  0.00  0.00    -0.155 S 
ATOM     25  C   UNL     1      10.529  12.817  24.046  0.00  0.00    +0.085 C 
ENDBRANCH  18   1
ENDBRANCH  16  18
TORSDOF 7
ENDMDL
MODEL 2
REMARK VINA RESULT:      -6.2      2.582      3.808
REMARK  Name = 11865816
REMARK  11 active torsions:
REMARK  status: ('A' for Active; 'I' for Inactive)
REMARK    1  A    between atoms: S_1  and  C_18
REMARK    2  A    between atoms: S_1  and  C_25
REMARK    3  A    between atoms: N_7  and  C_11
REMARK    4  A    between atoms: N_8  and  C_19
REMARK    5  A    between atoms: N_8  and  C_20
REMARK    6  A    between atoms: N_9  and  C_21
REMARK    7  A    between atoms: C_12  and  C_15
REMARK    8  A    between atoms: C_16  and  C_18
REMARK    9  A    between atoms: C_19  and  C_22
REMARK   10  A    between atoms: C_21  and  C_23
REMARK   11  A    between atoms: C_21  and  C_24
REMARK                            x       y       z     vdW  Elec       q    Type
REMARK                         _______ _______ _______ _____ _____    ______ ____
ROOT
ATOM      3  O   UNL     1      12.399   9.984  20.372  0.00  0.00    -0.275 OA
ATOM      6  N   UNL     1      14.074   8.522  21.015  0.00  0.00    -0.287 N 
ATOM     11  C   UNL     1      16.398   8.399  20.564  0.00  0.00    +0.105 C 
ATOM     12  C   UNL     1      15.079   8.994  20.069  0.00  0.00    +0.182 C 
ATOM     13  C   UNL     1      15.965   7.124  21.290  0.00  0.00    +0.043 C 
ATOM     14  C   UNL     1      14.617   7.491  21.897  0.00  0.00    +0.110 C 
ATOM     16  C   UNL     1      12.826   9.116  21.135  0.00  0.00    +0.226 C 
ENDROOT
BRANCH  11   7
ATOM      4  O   UNL     1      19.180   8.345  21.329  0.00  0.00    -0.253 OA
ATOM      7  N   UNL     1      17.072   9.311  21.458  0.00  0.00    -0.294 N 
ATOM      9  N   UNL     1      18.815  10.212  22.657  0.00  0.00    -0.297 N 
ATOM     17  C   UNL     1      18.425   9.209  21.774  0.00  0.00    +0.300 C 
ATOM     26  H   UNL     1      16.520  10.016  21.938  0.00  0.00    +0.151 HD
ATOM     27  H   UNL     1      18.136  10.925  22.907  0.00  0.00    +0.150 HD
BRANCH   9  21
ATOM     21  C   UNL     1      20.167  10.341  23.148  0.00  0.00    +0.068 C 
ATOM     23  C   UNL     1      20.992  11.221  22.217  0.00  0.00    +0.027 C 
ATOM     24  C   UNL     1      20.164  10.889  24.569  0.00  0.00    +0.027 C 
ENDBRANCH   9  21
ENDBRANCH  11   7
BRANCH  12  15
ATOM      2  O   UNL     1      14.570   7.220  18.594  0.00  0.00    -0.273 OA
ATOM      8  N   UNL     1      14.505   9.367  17.702  0.00  0.00    -0.294 N 
ATOM     15  C   UNL     1      14.696   8.441  18.729  0.00  0.00    +0.238 C 
ATOM     20  C   UNL     1      14.666  10.800  17.905  0.00  0.00    +0.132 C 
BRANCH   8  19
ATOM     19  C   UNL     1      14.130   8.965  16.348  0.00  0.00    +0.202 C 
BRANCH  19  22
ATOM      5  O   UNL     1      12.051   9.292  15.151  0.00  0.00    -0.274 OA
ATOM     10  N   UNL     1      11.975   8.767  17.388  0.00  0.00    -0.328 N 
ATOM     22  C   UNL     1      12.627   9.016  16.199  0.00  0.00    +0.228 C 
ATOM     28  H   UNL     1      12.469   8.560  18.249  0.00  0.00    +0.145 HD
ATOM     29  H   UNL     1      10.961   8.783  17.439  0.00  0.00    +0.145 HD
ENDBRANCH  19  22
ENDBRANCH   8  19
ENDBRANCH  12  15
BRANCH  16  18
ATOM     18  C   UNL     1      11.977   8.624  22.280  0.00  0.00    +0.164 C 
BRANCH  18   1
ATOM      1  S   UNL     1      10.572   7.748  21.581  0.00  0.00    -0.155 S 
ATOM     25  C   UNL     1      11.279   6.083  21.527  0.00  0.00    +0.085 C 
ENDBRANCH  18   1
ENDBRANCH  16  18
TORSDOF 7
ENDMDL
MODEL 3
REMARK VINA RESULT:      -6.1      2.802      5.935
REMARK  Name = 11865816
REMARK  11 active torsions:
REMARK  status: ('A' for Active; 'I' for Inactive)
REMARK    1  A    between atoms: S_1  and  C_18
REMARK    2  A    between atoms: S_1  and  C_25
REMARK    3  A    between atoms: N_7  and  C_11
REMARK    4  A    between atoms: N_8  and  C_19
REMARK    5  A    between atoms: N_8  and  C_20
REMARK    6  A    between atoms: N_9  and  C_21
REMARK    7  A    between atoms: C_12  and  C_15
REMARK    8  A    between atoms: C_16  and  C_18
REMARK    9  A    between atoms: C_19  and  C_22
REMARK   10  A    between atoms: C_21  and  C_23
REMARK   11  A    between atoms: C_21  and  C_24
REMARK                            x       y       z     vdW  Elec       q    Type
REMARK                         _______ _______ _______ _____ _____    ______ ____
ROOT
ATOM      3  O   UNL     1      11.143  11.022  22.067  0.00  0.00    -0.275 OA
ATOM      6  N   UNL     1      13.202  11.415  21.084  0.00  0.00    -0.287 N 
ATOM     11  C   UNL     1      14.135  10.870  18.974  0.00  0.00    +0.105 C 
ATOM     12  C   UNL     1      13.026  10.501  19.960  0.00  0.00    +0.182 C 
ATOM     13  C   UNL     1      15.234  11.444  19.871  0.00  0.00    +0.043 C 
ATOM     14  C   UNL     1      14.467  12.139  20.988  0.00  0.00    +0.110 C 
ATOM     16  C   UNL     1      12.200  11.653  22.014  0.00  0.00    +0.226 C 
ENDROOT
BRANCH  11   7
ATOM      4  O   UNL     1      15.217  11.382  16.348  0.00  0.00    -0.253 OA
ATOM      7  N   UNL     1      13.672  11.848  18.018  0.00  0.00    -0.294 N 
ATOM      9  N   UNL     1      13.616  13.035  16.050  0.00  0.00    -0.297 N 
ATOM     17  C   UNL     1      14.258  12.029  16.767  0.00  0.00    +0.300 C 
ATOM     26  H   UNL     1      12.931  12.485  18.297  0.00  0.00    +0.151 HD
ATOM     27  H   UNL     1      12.785  13.459  16.451  0.00  0.00    +0.150 HD
BRANCH   9  21
ATOM     21  C   UNL     1      14.021  13.429  14.720  0.00  0.00    +0.068 C 
ATOM     23  C   UNL     1      13.275  12.612  13.672  0.00  0.00    +0.027 C 
ATOM     24  C   UNL     1      13.800  14.922  14.519  0.00  0.00    +0.027 C 
ENDBRANCH   9  21
ENDBRANCH  11   7
BRANCH  12  15
ATOM      2  O   UNL     1      14.094   8.912  21.343  0.00  0.00    -0.273 OA
ATOM      8  N   UNL     1      12.357   8.130  20.010  0.00  0.00    -0.294 N 
ATOM     15  C   UNL     1      13.213   9.116  20.504  0.00  0.00    +0.238 C 
ATOM     20  C   UNL     1      11.330   8.416  19.017  0.00  0.00    +0.132 C 
BRANCH   8  19
ATOM     19  C   UNL     1      12.429   6.740  20.453  0.00  0.00    +0.202 C 
BRANCH  19  22
ATOM      5  O   UNL     1      10.764   7.257  22.132  0.00  0.00    -0.274 OA
ATOM     10  N   UNL     1      10.870   5.119  21.294  0.00  0.00    -0.328 N 
ATOM     22  C   UNL     1      11.268   6.437  21.371  0.00  0.00    +0.228 C 
ATOM     28  H   UNL     1      11.313   4.450  20.673  0.00  0.00    +0.145 HD
ATOM     29  H   UNL     1      10.108   4.772  21.867  0.00  0.00    +0.145 HD
ENDBRANCH  19  22
ENDBRANCH   8  19
ENDBRANCH  12  15
BRANCH  16  18
ATOM     18  C   UNL     1      12.479  12.756  23.004  0.00  0.00    +0.164 C 
BRANCH  18   1
ATOM      1  S   UNL     1      12.136  12.114  24.648  0.00  0.00    -0.155 S 
ATOM     25  C   UNL     1      10.579  12.982  24.967  0.00  0.00    +0.085 C 
ENDBRANCH  18   1
ENDBRANCH  16  18
TORSDOF 7
ENDMDL
MODEL 4
REMARK VINA RESULT:      -6.0     25.934     27.790
REMARK  Name = 11865816
REMARK  11 active torsions:
REMARK  status: ('A' for Active; 'I' for Inactive)
REMARK    1  A    between atoms: S_1  and  C_18
REMARK    2  A    between atoms: S_1  and  C_25
REMARK    3  A    between atoms: N_7  and  C_11
REMARK    4  A    between atoms: N_8  and  C_19
REMARK    5  A    between atoms: N_8  and  C_20
REMARK    6  A    between atoms: N_9  and  C_21
REMARK    7  A    between atoms: C_12  and  C_15
REMARK    8  A    between atoms: C_16  and  C_18
REMARK    9  A    between atoms: C_19  and  C_22
REMARK   10  A    between atoms: C_21  and  C_23
REMARK   11  A    between atoms: C_21  and  C_24
REMARK                            x       y       z     vdW  Elec       q    Type
REMARK                         _______ _______ _______ _____ _____    ______ ____
ROOT
ATOM      3  O   UNL     1      -3.754 -13.553  11.649  0.00  0.00    -0.275 OA
ATOM      6  N   UNL     1      -2.569 -12.498  13.334  0.00  0.00    -0.287 N 
ATOM     11  C   UNL     1      -3.045 -10.672  14.770  0.00  0.00    +0.105 C 
ATOM     12  C   UNL     1      -3.446 -11.337  13.453  0.00  0.00    +0.182 C 
ATOM     13  C   UNL     1      -1.575 -11.065  14.936  0.00  0.00    +0.043 C 
ATOM     14  C   UNL     1      -1.501 -12.460  14.331  0.00  0.00    +0.110 C 
ATOM     16  C   UNL     1      -2.844 -13.554  12.479  0.00  0.00    +0.226 C 
ENDROOT
BRANCH  11   7
ATOM      4  O   UNL     1      -5.458  -9.493  15.826  0.00  0.00    -0.253 OA
ATOM      7  N   UNL     1      -3.848 -11.166  15.864  0.00  0.00    -0.294 N 
ATOM      9  N   UNL     1      -5.581 -11.216  17.375  0.00  0.00    -0.297 N 
ATOM     17  C   UNL     1      -5.004 -10.529  16.310  0.00  0.00    +0.300 C 
ATOM     26  H   UNL     1      -3.518 -11.976  16.380  0.00  0.00    +0.151 HD
ATOM     27  H   UNL     1      -5.174 -12.104  17.653  0.00  0.00    +0.150 HD
BRANCH   9  21
ATOM     21  C   UNL     1      -6.789 -10.774  18.029  0.00  0.00    +0.068 C 
ATOM     23  C   UNL     1      -7.890 -11.817  17.880  0.00  0.00    +0.027 C 
ATOM     24  C   UNL     1      -6.516 -10.464  19.495  0.00  0.00    +0.027 C 
ENDBRANCH   9  21
ENDBRANCH  11   7
BRANCH  12  15
ATOM      2  O   UNL     1      -1.973 -10.280  11.939  0.00  0.00    -0.273 OA
ATOM      8  N   UNL     1      -4.243  -9.878  11.635  0.00  0.00    -0.294 N 
ATOM     15  C   UNL     1      -3.147 -10.455  12.278  0.00  0.00    +0.238 C 
ATOM     20  C   UNL     1      -5.614 -10.110  12.070  0.00  0.00    +0.132 C 
BRANCH   8  19
ATOM     19  C   UNL     1      -4.095  -8.997  10.478  0.00  0.00    +0.202 C 
BRANCH  19  22
ATOM      5  O   UNL     1      -4.106 -10.961   9.062  0.00  0.00    -0.274 OA
ATOM     10  N   UNL     1      -4.910  -8.978   8.219  0.00  0.00    -0.328 N 
ATOM     22  C   UNL     1      -4.372  -9.772   9.210  0.00  0.00    +0.228 C 
ATOM     28  H   UNL     1      -5.103  -7.992   8.355  0.00  0.00    +0.145 HD
ATOM     29  H   UNL     1      -5.133  -9.364   7.308  0.00  0.00    +0.145 HD
ENDBRANCH  19  22
ENDBRANCH   8  19
ENDBRANCH  12  15
BRANCH  16  18
ATOM     18  C   UNL     1      -1.935 -14.751  12.610  0.00  0.00    +0.164 C 
BRANCH  18   1
ATOM      1  S   UNL     1      -2.363 -15.907  11.301  0.00  0.00    -0.155 S 
ATOM     25  C   UNL     1      -0.759 -16.727  11.117  0.00  0.00    +0.085 C 
ENDBRANCH  18   1
ENDBRANCH  16  18
TORSDOF 7
ENDMDL
MODEL 5
REMARK VINA RESULT:      -6.0     14.095     17.120
REMARK  Name = 11865816
REMARK  11 active torsions:
REMARK  status: ('A' for Active; 'I' for Inactive)
REMARK    1  A    between atoms: S_1  and  C_18
REMARK    2  A    between atoms: S_1  and  C_25
REMARK    3  A    between atoms: N_7  and  C_11
REMARK    4  A    between atoms: N_8  and  C_19
REMARK    5  A    between atoms: N_8  and  C_20
REMARK    6  A    between atoms: N_9  and  C_21
REMARK    7  A    between atoms: C_12  and  C_15
REMARK    8  A    between atoms: C_16  and  C_18
REMARK    9  A    between atoms: C_19  and  C_22
REMARK   10  A    between atoms: C_21  and  C_23
REMARK   11  A    between atoms: C_21  and  C_24
REMARK                            x       y       z     vdW  Elec       q    Type
REMARK                         _______ _______ _______ _____ _____    ______ ____
ROOT
ATOM      3  O   UNL     1      12.112   6.268   3.147  0.00  0.00    -0.275 OA
ATOM      6  N   UNL     1      10.303   5.873   4.536  0.00  0.00    -0.287 N 
ATOM     11  C   UNL     1       8.898   7.280   5.828  0.00  0.00    +0.105 C 
ATOM     12  C   UNL     1      10.257   7.205   5.131  0.00  0.00    +0.182 C 
ATOM     13  C   UNL     1       8.591   5.821   6.171  0.00  0.00    +0.043 C 
ATOM     14  C   UNL     1       9.204   5.039   5.016  0.00  0.00    +0.110 C 
ATOM     16  C   UNL     1      11.195   5.539   3.528  0.00  0.00    +0.226 C 
ENDROOT
BRANCH  11   7
ATOM      4  O   UNL     1       8.337  10.075   5.378  0.00  0.00    -0.253 OA
ATOM      7  N   UNL     1       7.897   7.835   4.948  0.00  0.00    -0.294 N 
ATOM      9  N   UNL     1       6.668   9.463   3.886  0.00  0.00    -0.297 N 
ATOM     17  C   UNL     1       7.693   9.205   4.792  0.00  0.00    +0.300 C 
ATOM     26  H   UNL     1       7.261   7.200   4.474  0.00  0.00    +0.151 HD
ATOM     27  H   UNL     1       6.248   8.679   3.397  0.00  0.00    +0.150 HD
BRANCH   9  21
ATOM     21  C   UNL     1       6.249  10.801   3.539  0.00  0.00    +0.068 C 
ATOM     23  C   UNL     1       5.854  10.872   2.069  0.00  0.00    +0.027 C 
ATOM     24  C   UNL     1       5.107  11.250   4.440  0.00  0.00    +0.027 C 
ENDBRANCH   9  21
ENDBRANCH  11   7
BRANCH  12  15
ATOM      2  O   UNL     1      11.435   6.440   7.031  0.00  0.00    -0.273 OA
ATOM      8  N   UNL     1      12.321   8.288   5.932  0.00  0.00    -0.294 N 
ATOM     15  C   UNL     1      11.384   7.269   6.118  0.00  0.00    +0.238 C 
ATOM     20  C   UNL     1      12.222   9.248   4.840  0.00  0.00    +0.132 C 
BRANCH   8  19
ATOM     19  C   UNL     1      13.468   8.466   6.819  0.00  0.00    +0.202 C 
BRANCH  19  22
ATOM      5  O   UNL     1      15.367   7.478   5.690  0.00  0.00    -0.274 OA
ATOM     10  N   UNL     1      14.305   6.276   7.337  0.00  0.00    -0.328 N 
ATOM     22  C   UNL     1      14.493   7.390   6.547  0.00  0.00    +0.228 C 
ATOM     28  H   UNL     1      13.564   6.215   8.027  0.00  0.00    +0.145 HD
ATOM     29  H   UNL     1      14.914   5.469   7.251  0.00  0.00    +0.145 HD
ENDBRANCH  19  22
ENDBRANCH   8  19
ENDBRANCH  12  15
BRANCH  16  18
ATOM     18  C   UNL     1      10.990   4.183   2.901  0.00  0.00    +0.164 C 
BRANCH  18   1
ATOM      1  S   UNL     1      11.722   4.223   1.259  0.00  0.00    -0.155 S 
ATOM     25  C   UNL     1      13.152   3.155   1.565  0.00  0.00    +0.085 C 
ENDBRANCH  18   1
ENDBRANCH  16  18
TORSDOF 7
ENDMDL
MODEL 6
REMARK VINA RESULT:      -5.7     14.389     17.010
REMARK  Name = 11865816
REMARK  11 active torsions:
REMARK  status: ('A' for Active; 'I' for Inactive)
REMARK    1  A    between atoms: S_1  and  C_18
REMARK    2  A    between atoms: S_1  and  C_25
REMARK    3  A    between atoms: N_7  and  C_11
REMARK    4  A    between atoms: N_8  and  C_19
REMARK    5  A    between atoms: N_8  and  C_20
REMARK    6  A    between atoms: N_9  and  C_21
REMARK    7  A    between atoms: C_12  and  C_15
REMARK    8  A    between atoms: C_16  and  C_18
REMARK    9  A    between atoms: C_19  and  C_22
REMARK   10  A    between atoms: C_21  and  C_23
REMARK   11  A    between atoms: C_21  and  C_24
REMARK                            x       y       z     vdW  Elec       q    Type
REMARK                         _______ _______ _______ _____ _____    ______ ____
ROOT
ATOM      3  O   UNL     1      11.404   9.167   4.746  0.00  0.00    -0.275 OA
ATOM      6  N   UNL     1      10.739   7.020   5.297  0.00  0.00    -0.287 N 
ATOM     11  C   UNL     1      10.054   5.144   4.019  0.00  0.00    +0.105 C 
ATOM     12  C   UNL     1      10.223   6.663   3.979  0.00  0.00    +0.182 C 
ATOM     13  C   UNL     1       9.815   4.849   5.501  0.00  0.00    +0.043 C 
ATOM     14  C   UNL     1      10.663   5.890   6.220  0.00  0.00    +0.110 C 
ATOM     16  C   UNL     1      11.359   8.234   5.549  0.00  0.00    +0.226 C 
ENDROOT
BRANCH  11   7
ATOM      4  O   UNL     1      11.373   5.565   1.486  0.00  0.00    -0.253 OA
ATOM      7  N   UNL     1      11.241   4.479   3.535  0.00  0.00    -0.294 N 
ATOM      9  N   UNL     1      12.946   3.967   2.080  0.00  0.00    -0.297 N 
ATOM     17  C   UNL     1      11.812   4.746   2.292  0.00  0.00    +0.300 C 
ATOM     26  H   UNL     1      11.640   3.731   4.095  0.00  0.00    +0.151 HD
ATOM     27  H   UNL     1      13.274   3.375   2.837  0.00  0.00    +0.150 HD
BRANCH   9  21
ATOM     21  C   UNL     1      13.732   4.042   0.871  0.00  0.00    +0.068 C 
ATOM     23  C   UNL     1      15.177   3.642   1.147  0.00  0.00    +0.027 C 
ATOM     24  C   UNL     1      13.117   3.172  -0.217  0.00  0.00    +0.027 C 
ENDBRANCH   9  21
ENDBRANCH  11   7
BRANCH  12  15
ATOM      2  O   UNL     1       8.003   7.119   4.647  0.00  0.00    -0.273 OA
ATOM      8  N   UNL     1       8.777   8.249   2.768  0.00  0.00    -0.294 N 
ATOM     15  C   UNL     1       8.902   7.358   3.836  0.00  0.00    +0.238 C 
ATOM     20  C   UNL     1       9.864   8.501   1.832  0.00  0.00    +0.132 C 
BRANCH   8  19
ATOM     19  C   UNL     1       7.546   8.993   2.512  0.00  0.00    +0.202 C 
BRANCH  19  22
ATOM      5  O   UNL     1       8.159  11.078   3.577  0.00  0.00    -0.274 OA
ATOM     10  N   UNL     1       6.370   9.893   4.401  0.00  0.00    -0.328 N 
ATOM     22  C   UNL     1       7.407  10.110   3.520  0.00  0.00    +0.228 C 
ATOM     28  H   UNL     1       5.771   9.076   4.350  0.00  0.00    +0.145 HD
ATOM     29  H   UNL     1       6.169  10.558   5.141  0.00  0.00    +0.145 HD
ENDBRANCH  19  22
ENDBRANCH   8  19
ENDBRANCH  12  15
BRANCH  16  18
ATOM     18  C   UNL     1      11.993   8.371   6.911  0.00  0.00    +0.164 C 
BRANCH  18   1
ATOM      1  S   UNL     1      13.688   8.921   6.672  0.00  0.00    -0.155 S 
ATOM     25  C   UNL     1      14.466   7.312   6.387  0.00  0.00    +0.085 C 
ENDBRANCH  18   1
ENDBRANCH  16  18
TORSDOF 7
ENDMDL
MODEL 7
REMARK VINA RESULT:      -5.7      3.606      6.445
REMARK  Name = 11865816
REMARK  11 active torsions:
REMARK  status: ('A' for Active; 'I' for Inactive)
REMARK    1  A    between atoms: S_1  and  C_18
REMARK    2  A    between atoms: S_1  and  C_25
REMARK    3  A    between atoms: N_7  and  C_11
REMARK    4  A    between atoms: N_8  and  C_19
REMARK    5  A    between atoms: N_8  and  C_20
REMARK    6  A    between atoms: N_9  and  C_21
REMARK    7  A    between atoms: C_12  and  C_15
REMARK    8  A    between atoms: C_16  and  C_18
REMARK    9  A    between atoms: C_19  and  C_22
REMARK   10  A    between atoms: C_21  and  C_23
REMARK   11  A    between atoms: C_21  and  C_24
REMARK                            x       y       z     vdW  Elec       q    Type
REMARK                         _______ _______ _______ _____ _____    ______ ____
ROOT
ATOM      3  O   UNL     1      15.088  10.000  19.247  0.00  0.00    -0.275 OA
ATOM      6  N   UNL     1      13.536  11.251  20.424  0.00  0.00    -0.287 N 
ATOM     11  C   UNL     1      12.550  11.033  22.569  0.00  0.00    +0.105 C 
ATOM     12  C   UNL     1      13.288  10.266  21.472  0.00  0.00    +0.182 C 
ATOM     13  C   UNL     1      11.837  12.152  21.806  0.00  0.00    +0.043 C 
ATOM     14  C   UNL     1      12.797  12.487  20.672  0.00  0.00    +0.110 C 
ATOM     16  C   UNL     1      14.482  11.058  19.429  0.00  0.00    +0.226 C 
ENDROOT
BRANCH  11   7
ATOM      4  O   UNL     1      11.992  11.705  25.320  0.00  0.00    -0.253 OA
ATOM      7  N   UNL     1      13.477  11.567  23.539  0.00  0.00    -0.294 N 
ATOM      9  N   UNL     1      14.203  12.364  25.570  0.00  0.00    -0.297 N 
ATOM     17  C   UNL     1      13.119  11.864  24.853  0.00  0.00    +0.300 C 
ATOM     26  H   UNL     1      14.416  11.805  23.233  0.00  0.00    +0.151 HD
ATOM     27  H   UNL     1      15.112  12.386  25.119  0.00  0.00    +0.150 HD
BRANCH   9  21
ATOM     21  C   UNL     1      14.110  12.754  26.958  0.00  0.00    +0.068 C 
ATOM     23  C   UNL     1      15.348  12.303  27.723  0.00  0.00    +0.027 C 
ATOM     24  C   UNL     1      13.906  14.258  27.074  0.00  0.00    +0.027 C 
ENDBRANCH   9  21
ENDBRANCH  11   7
BRANCH  12  15
ATOM      2  O   UNL     1      11.387   9.538  20.273  0.00  0.00    -0.273 OA
ATOM      8  N   UNL     1      12.849   7.886  21.010  0.00  0.00    -0.294 N 
ATOM     15  C   UNL     1      12.420   9.206  20.863  0.00  0.00    +0.238 C 
ATOM     20  C   UNL     1      14.075   7.539  21.716  0.00  0.00    +0.132 C 
BRANCH   8  19
ATOM     19  C   UNL     1      12.098   6.756  20.467  0.00  0.00    +0.202 C 
BRANCH  19  22
ATOM      5  O   UNL     1      11.140   5.127  21.979  0.00  0.00    -0.274 OA
ATOM     10  N   UNL     1      10.150   7.194  21.800  0.00  0.00    -0.328 N 
ATOM     22  C   UNL     1      11.114   6.256  21.498  0.00  0.00    +0.228 C 
ATOM     28  H   UNL     1      10.133   8.115  21.377  0.00  0.00    +0.145 HD
ATOM     29  H   UNL     1       9.415   6.988  22.469  0.00  0.00    +0.145 HD
ENDBRANCH  19  22
ENDBRANCH   8  19
ENDBRANCH  12  15
BRANCH  16  18
ATOM     18  C   UNL     1      14.739  12.245  18.535  0.00  0.00    +0.164 C 
BRANCH  18   1
ATOM      1  S   UNL     1      14.442  11.726  16.839  0.00  0.00    -0.155 S 
ATOM     25  C   UNL     1      16.012  12.254  16.107  0.00  0.00    +0.085 C 
ENDBRANCH  18   1
ENDBRANCH  16  18
TORSDOF 7
ENDMDL
MODEL 8
REMARK VINA RESULT:      -5.6     27.392     29.677
REMARK  Name = 11865816
REMARK  11 active torsions:
REMARK  status: ('A' for Active; 'I' for Inactive)
REMARK    1  A    between atoms: S_1  and  C_18
REMARK    2  A    between atoms: S_1  and  C_25
REMARK    3  A    between atoms: N_7  and  C_11
REMARK    4  A    between atoms: N_8  and  C_19
REMARK    5  A    between atoms: N_8  and  C_20
REMARK    6  A    between atoms: N_9  and  C_21
REMARK    7  A    between atoms: C_12  and  C_15
REMARK    8  A    between atoms: C_16  and  C_18
REMARK    9  A    between atoms: C_19  and  C_22
REMARK   10  A    between atoms: C_21  and  C_23
REMARK   11  A    between atoms: C_21  and  C_24
REMARK                            x       y       z     vdW  Elec       q    Type
REMARK                         _______ _______ _______ _____ _____    ______ ____
ROOT
ATOM      3  O   UNL     1      -6.331 -12.285  14.934  0.00  0.00    -0.275 OA
ATOM      6  N   UNL     1      -5.930 -11.591  17.106  0.00  0.00    -0.287 N 
ATOM     11  C   UNL     1      -7.306 -11.340  19.020  0.00  0.00    +0.105 C 
ATOM     12  C   UNL     1      -7.330 -11.448  17.495  0.00  0.00    +0.182 C 
ATOM     13  C   UNL     1      -5.930 -10.739  19.315  0.00  0.00    +0.043 C 
ATOM     14  C   UNL     1      -5.036 -11.328  18.231  0.00  0.00    +0.110 C 
ATOM     16  C   UNL     1      -5.549 -12.074  15.863  0.00  0.00    +0.226 C 
ENDROOT
BRANCH  11   7
ATOM      4  O   UNL     1      -9.746 -12.530  19.999  0.00  0.00    -0.253 OA
ATOM      7  N   UNL     1      -7.455 -12.638  19.633  0.00  0.00    -0.294 N 
ATOM      9  N   UNL     1      -8.536 -14.407  20.628  0.00  0.00    -0.297 N 
ATOM     17  C   UNL     1      -8.678 -13.135  20.080  0.00  0.00    +0.300 C 
ATOM     26  H   UNL     1      -6.620 -13.188  19.814  0.00  0.00    +0.151 HD
ATOM     27  H   UNL     1      -7.626 -14.855  20.580  0.00  0.00    +0.150 HD
BRANCH   9  21
ATOM     21  C   UNL     1      -9.647 -15.156  21.168  0.00  0.00    +0.068 C 
ATOM     23  C   UNL     1      -9.721 -16.537  20.529  0.00  0.00    +0.027 C 
ATOM     24  C   UNL     1      -9.534 -15.253  22.683  0.00  0.00    +0.027 C 
ENDBRANCH   9  21
ENDBRANCH  11   7
BRANCH  12  15
ATOM      2  O   UNL     1      -7.064  -9.209  16.793  0.00  0.00    -0.273 OA
ATOM      8  N   UNL     1      -9.132 -10.190  16.382  0.00  0.00    -0.294 N 
ATOM     15  C   UNL     1      -7.821 -10.181  16.862  0.00  0.00    +0.238 C 
ATOM     20  C   UNL     1      -9.992 -11.361  16.485  0.00  0.00    +0.132 C 
BRANCH   8  19
ATOM     19  C   UNL     1      -9.737  -9.024  15.743  0.00  0.00    +0.202 C 
BRANCH  19  22
ATOM      5  O   UNL     1     -11.733  -8.079  16.735  0.00  0.00    -0.274 OA
ATOM     10  N   UNL     1      -9.697  -7.648  17.711  0.00  0.00    -0.328 N 
ATOM     22  C   UNL     1     -10.516  -8.229  16.766  0.00  0.00    +0.228 C 
ATOM     28  H   UNL     1      -8.690  -7.768  17.708  0.00  0.00    +0.145 HD
ATOM     29  H   UNL     1     -10.085  -7.074  18.452  0.00  0.00    +0.145 HD
ENDBRANCH  19  22
ENDBRANCH   8  19
ENDBRANCH  12  15
BRANCH  16  18
ATOM     18  C   UNL     1      -4.073 -12.328  15.688  0.00  0.00    +0.164 C 
BRANCH  18   1
ATOM      1  S   UNL     1      -3.386 -10.948  14.764  0.00  0.00    -0.155 S 
ATOM     25  C   UNL     1      -3.168 -11.764  13.163  0.00  0.00    +0.085 C 
ENDBRANCH  18   1
ENDBRANCH  16  18
TORSDOF 7
ENDMDL
MODEL 9
REMARK VINA RESULT:      -5.6     26.283     28.389
REMARK  Name = 11865816
REMARK  11 active torsions:
REMARK  status: ('A' for Active; 'I' for Inactive)
REMARK    1  A    between atoms: S_1  and  C_18
REMARK    2  A    between atoms: S_1  and  C_25
REMARK    3  A    between atoms: N_7  and  C_11
REMARK    4  A    between atoms: N_8  and  C_19
REMARK    5  A    between atoms: N_8  and  C_20
REMARK    6  A    between atoms: N_9  and  C_21
REMARK    7  A    between atoms: C_12  and  C_15
REMARK    8  A    between atoms: C_16  and  C_18
REMARK    9  A    between atoms: C_19  and  C_22
REMARK   10  A    between atoms: C_21  and  C_23
REMARK   11  A    between atoms: C_21  and  C_24
REMARK                            x       y       z     vdW  Elec       q    Type
REMARK                         _______ _______ _______ _____ _____    ______ ____
ROOT
ATOM      3  O   UNL     1      -5.144 -13.873  14.949  0.00  0.00    -0.275 OA
ATOM      6  N   UNL     1      -4.806 -12.855  17.000  0.00  0.00    -0.287 N 
ATOM     11  C   UNL     1      -5.161 -10.656  17.810  0.00  0.00    +0.105 C 
ATOM     12  C   UNL     1      -4.988 -11.483  16.536  0.00  0.00    +0.182 C 
ATOM     13  C   UNL     1      -4.391 -11.455  18.864  0.00  0.00    +0.043 C 
ATOM     14  C   UNL     1      -4.602 -12.905  18.446  0.00  0.00    +0.110 C 
ATOM     16  C   UNL     1      -4.974 -13.951  16.166  0.00  0.00    +0.226 C 
ENDROOT
BRANCH  11   7
ATOM      4  O   UNL     1      -7.228  -9.351  16.277  0.00  0.00    -0.253 OA
ATOM      7  N   UNL     1      -6.556 -10.532  18.160  0.00  0.00    -0.294 N 
ATOM      9  N   UNL     1      -8.758  -9.908  17.930  0.00  0.00    -0.297 N 
ATOM     17  C   UNL     1      -7.489  -9.881  17.356  0.00  0.00    +0.300 C 
ATOM     26  H   UNL     1      -6.861 -10.871  19.068  0.00  0.00    +0.151 HD
ATOM     27  H   UNL     1      -8.888 -10.437  18.787  0.00  0.00    +0.150 HD
BRANCH   9  21
ATOM     21  C   UNL     1      -9.913  -9.306  17.306  0.00  0.00    +0.068 C 
ATOM     23  C   UNL     1     -11.195  -9.813  17.955  0.00  0.00    +0.027 C 
ATOM     24  C   UNL     1      -9.821  -7.787  17.376  0.00  0.00    +0.027 C 
ENDBRANCH   9  21
ENDBRANCH  11   7
BRANCH  12  15
ATOM      2  O   UNL     1      -2.657 -11.122  16.410  0.00  0.00    -0.273 OA
ATOM      8  N   UNL     1      -3.871 -10.768  14.459  0.00  0.00    -0.294 N 
ATOM     15  C   UNL     1      -3.732 -11.111  15.806  0.00  0.00    +0.238 C 
ATOM     20  C   UNL     1      -5.162 -10.767  13.784  0.00  0.00    +0.132 C 
BRANCH   8  19
ATOM     19  C   UNL     1      -2.732 -10.385  13.630  0.00  0.00    +0.202 C 
BRANCH  19  22
ATOM      5  O   UNL     1      -2.512 -11.714  11.618  0.00  0.00    -0.274 OA
ATOM     10  N   UNL     1      -1.600 -12.502  13.576  0.00  0.00    -0.328 N 
ATOM     22  C   UNL     1      -2.273 -11.571  12.814  0.00  0.00    +0.228 C 
ATOM     28  H   UNL     1      -1.430 -12.375  14.568  0.00  0.00    +0.145 HD
ATOM     29  H   UNL     1      -1.247 -13.357  13.160  0.00  0.00    +0.145 HD
ENDBRANCH  19  22
ENDBRANCH   8  19
ENDBRANCH  12  15
BRANCH  16  18
ATOM     18  C   UNL     1      -4.927 -15.297  16.844  0.00  0.00    +0.164 C 
BRANCH  18   1
ATOM      1  S   UNL     1      -4.551 -16.528  15.588  0.00  0.00    -0.155 S 
ATOM     25  C   UNL     1      -3.038 -17.211  16.309  0.00  0.00    +0.085 C 
ENDBRANCH  18   1
ENDBRANCH  16  18
TORSDOF 7
ENDMDL
MODEL 10
REMARK VINA RESULT:      -5.6     24.553     26.991
REMARK  Name = 11865816
REMARK  11 active torsions:
REMARK  status: ('A' for Active; 'I' for Inactive)
REMARK    1  A    between atoms: S_1  and  C_18
REMARK    2  A    between atoms: S_1  and  C_25
REMARK    3  A    between atoms: N_7  and  C_11
REMARK    4  A    between atoms: N_8  and  C_19
REMARK    5  A    between atoms: N_8  and  C_20
REMARK    6  A    between atoms: N_9  and  C_21
REMARK    7  A    between atoms: C_12  and  C_15
REMARK    8  A    between atoms: C_16  and  C_18
REMARK    9  A    between atoms: C_19  and  C_22
REMARK   10  A    between atoms: C_21  and  C_23
REMARK   11  A    between atoms: C_21  and  C_24
REMARK                            x       y       z     vdW  Elec       q    Type
REMARK                         _______ _______ _______ _____ _____    ______ ____
ROOT
ATOM      3  O   UNL     1     -11.737   7.430  20.034  0.00  0.00    -0.275 OA
ATOM      6  N   UNL     1     -12.204   9.666  20.404  0.00  0.00    -0.287 N 
ATOM     11  C   UNL     1     -13.325  10.836  22.135  0.00  0.00    +0.105 C 
ATOM     12  C   UNL     1     -13.155   9.460  21.492  0.00  0.00    +0.182 C 
ATOM     13  C   UNL     1     -13.034  11.806  20.987  0.00  0.00    +0.043 C 
ATOM     14  C   UNL     1     -11.970  11.089  20.166  0.00  0.00    +0.110 C 
ATOM     16  C   UNL     1     -11.514   8.620  19.810  0.00  0.00    +0.226 C 
ENDROOT
BRANCH  11   7
ATOM      4  O   UNL     1     -13.770  10.230  24.921  0.00  0.00    -0.253 OA
ATOM      7  N   UNL     1     -12.394  11.016  23.224  0.00  0.00    -0.294 N 
ATOM      9  N   UNL     1     -11.620  10.969  25.389  0.00  0.00    -0.297 N 
ATOM     17  C   UNL     1     -12.695  10.696  24.546  0.00  0.00    +0.300 C 
ATOM     26  H   UNL     1     -11.503  11.465  23.031  0.00  0.00    +0.151 HD
ATOM     27  H   UNL     1     -10.748  11.280  24.973  0.00  0.00    +0.150 HD
BRANCH   9  21
ATOM     21  C   UNL     1     -11.662  10.730  26.813  0.00  0.00    +0.068 C 
ATOM     23  C   UNL     1     -10.478   9.874  27.245  0.00  0.00    +0.027 C 
ATOM     24  C   UNL     1     -11.697  12.050  27.571  0.00  0.00    +0.027 C 
ENDBRANCH   9  21
ENDBRANCH  11   7
BRANCH  12  15
ATOM      2  O   UNL     1     -14.758   9.435  19.757  0.00  0.00    -0.273 OA
ATOM      8  N   UNL     1     -15.176   8.053  21.579  0.00  0.00    -0.294 N 
ATOM     15  C   UNL     1     -14.430   8.988  20.859  0.00  0.00    +0.238 C 
ATOM     20  C   UNL     1     -14.753   7.553  22.880  0.00  0.00    +0.132 C 
BRANCH   8  19
ATOM     19  C   UNL     1     -16.438   7.510  21.081  0.00  0.00    +0.202 C 
BRANCH  19  22
ATOM      5  O   UNL     1     -15.886   5.217  20.535  0.00  0.00    -0.274 OA
ATOM     10  N   UNL     1     -16.202   6.722  18.825  0.00  0.00    -0.328 N 
ATOM     22  C   UNL     1     -16.161   6.351  20.152  0.00  0.00    +0.228 C 
ATOM     28  H   UNL     1     -16.412   7.669  18.529  0.00  0.00    +0.145 HD
ATOM     29  H   UNL     1     -16.022   6.045  18.090  0.00  0.00    +0.145 HD
ENDBRANCH  19  22
ENDBRANCH   8  19
ENDBRANCH  12  15
BRANCH  16  18
ATOM     18  C   UNL     1     -10.441   9.022  18.830  0.00  0.00    +0.164 C 
BRANCH  18   1
ATOM      1  S   UNL     1     -10.766   8.166  17.282  0.00  0.00    -0.155 S 
ATOM     25  C   UNL     1     -12.356   8.928  16.870  0.00  0.00    +0.085 C 
ENDBRANCH  18   1
ENDBRANCH  16  18
TORSDOF 7
ENDMDL
