REMARK  Name = 44716920
REMARK  14 active torsions:
REMARK  status: ('A' for Active; 'I' for Inactive)
REMARK    1  A    between atoms: O_1  and  C_16
REMARK    2  A    between atoms: O_1  and  C_25
REMARK    3  A    between atoms: O_2  and  C_17
REMARK    4  A    between atoms: O_3  and  C_21
REMARK    5  A    between atoms: N_8  and  C_30
REMARK    6  A    between atoms: N_9  and  C_28
REMARK    7  A    between atoms: C_10  and  C_20
REMARK    8  A    between atoms: C_12  and  C_21
REMARK    9  A    between atoms: C_12  and  C_23
REMARK   10  A    between atoms: C_13  and  C_22
REMARK   11  A    between atoms: C_22  and  C_24
REMARK   12  A    between atoms: C_30  and  C_32
REMARK   13  A    between atoms: C_31  and  C_33
REMARK   14  A    between atoms: C_32  and  C_34
REMARK                            x       y       z     vdW  Elec       q    Type
REMARK                         _______ _______ _______ _____ _____    ______ ____
ROOT
ATOM     10  C   UNL     1       0.524   0.909  -0.342  0.00  0.00    -0.023 C 
ATOM     11  C   UNL     1       1.600   1.941   0.174  0.00  0.00    +0.007 C 
ATOM     12  C   UNL     1       3.110   1.601  -0.131  0.00  0.00    +0.031 C 
ATOM     13  C   UNL     1      -0.850   1.290   0.350  0.00  0.00    +0.032 C 
ATOM     14  C   UNL     1       0.948  -0.512   0.114  0.00  0.00    +0.011 C 
ATOM     15  C   UNL     1       1.185   3.389  -0.168  0.00  0.00    +0.007 C 
ATOM     16  C   UNL     1       3.390   0.128   0.295  0.00  0.00    +0.186 C 
ATOM     17  C   UNL     1      -1.272   2.759   0.114  0.00  0.00    +0.119 C 
ATOM     18  C   UNL     1       2.382  -0.875  -0.255  0.00  0.00    +0.046 C 
ATOM     19  C   UNL     1      -0.161   3.744   0.467  0.00  0.00    +0.032 C 
ATOM     20  C   UNL     1       0.370   0.892  -1.882  0.00  0.00    +0.012 C 
ATOM     23  C   UNL     1       4.023   2.518   0.734  0.00  0.00    +0.017 C 
ENDROOT
BRANCH  17   2
ATOM      2  O   UNL     1      -1.683   2.960  -1.234  0.00  0.00    -0.391 OA
ATOM     35  H   UNL     1      -1.969   3.885  -1.322  0.00  0.00    +0.210 HD
ENDBRANCH  17   2
BRANCH  16   1
ATOM      1  O   UNL     1       4.684  -0.307  -0.121  0.00  0.00    -0.446 OA
BRANCH   1  25
ATOM      5  O   UNL     1       4.794  -1.704   1.698  0.00  0.00    -0.226 OA
ATOM      8  N   UNL     1       6.526  -1.567   0.161  0.00  0.00    -0.281 N 
ATOM     25  C   UNL     1       5.290  -1.239   0.677  0.00  0.00    +0.401 C 
ATOM     37  H   UNL     1       6.820  -1.111  -0.698  0.00  0.00    +0.152 HD
BRANCH   8  30
ATOM     30  C   UNL     1       7.421  -2.525   0.768  0.00  0.00    +0.107 C 
BRANCH  30  32
ATOM     32  C   UNL     1       7.190  -3.941   0.255  0.00  0.00    +0.015 C 
ATOM     34  C   UNL     1       7.415  -4.068  -1.245  0.00  0.00    +0.005 C 
ENDBRANCH  30  32
ENDBRANCH   8  30
ENDBRANCH   1  25
ENDBRANCH  16   1
BRANCH  12  21
ATOM     21  C   UNL     1       3.529   1.853  -1.594  0.00  0.00    +0.166 C 
BRANCH  21   3
ATOM      3  O   UNL     1       4.934   1.974  -1.627  0.00  0.00    -0.394 OA
ATOM     36  H   UNL     1       5.189   2.138  -2.551  0.00  0.00    +0.209 HD
ENDBRANCH  21   3
ENDBRANCH  12  21
BRANCH  13  22
ATOM     22  C   UNL     1      -2.022   0.352   0.020  0.00  0.00    +0.102 C 
BRANCH  22  24
ATOM      4  O   UNL     1      -2.741   0.692   2.265  0.00  0.00    -0.276 OA
ATOM      7  N   UNL     1      -4.370   0.221   0.696  0.00  0.00    -0.300 N 
ATOM     24  C   UNL     1      -3.067   0.442   1.103  0.00  0.00    +0.216 C 
ATOM     26  C   UNL     1      -4.822  -0.077  -0.663  0.00  0.00    +0.130 C 
ATOM     27  C   UNL     1      -5.490   0.265   1.625  0.00  0.00    +0.109 C 
ATOM     28  C   UNL     1      -6.281  -0.500  -0.501  0.00  0.00    +0.092 C 
ATOM     29  C   UNL     1      -6.727   0.277   0.736  0.00  0.00    +0.043 C 
BRANCH  28   9
ATOM      6  O   UNL     1      -8.535  -2.198  -1.181  0.00  0.00    -0.276 OA
ATOM      9  N   UNL     1      -6.399  -1.924  -0.297  0.00  0.00    -0.311 N 
ATOM     31  C   UNL     1      -7.521  -2.652  -0.656  0.00  0.00    +0.210 C 
ATOM     33  C   UNL     1      -7.372  -4.119  -0.355  0.00  0.00    +0.109 C 
ATOM     38  H   UNL     1      -5.636  -2.402   0.175  0.00  0.00    +0.149 HD
ENDBRANCH  28   9
ENDBRANCH  22  24
ENDBRANCH  13  22
TORSDOF 10
