REMARK  Name = 75536695
REMARK  9 active torsions:
REMARK  status: ('A' for Active; 'I' for Inactive)
REMARK    1  A    between atoms: S_1  and  N_7
REMARK    2  A    between atoms: S_1  and  C_15
REMARK    3  A    between atoms: O_3  and  C_9
REMARK    4  A    between atoms: N_6  and  C_8
REMARK    5  A    between atoms: N_6  and  C_13
REMARK    6  A    between atoms: N_6  and  C_14
REMARK    7  A    between atoms: N_7  and  C_12
REMARK    8  A    between atoms: C_10  and  C_12
REMARK    9  A    between atoms: C_20  and  C_21
REMARK                            x       y       z     vdW  Elec       q    Type
REMARK                         _______ _______ _______ _____ _____    ______ ____
ROOT
ATOM      7  N   UNL     1       0.478   1.614  -0.399  0.00  0.00    -0.187 NA
ATOM     22  H   UNL     1       0.316   1.779  -1.400  0.00  0.00    +0.148 HD
ENDROOT
BRANCH   7   1
ATOM      1  S   UNL     1       1.996   2.020   0.253  0.00  0.00    +0.058 S 
ATOM      4  O   UNL     1       1.851   2.306   1.668  0.00  0.00    -0.153 OA
ATOM      5  O   UNL     1       2.644   2.979  -0.622  0.00  0.00    -0.153 OA
BRANCH   1  15
ATOM     15  C   UNL     1       2.878   0.497   0.092  0.00  0.00    +0.105 A 
ATOM     16  C   UNL     1       3.607   0.232  -1.068  0.00  0.00    +0.029 A 
ATOM     17  C   UNL     1       2.843  -0.442   1.123  0.00  0.00    +0.029 A 
ATOM     18  C   UNL     1       4.300  -0.971  -1.196  0.00  0.00    +0.005 A 
ATOM     19  C   UNL     1       3.537  -1.645   0.995  0.00  0.00    +0.005 A 
ATOM     20  C   UNL     1       4.266  -1.910  -0.165  0.00  0.00    -0.050 A 
ATOM     21  C   UNL     1       5.007  -3.196  -0.302  0.00  0.00    +0.044 C 
ENDBRANCH   1  15
ENDBRANCH   7   1
BRANCH   7  12
ATOM     12  C   UNL     1      -0.324   0.536   0.211  0.00  0.00    +0.140 C 
BRANCH  12  10
ATOM      2  O   UNL     1      -2.118   0.880  -1.373  0.00  0.00    -0.371 OA
ATOM      8  C   UNL     1      -3.965  -0.049  -0.204  0.00  0.00    +0.113 C 
ATOM      9  C   UNL     1      -2.709  -0.231   0.629  0.00  0.00    +0.164 C 
ATOM     10  C   UNL     1      -1.802   0.833   0.028  0.00  0.00    +0.164 C 
ATOM     11  C   UNL     1      -3.377   0.216  -1.580  0.00  0.00    +0.181 C 
BRANCH   8   6
ATOM      6  N   UNL     1      -4.853  -1.199  -0.180  0.00  0.00    -0.301 NA
ATOM     13  C   UNL     1      -5.980  -1.007  -1.097  0.00  0.00    +0.105 C 
ATOM     14  C   UNL     1      -5.346  -1.448   1.178  0.00  0.00    +0.105 C 
ENDBRANCH   8   6
BRANCH   9   3
ATOM      3  O   UNL     1      -2.933  -0.016   2.009  0.00  0.00    -0.388 OA
ATOM     23  H   UNL     1      -3.316   0.871   2.121  0.00  0.00    +0.210 HD
ENDBRANCH   9   3
ENDBRANCH  12  10
ENDBRANCH   7  12
TORSDOF 6
