REMARK  Name = 7134491
REMARK  14 active torsions:
REMARK  status: ('A' for Active; 'I' for Inactive)
REMARK    1  A    between atoms: O_2  and  C_20
REMARK    2  A    between atoms: O_3  and  C_23
REMARK    3  A    between atoms: O_4  and  C_24
REMARK    4  A    between atoms: O_7  and  C_28
REMARK    5  A    between atoms: N_10  and  C_19
REMARK    6  A    between atoms: N_11  and  C_29
REMARK    7  A    between atoms: C_13  and  C_18
REMARK    8  A    between atoms: C_13  and  C_22
REMARK    9  A    between atoms: C_18  and  C_26
REMARK   10  A    between atoms: C_20  and  C_27
REMARK   11  A    between atoms: C_22  and  C_28
REMARK   12  A    between atoms: C_29  and  C_30
REMARK   13  A    between atoms: C_29  and  C_31
REMARK   14  A    between atoms: C_30  and  C_32
REMARK                            x       y       z     vdW  Elec       q    Type
REMARK                         _______ _______ _______ _____ _____    ______ ____
ROOT
ATOM     19  C   UNL     1      -0.165  -2.428  -0.043  0.00  0.00    +0.107 C 
ATOM     20  C   UNL     1       2.092  -1.615  -0.884  0.00  0.00    +0.146 C 
ATOM     21  C   UNL     1       0.669  -1.219  -0.484  0.00  0.00    +0.069 C 
ATOM     23  C   UNL     1       0.535  -3.232   1.060  0.00  0.00    +0.163 C 
ATOM     24  C   UNL     1       1.967  -3.612   0.674  0.00  0.00    +0.148 C 
ATOM     25  C   UNL     1       2.784  -2.397   0.231  0.00  0.00    +0.078 C 
ENDROOT
BRANCH  19  10
ATOM      5  O   UNL     1      -2.525  -2.040  -1.671  0.00  0.00    -0.276 OA
ATOM     10  N   UNL     1      -1.470  -1.986   0.398  0.00  0.00    -0.310 N 
ATOM     26  C   UNL     1      -2.545  -1.829  -0.462  0.00  0.00    +0.214 C 
ATOM     36  H   UNL     1      -1.568  -1.720   1.373  0.00  0.00    +0.149 HD
BRANCH  26  18
ATOM     18  C   UNL     1      -3.784  -1.359   0.278  0.00  0.00    +0.103 C 
BRANCH  18  13
ATOM     13  C   UNL     1      -4.281   0.002  -0.212  0.00  0.00    -0.011 C 
ATOM     14  C   UNL     1      -4.644  -0.032  -1.703  0.00  0.00    +0.008 C 
ATOM     15  C   UNL     1      -5.626   0.376   0.427  0.00  0.00    +0.008 C 
ATOM     16  C   UNL     1      -5.623   1.123  -1.899  0.00  0.00    +0.001 C 
ATOM     17  C   UNL     1      -6.253   1.386  -0.531  0.00  0.00    +0.001 C 
BRANCH  13  22
ATOM     22  C   UNL     1      -3.210   1.067   0.078  0.00  0.00    +0.127 C 
BRANCH  22  28
ATOM      8  O   UNL     1      -3.607   1.337   2.468  0.00  0.00    -0.251 OA
ATOM     28  C   UNL     1      -2.854   1.101   1.535  0.00  0.00    +0.305 C 
BRANCH  28   7
ATOM      7  O   UNL     1      -1.534   0.823   1.683  0.00  0.00    -0.481 OA
ATOM     41  H   UNL     1      -1.260   0.835   2.625  0.00  0.00    +0.295 HD
ENDBRANCH  28   7
ENDBRANCH  22  28
ENDBRANCH  13  22
ENDBRANCH  18  13
ENDBRANCH  26  18
ENDBRANCH  19  10
BRANCH  20  27
ATOM      6  O   UNL     1       3.410  -0.265  -2.348  0.00  0.00    -0.273 OA
ATOM     11  N   UNL     1       2.996   0.491  -0.186  0.00  0.00    -0.301 N 
ATOM     27  C   UNL     1       2.898  -0.400  -1.240  0.00  0.00    +0.246 C 
ATOM     40  H   UNL     1       2.596   0.255   0.717  0.00  0.00    +0.150 HD
BRANCH  11  29
ATOM     29  C   UNL     1       3.737   1.730  -0.264  0.00  0.00    +0.163 C 
BRANCH  29  31
ATOM      9  O   UNL     1       5.505   0.569   0.934  0.00  0.00    -0.274 OA
ATOM     12  N   UNL     1       6.090   2.129  -0.647  0.00  0.00    -0.328 N 
ATOM     31  C   UNL     1       5.180   1.410   0.099  0.00  0.00    +0.231 C 
ATOM     42  H   UNL     1       7.088   2.000  -0.515  0.00  0.00    +0.145 HD
ATOM     43  H   UNL     1       5.809   2.819  -1.336  0.00  0.00    +0.145 HD
ENDBRANCH  29  31
BRANCH  29  30
ATOM     30  C   UNL     1       3.176   2.804   0.675  0.00  0.00    +0.074 C 
BRANCH  30  32
ATOM      1  S   UNL     1       0.683   3.578   1.648  0.00  0.00    -0.102 S 
ATOM     32  C   UNL     1       1.734   3.135   0.371  0.00  0.00    -0.008 A 
ATOM     33  C   UNL     1       1.093   3.136  -0.849  0.00  0.00    +0.011 A 
ATOM     34  C   UNL     1      -0.279   3.504  -0.733  0.00  0.00    +0.008 A 
ATOM     35  C   UNL     1      -0.634   3.772   0.571  0.00  0.00    +0.045 A 
ENDBRANCH  30  32
ENDBRANCH  29  30
ENDBRANCH  11  29
ENDBRANCH  20  27
BRANCH  20   2
ATOM      2  O   UNL     1       2.075  -2.406  -2.066  0.00  0.00    -0.379 OA
ATOM     37  H   UNL     1       2.978  -2.723  -2.238  0.00  0.00    +0.211 HD
ENDBRANCH  20   2
BRANCH  23   3
ATOM      3  O   UNL     1      -0.189  -4.446   1.284  0.00  0.00    -0.387 OA
ATOM     38  H   UNL     1      -0.214  -4.941   0.447  0.00  0.00    +0.210 HD
ENDBRANCH  23   3
BRANCH  24   4
ATOM      4  O   UNL     1       2.599  -4.204   1.809  0.00  0.00    -0.389 OA
ATOM     39  H   UNL     1       3.502  -4.451   1.545  0.00  0.00    +0.210 HD
ENDBRANCH  24   4
TORSDOF 14
