MODEL 1
REMARK VINA RESULT:      -7.7      0.000      0.000
REMARK  Name = 38030450
REMARK  10 active torsions:
REMARK  status: ('A' for Active; 'I' for Inactive)
REMARK    1  A    between atoms: N_3  and  C_13
REMARK    2  A    between atoms: C_8  and  C_12
REMARK    3  A    between atoms: C_9  and  C_13
REMARK    4  A    between atoms: C_11  and  C_18
REMARK    5  A    between atoms: C_12  and  C_22
REMARK    6  A    between atoms: C_12  and  C_23
REMARK    7  A    between atoms: C_15  and  C_24
REMARK    8  A    between atoms: C_18  and  C_25
REMARK    9  A    between atoms: C_19  and  C_26
REMARK   10  A    between atoms: C_27  and  C_28
REMARK                            x       y       z     vdW  Elec       q    Type
REMARK                         _______ _______ _______ _____ _____    ______ ____
ROOT
ATOM      8  C   UNL     1      13.425  10.514  21.730  0.00  0.00    +0.000 C 
ATOM      9  C   UNL     1      14.388   9.315  21.901  0.00  0.00    +0.029 C 
ATOM     10  C   UNL     1      12.415  10.239  20.608  0.00  0.00    +0.012 C 
ATOM     11  C   UNL     1      11.595   8.949  20.826  0.00  0.00    +0.024 C 
ATOM     14  C   UNL     1      13.673   7.989  21.862  0.00  0.00    -0.023 C 
ATOM     15  C   UNL     1      12.423   7.807  21.398  0.00  0.00    -0.073 C 
ATOM     24  C   UNL     1      11.772   6.454  21.485  0.00  0.00    +0.039 C 
ENDROOT
BRANCH   8  12
ATOM     12  C   UNL     1      12.713  10.851  23.047  0.00  0.00    -0.013 C 
ATOM     22  C   UNL     1      13.691  11.480  24.035  0.00  0.00    +0.007 C 
ATOM     23  C   UNL     1      11.532  11.780  22.790  0.00  0.00    +0.007 C 
ENDBRANCH   8  12
BRANCH   9  13
ATOM     13  C   UNL     1      15.494   9.323  20.840  0.00  0.00    +0.092 C 
BRANCH  13   3
ATOM      3  N   UNL     1      16.546   8.367  21.183  0.00  0.00    -0.302 NA
ATOM     16  C   UNL     1      16.751   7.412  20.086  0.00  0.00    +0.085 C 
ATOM     17  C   UNL     1      17.793   9.070  21.516  0.00  0.00    +0.085 C 
ATOM     19  C   UNL     1      19.128   7.036  20.848  0.00  0.00    +0.077 C 
ATOM     20  C   UNL     1      17.810   6.371  20.452  0.00  0.00    +0.028 C 
ATOM     21  C   UNL     1      18.888   8.087  21.930  0.00  0.00    +0.028 C 
BRANCH  19  26
ATOM      2  O   UNL     1      20.360   5.891  22.543  0.00  0.00    -0.276 OA
ATOM      5  N   UNL     1      20.658   5.245  20.356  0.00  0.00    -0.329 N 
ATOM     26  C   UNL     1      20.095   6.010  21.350  0.00  0.00    +0.214 C 
ATOM     33  H   UNL     1      20.460   5.389  19.371  0.00  0.00    +0.145 HD
ATOM     34  H   UNL     1      21.330   4.517  20.579  0.00  0.00    +0.145 HD
ENDBRANCH  19  26
ENDBRANCH  13   3
ENDBRANCH   9  13
BRANCH  11  18
ATOM     18  C   UNL     1      10.900   8.581  19.510  0.00  0.00    +0.105 C 
BRANCH  18  25
ATOM      1  O   UNL     1      12.620   9.534  18.064  0.00  0.00    -0.420 OA
ATOM      4  N   UNL     1      12.172   7.380  17.657  0.00  0.00    -0.112 NA
ATOM      6  N   UNL     1      13.155   7.785  16.774  0.00  0.00    -0.107 NA
ATOM     25  C   UNL     1      11.891   8.431  18.390  0.00  0.00    +0.218 A 
ATOM     27  C   UNL     1      13.386   9.048  17.048  0.00  0.00    +0.250 A 
BRANCH  27  28
ATOM      7  N   UNL     1      15.662  11.963  16.674  0.00  0.00    -0.263 NA
ATOM     28  C   UNL     1      14.301   9.977  16.453  0.00  0.00    +0.057 A 
ATOM     29  C   UNL     1      14.718   9.830  15.135  0.00  0.00    +0.016 A 
ATOM     30  C   UNL     1      14.798  11.051  17.174  0.00  0.00    +0.124 A 
ATOM     31  C   UNL     1      15.607  10.747  14.585  0.00  0.00    +0.020 A 
ATOM     32  C   UNL     1      16.045  11.787  15.390  0.00  0.00    +0.111 A 
ENDBRANCH  27  28
ENDBRANCH  18  25
ENDBRANCH  11  18
TORSDOF 7
ENDMDL
MODEL 2
REMARK VINA RESULT:      -7.6      3.274      7.640
REMARK  Name = 38030450
REMARK  10 active torsions:
REMARK  status: ('A' for Active; 'I' for Inactive)
REMARK    1  A    between atoms: N_3  and  C_13
REMARK    2  A    between atoms: C_8  and  C_12
REMARK    3  A    between atoms: C_9  and  C_13
REMARK    4  A    between atoms: C_11  and  C_18
REMARK    5  A    between atoms: C_12  and  C_22
REMARK    6  A    between atoms: C_12  and  C_23
REMARK    7  A    between atoms: C_15  and  C_24
REMARK    8  A    between atoms: C_18  and  C_25
REMARK    9  A    between atoms: C_19  and  C_26
REMARK   10  A    between atoms: C_27  and  C_28
REMARK                            x       y       z     vdW  Elec       q    Type
REMARK                         _______ _______ _______ _____ _____    ______ ____
ROOT
ATOM      8  C   UNL     1      13.743  10.539  20.927  0.00  0.00    +0.000 C 
ATOM      9  C   UNL     1      12.258  10.364  20.532  0.00  0.00    +0.029 C 
ATOM     10  C   UNL     1      14.397   9.174  21.183  0.00  0.00    +0.012 C 
ATOM     11  C   UNL     1      14.295   8.212  19.980  0.00  0.00    +0.024 C 
ATOM     14  C   UNL     1      12.050   9.249  19.539  0.00  0.00    -0.023 C 
ATOM     15  C   UNL     1      12.951   8.287  19.270  0.00  0.00    -0.073 C 
ATOM     24  C   UNL     1      12.677   7.270  18.196  0.00  0.00    +0.039 C 
ENDROOT
BRANCH   8  12
ATOM     12  C   UNL     1      14.514  11.333  19.864  0.00  0.00    -0.013 C 
ATOM     22  C   UNL     1      13.739  12.585  19.468  0.00  0.00    +0.007 C 
ATOM     23  C   UNL     1      15.904  11.696  20.375  0.00  0.00    +0.007 C 
ENDBRANCH   8  12
BRANCH   9  13
ATOM     13  C   UNL     1      11.372  10.118  21.759  0.00  0.00    +0.092 C 
BRANCH  13   3
ATOM      3  N   UNL     1      11.552  11.180  22.747  0.00  0.00    -0.302 NA
ATOM     16  C   UNL     1      10.962  12.437  22.266  0.00  0.00    +0.085 C 
ATOM     17  C   UNL     1      10.974  10.784  24.039  0.00  0.00    +0.085 C 
ATOM     19  C   UNL     1      10.648  13.211  24.647  0.00  0.00    +0.077 C 
ATOM     20  C   UNL     1      11.191  13.572  23.265  0.00  0.00    +0.028 C 
ATOM     21  C   UNL     1      11.203  11.862  25.099  0.00  0.00    +0.028 C 
BRANCH  19  26
ATOM      2  O   UNL     1      11.738  15.219  25.344  0.00  0.00    -0.276 OA
ATOM      5  N   UNL     1      10.505  14.053  26.897  0.00  0.00    -0.329 N 
ATOM     26  C   UNL     1      11.021  14.266  25.641  0.00  0.00    +0.214 C 
ATOM     33  H   UNL     1       9.951  13.236  27.134  0.00  0.00    +0.145 HD
ATOM     34  H   UNL     1      10.693  14.704  27.653  0.00  0.00    +0.145 HD
ENDBRANCH  19  26
ENDBRANCH  13   3
ENDBRANCH   9  13
BRANCH  11  18
ATOM     18  C   UNL     1      14.641   6.795  20.455  0.00  0.00    +0.105 C 
BRANCH  18  25
ATOM      1  O   UNL     1      17.011   6.395  20.878  0.00  0.00    -0.420 OA
ATOM      4  N   UNL     1      16.370   5.967  18.777  0.00  0.00    -0.112 NA
ATOM      6  N   UNL     1      17.722   5.700  18.873  0.00  0.00    -0.107 NA
ATOM     25  C   UNL     1      15.997   6.370  19.969  0.00  0.00    +0.218 A 
ATOM     27  C   UNL     1      18.054   5.963  20.116  0.00  0.00    +0.250 A 
BRANCH  27  28
ATOM      7  N   UNL     1      21.530   4.896  20.884  0.00  0.00    -0.263 NA
ATOM     28  C   UNL     1      19.320   5.869  20.782  0.00  0.00    +0.057 A 
ATOM     29  C   UNL     1      19.587   6.614  21.925  0.00  0.00    +0.016 A 
ATOM     30  C   UNL     1      20.316   5.032  20.306  0.00  0.00    +0.124 A 
ATOM     31  C   UNL     1      20.825   6.502  22.549  0.00  0.00    +0.020 A 
ATOM     32  C   UNL     1      21.753   5.636  21.994  0.00  0.00    +0.111 A 
ENDBRANCH  27  28
ENDBRANCH  18  25
ENDBRANCH  11  18
TORSDOF 7
ENDMDL
MODEL 3
REMARK VINA RESULT:      -7.3     26.348     30.143
REMARK  Name = 38030450
REMARK  10 active torsions:
REMARK  status: ('A' for Active; 'I' for Inactive)
REMARK    1  A    between atoms: N_3  and  C_13
REMARK    2  A    between atoms: C_8  and  C_12
REMARK    3  A    between atoms: C_9  and  C_13
REMARK    4  A    between atoms: C_11  and  C_18
REMARK    5  A    between atoms: C_12  and  C_22
REMARK    6  A    between atoms: C_12  and  C_23
REMARK    7  A    between atoms: C_15  and  C_24
REMARK    8  A    between atoms: C_18  and  C_25
REMARK    9  A    between atoms: C_19  and  C_26
REMARK   10  A    between atoms: C_27  and  C_28
REMARK                            x       y       z     vdW  Elec       q    Type
REMARK                         _______ _______ _______ _____ _____    ______ ____
ROOT
ATOM      8  C   UNL     1      -5.429 -10.466  10.680  0.00  0.00    +0.000 C 
ATOM      9  C   UNL     1      -4.638 -10.111   9.399  0.00  0.00    +0.029 C 
ATOM     10  C   UNL     1      -4.524 -11.186  11.691  0.00  0.00    +0.012 C 
ATOM     11  C   UNL     1      -3.268 -10.374  12.072  0.00  0.00    +0.024 C 
ATOM     14  C   UNL     1      -3.273  -9.546   9.700  0.00  0.00    -0.023 C 
ATOM     15  C   UNL     1      -2.650  -9.642  10.889  0.00  0.00    -0.073 C 
ATOM     24  C   UNL     1      -1.324  -8.966  11.107  0.00  0.00    +0.039 C 
ENDROOT
BRANCH   8  12
ATOM     12  C   UNL     1      -6.074  -9.221  11.302  0.00  0.00    -0.013 C 
ATOM     22  C   UNL     1      -7.256  -8.755  10.458  0.00  0.00    +0.007 C 
ATOM     23  C   UNL     1      -6.512  -9.507  12.734  0.00  0.00    +0.007 C 
ENDBRANCH   8  12
BRANCH   9  13
ATOM     13  C   UNL     1      -4.489 -11.323   8.473  0.00  0.00    +0.092 C 
BRANCH  13   3
ATOM      3  N   UNL     1      -5.469 -11.268   7.389  0.00  0.00    -0.302 NA
ATOM     16  C   UNL     1      -5.993  -9.904   7.238  0.00  0.00    +0.085 C 
ATOM     17  C   UNL     1      -4.875 -11.751   6.134  0.00  0.00    +0.085 C 
ATOM     19  C   UNL     1      -6.522 -10.368   4.814  0.00  0.00    +0.077 C 
ATOM     20  C   UNL     1      -7.061  -9.843   6.144  0.00  0.00    +0.028 C 
ATOM     21  C   UNL     1      -5.903 -11.752   5.002  0.00  0.00    +0.028 C 
BRANCH  19  26
ATOM      2  O   UNL     1      -7.465 -10.093   2.637  0.00  0.00    -0.276 OA
ATOM      5  N   UNL     1      -8.811 -10.917   4.311  0.00  0.00    -0.329 N 
ATOM     26  C   UNL     1      -7.624 -10.444   3.804  0.00  0.00    +0.214 C 
ATOM     33  H   UNL     1      -8.934 -11.159   5.289  0.00  0.00    +0.145 HD
ATOM     34  H   UNL     1      -9.629 -11.010   3.717  0.00  0.00    +0.145 HD
ENDBRANCH  19  26
ENDBRANCH  13   3
ENDBRANCH   9  13
BRANCH  11  18
ATOM     18  C   UNL     1      -2.277 -11.308  12.778  0.00  0.00    +0.105 C 
BRANCH  18  25
ATOM      1  O   UNL     1      -3.537 -11.104  14.858  0.00  0.00    -0.420 OA
ATOM      4  N   UNL     1      -1.319 -10.956  15.113  0.00  0.00    -0.112 NA
ATOM      6  N   UNL     1      -1.902 -10.825  16.359  0.00  0.00    -0.107 NA
ATOM     25  C   UNL     1      -2.310 -11.117  14.268  0.00  0.00    +0.218 A 
ATOM     27  C   UNL     1      -3.196 -10.917  16.163  0.00  0.00    +0.250 A 
BRANCH  27  28
ATOM      7  N   UNL     1      -6.501 -10.046  17.623  0.00  0.00    -0.263 NA
ATOM     28  C   UNL     1      -4.285 -10.853  17.093  0.00  0.00    +0.057 A 
ATOM     29  C   UNL     1      -4.218 -11.497  18.323  0.00  0.00    +0.016 A 
ATOM     30  C   UNL     1      -5.439 -10.147  16.793  0.00  0.00    +0.124 A 
ATOM     31  C   UNL     1      -5.291 -11.417  19.204  0.00  0.00    +0.020 A 
ATOM     32  C   UNL     1      -6.400 -10.685  18.810  0.00  0.00    +0.111 A 
ENDBRANCH  27  28
ENDBRANCH  18  25
ENDBRANCH  11  18
TORSDOF 7
ENDMDL
MODEL 4
REMARK VINA RESULT:      -7.2      2.404      5.081
REMARK  Name = 38030450
REMARK  10 active torsions:
REMARK  status: ('A' for Active; 'I' for Inactive)
REMARK    1  A    between atoms: N_3  and  C_13
REMARK    2  A    between atoms: C_8  and  C_12
REMARK    3  A    between atoms: C_9  and  C_13
REMARK    4  A    between atoms: C_11  and  C_18
REMARK    5  A    between atoms: C_12  and  C_22
REMARK    6  A    between atoms: C_12  and  C_23
REMARK    7  A    between atoms: C_15  and  C_24
REMARK    8  A    between atoms: C_18  and  C_25
REMARK    9  A    between atoms: C_19  and  C_26
REMARK   10  A    between atoms: C_27  and  C_28
REMARK                            x       y       z     vdW  Elec       q    Type
REMARK                         _______ _______ _______ _____ _____    ______ ____
ROOT
ATOM      8  C   UNL     1      17.217  11.636  19.952  0.00  0.00    +0.000 C 
ATOM      9  C   UNL     1      16.684  11.644  21.404  0.00  0.00    +0.029 C 
ATOM     10  C   UNL     1      16.056  11.730  18.952  0.00  0.00    +0.012 C 
ATOM     11  C   UNL     1      15.166  12.973  19.164  0.00  0.00    +0.024 C 
ATOM     14  C   UNL     1      15.608  12.677  21.619  0.00  0.00    -0.023 C 
ATOM     15  C   UNL     1      14.927  13.290  20.634  0.00  0.00    -0.073 C 
ATOM     24  C   UNL     1      13.932  14.370  20.958  0.00  0.00    +0.039 C 
ENDROOT
BRANCH   8  12
ATOM     12  C   UNL     1      18.238  12.758  19.724  0.00  0.00    -0.013 C 
ATOM     22  C   UNL     1      19.463  12.552  20.610  0.00  0.00    +0.007 C 
ATOM     23  C   UNL     1      18.639  12.822  18.254  0.00  0.00    +0.007 C 
ENDBRANCH   8  12
BRANCH   9  13
ATOM     13  C   UNL     1      16.153  10.268  21.820  0.00  0.00    +0.092 C 
BRANCH  13   3
ATOM      3  N   UNL     1      16.811   9.208  21.057  0.00  0.00    -0.302 NA
ATOM     16  C   UNL     1      17.908   8.618  21.837  0.00  0.00    +0.085 C 
ATOM     17  C   UNL     1      15.837   8.185  20.652  0.00  0.00    +0.085 C 
ATOM     19  C   UNL     1      17.678   6.464  20.542  0.00  0.00    +0.077 C 
ATOM     20  C   UNL     1      18.642   7.545  21.030  0.00  0.00    +0.028 C 
ATOM     21  C   UNL     1      16.499   7.097  19.806  0.00  0.00    +0.028 C 
BRANCH  19  26
ATOM      2  O   UNL     1      19.414   4.927  19.966  0.00  0.00    -0.276 OA
ATOM      5  N   UNL     1      17.797   5.383  18.395  0.00  0.00    -0.329 N 
ATOM     26  C   UNL     1      18.388   5.513  19.629  0.00  0.00    +0.214 C 
ATOM     33  H   UNL     1      16.975   5.910  18.119  0.00  0.00    +0.145 HD
ATOM     34  H   UNL     1      18.192   4.765  17.692  0.00  0.00    +0.145 HD
ENDBRANCH  19  26
ENDBRANCH  13   3
ENDBRANCH   9  13
BRANCH  11  18
ATOM     18  C   UNL     1      13.863  12.783  18.376  0.00  0.00    +0.105 C 
BRANCH  18  25
ATOM      1  O   UNL     1      12.873  10.812  19.420  0.00  0.00    -0.420 OA
ATOM      4  N   UNL     1      13.607  10.473  17.334  0.00  0.00    -0.112 NA
ATOM      6  N   UNL     1      13.076   9.284  17.798  0.00  0.00    -0.107 NA
ATOM     25  C   UNL     1      13.467  11.336  18.313  0.00  0.00    +0.218 A 
ATOM     27  C   UNL     1      12.660   9.528  19.018  0.00  0.00    +0.250 A 
BRANCH  27  28
ATOM      7  N   UNL     1      11.556   6.424  20.739  0.00  0.00    -0.263 NA
ATOM     28  C   UNL     1      12.028   8.669  19.975  0.00  0.00    +0.057 A 
ATOM     29  C   UNL     1      11.297   9.191  21.037  0.00  0.00    +0.016 A 
ATOM     30  C   UNL     1      12.126   7.290  19.872  0.00  0.00    +0.124 A 
ATOM     31  C   UNL     1      10.696   8.332  21.951  0.00  0.00    +0.020 A 
ATOM     32  C   UNL     1      10.854   6.969  21.758  0.00  0.00    +0.111 A 
ENDBRANCH  27  28
ENDBRANCH  18  25
ENDBRANCH  11  18
TORSDOF 7
ENDMDL
MODEL 5
REMARK VINA RESULT:      -7.0     26.316     29.624
REMARK  Name = 38030450
REMARK  10 active torsions:
REMARK  status: ('A' for Active; 'I' for Inactive)
REMARK    1  A    between atoms: N_3  and  C_13
REMARK    2  A    between atoms: C_8  and  C_12
REMARK    3  A    between atoms: C_9  and  C_13
REMARK    4  A    between atoms: C_11  and  C_18
REMARK    5  A    between atoms: C_12  and  C_22
REMARK    6  A    between atoms: C_12  and  C_23
REMARK    7  A    between atoms: C_15  and  C_24
REMARK    8  A    between atoms: C_18  and  C_25
REMARK    9  A    between atoms: C_19  and  C_26
REMARK   10  A    between atoms: C_27  and  C_28
REMARK                            x       y       z     vdW  Elec       q    Type
REMARK                         _______ _______ _______ _____ _____    ______ ____
ROOT
ATOM      8  C   UNL     1      -3.528 -10.616  15.282  0.00  0.00    +0.000 C 
ATOM      9  C   UNL     1      -4.573 -11.518  14.585  0.00  0.00    +0.029 C 
ATOM     10  C   UNL     1      -3.960 -10.301  16.720  0.00  0.00    +0.012 C 
ATOM     11  C   UNL     1      -4.199 -11.564  17.576  0.00  0.00    +0.024 C 
ATOM     14  C   UNL     1      -5.052 -12.639  15.472  0.00  0.00    -0.023 C 
ATOM     15  C   UNL     1      -4.885 -12.684  16.807  0.00  0.00    -0.073 C 
ATOM     24  C   UNL     1      -5.326 -13.892  17.586  0.00  0.00    +0.039 C 
ENDROOT
BRANCH   8  12
ATOM     12  C   UNL     1      -2.131 -11.249  15.247  0.00  0.00    -0.013 C 
ATOM     22  C   UNL     1      -1.821 -11.781  13.852  0.00  0.00    +0.007 C 
ATOM     23  C   UNL     1      -1.077 -10.238  15.686  0.00  0.00    +0.007 C 
ENDBRANCH   8  12
BRANCH   9  13
ATOM     13  C   UNL     1      -5.781 -10.711  14.095  0.00  0.00    +0.092 C 
BRANCH  13   3
ATOM      3  N   UNL     1      -5.540 -10.185  12.753  0.00  0.00    -0.302 NA
ATOM     16  C   UNL     1      -5.102 -11.258  11.850  0.00  0.00    +0.085 C 
ATOM     17  C   UNL     1      -6.745  -9.517  12.239  0.00  0.00    +0.085 C 
ATOM     19  C   UNL     1      -5.994  -9.969   9.872  0.00  0.00    +0.077 C 
ATOM     20  C   UNL     1      -4.792 -10.712  10.455  0.00  0.00    +0.028 C 
ATOM     21  C   UNL     1      -6.493  -8.913  10.857  0.00  0.00    +0.028 C 
BRANCH  19  26
ATOM      2  O   UNL     1      -6.280  -9.464   7.555  0.00  0.00    -0.276 OA
ATOM      5  N   UNL     1      -4.472  -8.558   8.653  0.00  0.00    -0.329 N 
ATOM     26  C   UNL     1      -5.619  -9.313   8.580  0.00  0.00    +0.214 C 
ATOM     33  H   UNL     1      -3.916  -8.482   9.497  0.00  0.00    +0.145 HD
ATOM     34  H   UNL     1      -4.121  -8.067   7.836  0.00  0.00    +0.145 HD
ENDBRANCH  19  26
ENDBRANCH  13   3
ENDBRANCH   9  13
BRANCH  11  18
ATOM     18  C   UNL     1      -4.961 -11.159  18.845  0.00  0.00    +0.105 C 
BRANCH  18  25
ATOM      1  O   UNL     1      -6.828 -10.054  17.728  0.00  0.00    -0.420 OA
ATOM      4  N   UNL     1      -7.430 -11.748  19.061  0.00  0.00    -0.112 NA
ATOM      6  N   UNL     1      -8.577 -11.219  18.499  0.00  0.00    -0.107 NA
ATOM     25  C   UNL     1      -6.435 -11.038  18.583  0.00  0.00    +0.218 A 
ATOM     27  C   UNL     1      -8.178 -10.233  17.729  0.00  0.00    +0.250 A 
BRANCH  27  28
ATOM      7  N   UNL     1      -9.713  -8.717  14.702  0.00  0.00    -0.263 NA
ATOM     28  C   UNL     1      -8.930  -9.334  16.904  0.00  0.00    +0.057 A 
ATOM     29  C   UNL     1      -9.592  -8.241  17.452  0.00  0.00    +0.016 A 
ATOM     30  C   UNL     1      -9.022  -9.526  15.535  0.00  0.00    +0.124 A 
ATOM     31  C   UNL     1     -10.315  -7.385  16.628  0.00  0.00    +0.020 A 
ATOM     32  C   UNL     1     -10.343  -7.665  15.271  0.00  0.00    +0.111 A 
ENDBRANCH  27  28
ENDBRANCH  18  25
ENDBRANCH  11  18
TORSDOF 7
ENDMDL
MODEL 6
REMARK VINA RESULT:      -7.0     27.084     29.503
REMARK  Name = 38030450
REMARK  10 active torsions:
REMARK  status: ('A' for Active; 'I' for Inactive)
REMARK    1  A    between atoms: N_3  and  C_13
REMARK    2  A    between atoms: C_8  and  C_12
REMARK    3  A    between atoms: C_9  and  C_13
REMARK    4  A    between atoms: C_11  and  C_18
REMARK    5  A    between atoms: C_12  and  C_22
REMARK    6  A    between atoms: C_12  and  C_23
REMARK    7  A    between atoms: C_15  and  C_24
REMARK    8  A    between atoms: C_18  and  C_25
REMARK    9  A    between atoms: C_19  and  C_26
REMARK   10  A    between atoms: C_27  and  C_28
REMARK                            x       y       z     vdW  Elec       q    Type
REMARK                         _______ _______ _______ _____ _____    ______ ____
ROOT
ATOM      8  C   UNL     1      -4.184 -12.126  13.996  0.00  0.00    +0.000 C 
ATOM      9  C   UNL     1      -2.930 -11.486  14.636  0.00  0.00    +0.029 C 
ATOM     10  C   UNL     1      -4.832 -11.159  12.995  0.00  0.00    +0.012 C 
ATOM     11  C   UNL     1      -3.867 -10.696  11.882  0.00  0.00    +0.024 C 
ATOM     14  C   UNL     1      -2.062 -10.780  13.626  0.00  0.00    -0.023 C 
ATOM     15  C   UNL     1      -2.457 -10.430  12.389  0.00  0.00    -0.073 C 
ATOM     24  C   UNL     1      -1.481  -9.805  11.429  0.00  0.00    +0.039 C 
ENDROOT
BRANCH   8  12
ATOM     12  C   UNL     1      -3.850 -13.469  13.334  0.00  0.00    -0.013 C 
ATOM     22  C   UNL     1      -3.027 -14.339  14.278  0.00  0.00    +0.007 C 
ATOM     23  C   UNL     1      -5.128 -14.187  12.913  0.00  0.00    +0.007 C 
ENDBRANCH   8  12
BRANCH   9  13
ATOM     13  C   UNL     1      -3.303 -10.505  15.753  0.00  0.00    +0.092 C 
BRANCH  13   3
ATOM      3  N   UNL     1      -4.435 -11.012  16.528  0.00  0.00    -0.302 NA
ATOM     16  C   UNL     1      -3.982 -11.512  17.833  0.00  0.00    +0.085 C 
ATOM     17  C   UNL     1      -5.458  -9.968  16.687  0.00  0.00    +0.085 C 
ATOM     19  C   UNL     1      -6.270 -11.074  18.805  0.00  0.00    +0.077 C 
ATOM     20  C   UNL     1      -5.147 -12.097  18.634  0.00  0.00    +0.028 C 
ATOM     21  C   UNL     1      -6.673 -10.498  17.449  0.00  0.00    +0.028 C 
BRANCH  19  26
ATOM      2  O   UNL     1      -8.338 -11.053  19.998  0.00  0.00    -0.276 OA
ATOM      5  N   UNL     1      -7.450 -13.087  19.393  0.00  0.00    -0.329 N 
ATOM     26  C   UNL     1      -7.457 -11.714  19.453  0.00  0.00    +0.214 C 
ATOM     33  H   UNL     1      -6.690 -13.616  18.977  0.00  0.00    +0.145 HD
ATOM     34  H   UNL     1      -8.206 -13.629  19.800  0.00  0.00    +0.145 HD
ENDBRANCH  19  26
ENDBRANCH  13   3
ENDBRANCH   9  13
BRANCH  11  18
ATOM     18  C   UNL     1      -4.483  -9.484  11.171  0.00  0.00    +0.105 C 
BRANCH  18  25
ATOM      1  O   UNL     1      -5.776  -9.015   9.155  0.00  0.00    -0.420 OA
ATOM      4  N   UNL     1      -4.382 -10.755   8.966  0.00  0.00    -0.112 NA
ATOM      6  N   UNL     1      -5.043 -10.605   7.761  0.00  0.00    -0.107 NA
ATOM     25  C   UNL     1      -4.840  -9.806   9.748  0.00  0.00    +0.218 A 
ATOM     27  C   UNL     1      -5.845  -9.578   7.917  0.00  0.00    +0.250 A 
BRANCH  27  28
ATOM      7  N   UNL     1      -8.678  -7.532   6.649  0.00  0.00    -0.263 NA
ATOM     28  C   UNL     1      -6.767  -8.970   7.003  0.00  0.00    +0.057 A 
ATOM     29  C   UNL     1      -6.675  -9.196   5.634  0.00  0.00    +0.016 A 
ATOM     30  C   UNL     1      -7.778  -8.137   7.455  0.00  0.00    +0.124 A 
ATOM     31  C   UNL     1      -7.583  -8.591   4.771  0.00  0.00    +0.020 A 
ATOM     32  C   UNL     1      -8.557  -7.776   5.325  0.00  0.00    +0.111 A 
ENDBRANCH  27  28
ENDBRANCH  18  25
ENDBRANCH  11  18
TORSDOF 7
ENDMDL
MODEL 7
REMARK VINA RESULT:      -7.0     26.895     29.528
REMARK  Name = 38030450
REMARK  10 active torsions:
REMARK  status: ('A' for Active; 'I' for Inactive)
REMARK    1  A    between atoms: N_3  and  C_13
REMARK    2  A    between atoms: C_8  and  C_12
REMARK    3  A    between atoms: C_9  and  C_13
REMARK    4  A    between atoms: C_11  and  C_18
REMARK    5  A    between atoms: C_12  and  C_22
REMARK    6  A    between atoms: C_12  and  C_23
REMARK    7  A    between atoms: C_15  and  C_24
REMARK    8  A    between atoms: C_18  and  C_25
REMARK    9  A    between atoms: C_19  and  C_26
REMARK   10  A    between atoms: C_27  and  C_28
REMARK                            x       y       z     vdW  Elec       q    Type
REMARK                         _______ _______ _______ _____ _____    ______ ____
ROOT
ATOM      8  C   UNL     1      -3.864 -12.064  13.874  0.00  0.00    +0.000 C 
ATOM      9  C   UNL     1      -2.631 -11.363  14.490  0.00  0.00    +0.029 C 
ATOM     10  C   UNL     1      -4.595 -11.120  12.909  0.00  0.00    +0.012 C 
ATOM     11  C   UNL     1      -3.692 -10.582  11.779  0.00  0.00    +0.024 C 
ATOM     14  C   UNL     1      -1.835 -10.590  13.470  0.00  0.00    -0.023 C 
ATOM     15  C   UNL     1      -2.285 -10.242  12.251  0.00  0.00    -0.073 C 
ATOM     24  C   UNL     1      -1.375  -9.545  11.277  0.00  0.00    +0.039 C 
ENDROOT
BRANCH   8  12
ATOM     12  C   UNL     1      -3.472 -13.374  13.177  0.00  0.00    -0.013 C 
ATOM     22  C   UNL     1      -2.544 -14.193  14.067  0.00  0.00    +0.007 C 
ATOM     23  C   UNL     1      -4.717 -14.175  12.812  0.00  0.00    +0.007 C 
ENDBRANCH   8  12
BRANCH   9  13
ATOM     13  C   UNL     1      -3.028 -10.425  15.636  0.00  0.00    +0.092 C 
BRANCH  13   3
ATOM      3  N   UNL     1      -4.146 -10.982  16.395  0.00  0.00    -0.302 NA
ATOM     16  C   UNL     1      -3.694 -11.441  17.716  0.00  0.00    +0.085 C 
ATOM     17  C   UNL     1      -5.227  -9.993  16.518  0.00  0.00    +0.085 C 
ATOM     19  C   UNL     1      -6.022 -11.114  18.635  0.00  0.00    +0.077 C 
ATOM     20  C   UNL     1      -4.843 -12.077  18.501  0.00  0.00    +0.028 C 
ATOM     21  C   UNL     1      -6.428 -10.578  17.263  0.00  0.00    +0.028 C 
BRANCH  19  26
ATOM      2  O   UNL     1      -7.974 -11.222  20.007  0.00  0.00    -0.276 OA
ATOM      5  N   UNL     1      -7.271 -13.145  18.959  0.00  0.00    -0.329 N 
ATOM     26  C   UNL     1      -7.187 -11.809  19.268  0.00  0.00    +0.214 C 
ATOM     33  H   UNL     1      -6.585 -13.622  18.382  0.00  0.00    +0.145 HD
ATOM     34  H   UNL     1      -8.021 -13.719  19.333  0.00  0.00    +0.145 HD
ENDBRANCH  19  26
ENDBRANCH  13   3
ENDBRANCH   9  13
BRANCH  11  18
ATOM     18  C   UNL     1      -4.398  -9.396  11.109  0.00  0.00    +0.105 C 
BRANCH  18  25
ATOM      1  O   UNL     1      -4.246 -10.830   9.140  0.00  0.00    -0.420 OA
ATOM      4  N   UNL     1      -5.653  -9.106   8.911  0.00  0.00    -0.112 NA
ATOM      6  N   UNL     1      -5.666  -9.827   7.732  0.00  0.00    -0.107 NA
ATOM     25  C   UNL     1      -4.812  -9.727   9.704  0.00  0.00    +0.218 A 
ATOM     27  C   UNL     1      -4.831 -10.824   7.911  0.00  0.00    +0.250 A 
BRANCH  27  28
ATOM      7  N   UNL     1      -3.720 -14.173   6.746  0.00  0.00    -0.263 NA
ATOM     28  C   UNL     1      -4.447 -11.886   7.028  0.00  0.00    +0.057 A 
ATOM     29  C   UNL     1      -4.421 -11.700   5.651  0.00  0.00    +0.016 A 
ATOM     30  C   UNL     1      -4.091 -13.131   7.521  0.00  0.00    +0.124 A 
ATOM     31  C   UNL     1      -4.044 -12.749   4.819  0.00  0.00    +0.020 A 
ATOM     32  C   UNL     1      -3.706 -13.955   5.412  0.00  0.00    +0.111 A 
ENDBRANCH  27  28
ENDBRANCH  18  25
ENDBRANCH  11  18
TORSDOF 7
ENDMDL
MODEL 8
REMARK VINA RESULT:      -6.9     26.699     30.214
REMARK  Name = 38030450
REMARK  10 active torsions:
REMARK  status: ('A' for Active; 'I' for Inactive)
REMARK    1  A    between atoms: N_3  and  C_13
REMARK    2  A    between atoms: C_8  and  C_12
REMARK    3  A    between atoms: C_9  and  C_13
REMARK    4  A    between atoms: C_11  and  C_18
REMARK    5  A    between atoms: C_12  and  C_22
REMARK    6  A    between atoms: C_12  and  C_23
REMARK    7  A    between atoms: C_15  and  C_24
REMARK    8  A    between atoms: C_18  and  C_25
REMARK    9  A    between atoms: C_19  and  C_26
REMARK   10  A    between atoms: C_27  and  C_28
REMARK                            x       y       z     vdW  Elec       q    Type
REMARK                         _______ _______ _______ _____ _____    ______ ____
ROOT
ATOM      8  C   UNL     1      -3.519 -10.552  15.283  0.00  0.00    +0.000 C 
ATOM      9  C   UNL     1      -4.675 -11.216  14.498  0.00  0.00    +0.029 C 
ATOM     10  C   UNL     1      -3.937 -10.285  16.735  0.00  0.00    +0.012 C 
ATOM     11  C   UNL     1      -4.400 -11.556  17.480  0.00  0.00    +0.024 C 
ATOM     14  C   UNL     1      -5.353 -12.310  15.282  0.00  0.00    -0.023 C 
ATOM     15  C   UNL     1      -5.233 -12.486  16.610  0.00  0.00    -0.073 C 
ATOM     24  C   UNL     1      -5.885 -13.665  17.280  0.00  0.00    +0.039 C 
ENDROOT
BRANCH   8  12
ATOM     12  C   UNL     1      -2.241 -11.398  15.219  0.00  0.00    -0.013 C 
ATOM     22  C   UNL     1      -1.976 -11.857  13.789  0.00  0.00    +0.007 C 
ATOM     23  C   UNL     1      -1.054 -10.610  15.763  0.00  0.00    +0.007 C 
ENDBRANCH   8  12
BRANCH   9  13
ATOM     13  C   UNL     1      -5.723 -10.188  14.056  0.00  0.00    +0.092 C 
BRANCH  13   3
ATOM      3  N   UNL     1      -5.838 -10.160  12.599  0.00  0.00    -0.302 NA
ATOM     16  C   UNL     1      -6.744  -9.085  12.175  0.00  0.00    +0.085 C 
ATOM     17  C   UNL     1      -4.512 -10.013  11.982  0.00  0.00    +0.085 C 
ATOM     19  C   UNL     1      -5.570  -8.966   9.944  0.00  0.00    +0.077 C 
ATOM     20  C   UNL     1      -6.918  -9.078  10.655  0.00  0.00    +0.028 C 
ATOM     21  C   UNL     1      -4.609 -10.037  10.456  0.00  0.00    +0.028 C 
BRANCH  19  26
ATOM      2  O   UNL     1      -5.020  -9.837   7.789  0.00  0.00    -0.276 OA
ATOM      5  N   UNL     1      -6.785  -8.371   7.954  0.00  0.00    -0.329 N 
ATOM     26  C   UNL     1      -5.751  -9.118   8.466  0.00  0.00    +0.214 C 
ATOM     33  H   UNL     1      -7.349  -7.748   8.522  0.00  0.00    +0.145 HD
ATOM     34  H   UNL     1      -7.001  -8.394   6.962  0.00  0.00    +0.145 HD
ENDBRANCH  19  26
ENDBRANCH  13   3
ENDBRANCH   9  13
BRANCH  11  18
ATOM     18  C   UNL     1      -5.124 -11.135  18.765  0.00  0.00    +0.105 C 
BRANCH  18  25
ATOM      1  O   UNL     1      -7.515 -11.173  19.257  0.00  0.00    -0.420 OA
ATOM      4  N   UNL     1      -6.947  -9.816  17.571  0.00  0.00    -0.112 NA
ATOM      6  N   UNL     1      -8.317  -9.739  17.738  0.00  0.00    -0.107 NA
ATOM     25  C   UNL     1      -6.521 -10.663  18.478  0.00  0.00    +0.218 A 
ATOM     27  C   UNL     1      -8.604 -10.547  18.732  0.00  0.00    +0.250 A 
BRANCH  27  28
ATOM      7  N   UNL     1     -11.240 -12.465  20.516  0.00  0.00    -0.263 NA
ATOM     28  C   UNL     1      -9.863 -10.866  19.338  0.00  0.00    +0.057 A 
ATOM     29  C   UNL     1     -10.905  -9.946  19.354  0.00  0.00    +0.016 A 
ATOM     30  C   UNL     1     -10.079 -12.101  19.928  0.00  0.00    +0.124 A 
ATOM     31  C   UNL     1     -12.116 -10.284  19.951  0.00  0.00    +0.020 A 
ATOM     32  C   UNL     1     -12.231 -11.545  20.512  0.00  0.00    +0.111 A 
ENDBRANCH  27  28
ENDBRANCH  18  25
ENDBRANCH  11  18
TORSDOF 7
ENDMDL
MODEL 9
REMARK VINA RESULT:      -6.9     27.382     30.700
REMARK  Name = 38030450
REMARK  10 active torsions:
REMARK  status: ('A' for Active; 'I' for Inactive)
REMARK    1  A    between atoms: N_3  and  C_13
REMARK    2  A    between atoms: C_8  and  C_12
REMARK    3  A    between atoms: C_9  and  C_13
REMARK    4  A    between atoms: C_11  and  C_18
REMARK    5  A    between atoms: C_12  and  C_22
REMARK    6  A    between atoms: C_12  and  C_23
REMARK    7  A    between atoms: C_15  and  C_24
REMARK    8  A    between atoms: C_18  and  C_25
REMARK    9  A    between atoms: C_19  and  C_26
REMARK   10  A    between atoms: C_27  and  C_28
REMARK                            x       y       z     vdW  Elec       q    Type
REMARK                         _______ _______ _______ _____ _____    ______ ____
ROOT
ATOM      8  C   UNL     1      -7.407 -12.270  17.196  0.00  0.00    +0.000 C 
ATOM      9  C   UNL     1      -7.461 -12.083  18.730  0.00  0.00    +0.029 C 
ATOM     10  C   UNL     1      -6.252 -11.458  16.594  0.00  0.00    +0.012 C 
ATOM     11  C   UNL     1      -4.877 -11.810  17.202  0.00  0.00    +0.024 C 
ATOM     14  C   UNL     1      -6.099 -12.155  19.370  0.00  0.00    -0.023 C 
ATOM     15  C   UNL     1      -4.934 -12.048  18.705  0.00  0.00    -0.073 C 
ATOM     24  C   UNL     1      -3.628 -12.222  19.429  0.00  0.00    +0.039 C 
ENDROOT
BRANCH   8  12
ATOM     12  C   UNL     1      -7.301 -13.753  16.817  0.00  0.00    -0.013 C 
ATOM     22  C   UNL     1      -8.463 -14.540  17.412  0.00  0.00    +0.007 C 
ATOM     23  C   UNL     1      -7.260 -13.913  15.301  0.00  0.00    +0.007 C 
ENDBRANCH   8  12
BRANCH   9  13
ATOM     13  C   UNL     1      -8.130 -10.758  19.115  0.00  0.00    +0.092 C 
BRANCH  13   3
ATOM      3  N   UNL     1      -9.338 -10.999  19.902  0.00  0.00    -0.302 NA
ATOM     16  C   UNL     1     -10.458 -10.205  19.380  0.00  0.00    +0.085 C 
ATOM     17  C   UNL     1      -9.665 -12.432  19.916  0.00  0.00    +0.085 C 
ATOM     19  C   UNL     1     -12.095 -11.881  20.318  0.00  0.00    +0.077 C 
ATOM     20  C   UNL     1     -11.717 -10.403  20.226  0.00  0.00    +0.028 C 
ATOM     21  C   UNL     1     -10.897 -12.708  20.780  0.00  0.00    +0.028 C 
BRANCH  19  26
ATOM      2  O   UNL     1     -14.396 -11.836  20.955  0.00  0.00    -0.276 OA
ATOM      5  N   UNL     1     -12.844 -12.491  22.522  0.00  0.00    -0.329 N 
ATOM     26  C   UNL     1     -13.232 -12.066  21.274  0.00  0.00    +0.214 C 
ATOM     33  H   UNL     1     -11.873 -12.632  22.778  0.00  0.00    +0.145 HD
ATOM     34  H   UNL     1     -13.531 -12.649  23.253  0.00  0.00    +0.145 HD
ENDBRANCH  19  26
ENDBRANCH  13   3
ENDBRANCH   9  13
BRANCH  11  18
ATOM     18  C   UNL     1      -3.874 -10.717  16.810  0.00  0.00    +0.105 C 
BRANCH  18  25
ATOM      1  O   UNL     1      -4.012 -10.336  14.403  0.00  0.00    -0.420 OA
ATOM      4  N   UNL     1      -2.301 -11.636  15.028  0.00  0.00    -0.112 NA
ATOM      6  N   UNL     1      -2.257 -11.505  13.653  0.00  0.00    -0.107 NA
ATOM     25  C   UNL     1      -3.340 -10.937  15.423  0.00  0.00    +0.218 A 
ATOM     27  C   UNL     1      -3.273 -10.739  13.332  0.00  0.00    +0.250 A 
BRANCH  27  28
ATOM      7  N   UNL     1      -5.544  -9.881  10.517  0.00  0.00    -0.263 NA
ATOM     28  C   UNL     1      -3.718 -10.270  12.052  0.00  0.00    +0.057 A 
ATOM     29  C   UNL     1      -2.818  -9.764  11.121  0.00  0.00    +0.016 A 
ATOM     30  C   UNL     1      -5.058 -10.306  11.704  0.00  0.00    +0.124 A 
ATOM     31  C   UNL     1      -3.278  -9.316   9.887  0.00  0.00    +0.020 A 
ATOM     32  C   UNL     1      -4.639  -9.396   9.637  0.00  0.00    +0.111 A 
ENDBRANCH  27  28
ENDBRANCH  18  25
ENDBRANCH  11  18
TORSDOF 7
ENDMDL
MODEL 10
REMARK VINA RESULT:      -6.8      2.712      5.744
REMARK  Name = 38030450
REMARK  10 active torsions:
REMARK  status: ('A' for Active; 'I' for Inactive)
REMARK    1  A    between atoms: N_3  and  C_13
REMARK    2  A    between atoms: C_8  and  C_12
REMARK    3  A    between atoms: C_9  and  C_13
REMARK    4  A    between atoms: C_11  and  C_18
REMARK    5  A    between atoms: C_12  and  C_22
REMARK    6  A    between atoms: C_12  and  C_23
REMARK    7  A    between atoms: C_15  and  C_24
REMARK    8  A    between atoms: C_18  and  C_25
REMARK    9  A    between atoms: C_19  and  C_26
REMARK   10  A    between atoms: C_27  and  C_28
REMARK                            x       y       z     vdW  Elec       q    Type
REMARK                         _______ _______ _______ _____ _____    ______ ____
ROOT
ATOM      8  C   UNL     1      17.938   6.631  21.004  0.00  0.00    +0.000 C 
ATOM      9  C   UNL     1      19.404   7.064  21.241  0.00  0.00    +0.029 C 
ATOM     10  C   UNL     1      16.970   7.605  21.692  0.00  0.00    +0.012 C 
ATOM     11  C   UNL     1      17.153   9.069  21.238  0.00  0.00    +0.024 C 
ATOM     14  C   UNL     1      19.604   8.547  21.067  0.00  0.00    -0.023 C 
ATOM     15  C   UNL     1      18.613   9.457  21.051  0.00  0.00    -0.073 C 
ATOM     24  C   UNL     1      18.917  10.906  20.783  0.00  0.00    +0.039 C 
ENDROOT
BRANCH   8  12
ATOM     12  C   UNL     1      17.627   6.504  19.507  0.00  0.00    -0.013 C 
ATOM     22  C   UNL     1      18.283   5.254  18.931  0.00  0.00    +0.007 C 
ATOM     23  C   UNL     1      16.120   6.479  19.277  0.00  0.00    +0.007 C 
ENDBRANCH   8  12
BRANCH   9  13
ATOM     13  C   UNL     1      19.899   6.647  22.630  0.00  0.00    +0.092 C 
BRANCH  13   3
ATOM      3  N   UNL     1      20.721   5.442  22.546  0.00  0.00    -0.302 NA
ATOM     16  C   UNL     1      20.823   4.984  21.154  0.00  0.00    +0.085 C 
ATOM     17  C   UNL     1      22.051   5.684  23.124  0.00  0.00    +0.085 C 
ATOM     19  C   UNL     1      23.021   3.860  21.675  0.00  0.00    +0.077 C 
ATOM     20  C   UNL     1      21.634   3.691  21.056  0.00  0.00    +0.028 C 
ATOM     21  C   UNL     1      22.905   4.416  23.093  0.00  0.00    +0.028 C 
BRANCH  19  26
ATOM      2  O   UNL     1      24.253   2.109  22.734  0.00  0.00    -0.276 OA
ATOM      5  N   UNL     1      23.769   1.901  20.494  0.00  0.00    -0.329 N 
ATOM     26  C   UNL     1      23.736   2.545  21.708  0.00  0.00    +0.214 C 
ATOM     33  H   UNL     1      23.375   2.299  19.648  0.00  0.00    +0.145 HD
ATOM     34  H   UNL     1      24.228   1.001  20.397  0.00  0.00    +0.145 HD
ENDBRANCH  19  26
ENDBRANCH  13   3
ENDBRANCH   9  13
BRANCH  11  18
ATOM     18  C   UNL     1      16.415   9.984  22.224  0.00  0.00    +0.105 C 
BRANCH  18  25
ATOM      1  O   UNL     1      14.575   9.601  20.667  0.00  0.00    -0.420 OA
ATOM      4  N   UNL     1      13.981  10.663  22.545  0.00  0.00    -0.112 NA
ATOM      6  N   UNL     1      12.851  10.514  21.763  0.00  0.00    -0.107 NA
ATOM     25  C   UNL     1      14.962  10.116  21.867  0.00  0.00    +0.218 A 
ATOM     27  C   UNL     1      13.244   9.890  20.678  0.00  0.00    +0.250 A 
BRANCH  27  28
ATOM      7  N   UNL     1      10.531   8.418  18.607  0.00  0.00    -0.263 NA
ATOM     28  C   UNL     1      12.503   9.473  19.524  0.00  0.00    +0.057 A 
ATOM     29  C   UNL     1      12.989   9.697  18.240  0.00  0.00    +0.016 A 
ATOM     30  C   UNL     1      11.280   8.836  19.652  0.00  0.00    +0.124 A 
ATOM     31  C   UNL     1      12.247   9.282  17.139  0.00  0.00    +0.020 A 
ATOM     32  C   UNL     1      11.036   8.652  17.375  0.00  0.00    +0.111 A 
ENDBRANCH  27  28
ENDBRANCH  18  25
ENDBRANCH  11  18
TORSDOF 7
ENDMDL
