REMARK  Name = 11884070
REMARK  9 active torsions:
REMARK  status: ('A' for Active; 'I' for Inactive)
REMARK    1  A    between atoms: O_3  and  C_14
REMARK    2  A    between atoms: O_3  and  C_18
REMARK    3  A    between atoms: O_6  and  C_30
REMARK    4  A    between atoms: O_6  and  C_33
REMARK    5  A    between atoms: N_8  and  C_13
REMARK    6  A    between atoms: N_9  and  C_19
REMARK    7  A    between atoms: N_10  and  C_20
REMARK    8  A    between atoms: C_27  and  C_31
REMARK    9  A    between atoms: C_31  and  C_32
REMARK                            x       y       z     vdW  Elec       q    Type
REMARK                         _______ _______ _______ _____ _____    ______ ____
ROOT
ATOM      1  O   UNL     1       0.929   1.731   1.323  0.00  0.00    -0.368 OA
ATOM      2  O   UNL     1       0.110   3.324  -1.166  0.00  0.00    -0.368 OA
ATOM     11  C   UNL     1      -0.364   2.068  -0.636  0.00  0.00    +0.173 C 
ATOM     12  C   UNL     1       0.841   1.352  -0.060  0.00  0.00    +0.192 C 
ATOM     13  C   UNL     1      -1.248   2.312   0.565  0.00  0.00    +0.131 C 
ATOM     14  C   UNL     1       1.979   1.924  -0.871  0.00  0.00    +0.235 C 
ATOM     15  C   UNL     1      -0.233   2.496   1.680  0.00  0.00    +0.185 C 
ATOM     16  C   UNL     1       1.541   3.358  -1.067  0.00  0.00    +0.207 C 
ENDROOT
BRANCH  13   8
ATOM      4  O   UNL     1      -3.946   1.977  -0.338  0.00  0.00    -0.252 OA
ATOM      8  N   UNL     1      -2.109   1.183   0.820  0.00  0.00    -0.292 N 
ATOM      9  N   UNL     1      -4.009  -0.106   0.742  0.00  0.00    -0.269 N 
ATOM     17  C   UNL     1      -3.421   1.097   0.339  0.00  0.00    +0.304 C 
ATOM     34  H   UNL     1      -1.724   0.385   1.315  0.00  0.00    +0.151 HD
ATOM     35  H   UNL     1      -3.435  -0.729   1.305  0.00  0.00    +0.156 HD
BRANCH   9  19
ATOM     19  C   UNL     1      -5.316  -0.569   0.464  0.00  0.00    +0.035 A 
ATOM     21  C   UNL     1      -5.736  -1.806   0.953  0.00  0.00    +0.024 A 
ATOM     22  C   UNL     1      -6.184   0.210  -0.300  0.00  0.00    +0.024 A 
ATOM     25  C   UNL     1      -7.025  -2.264   0.678  0.00  0.00    +0.013 A 
ATOM     26  C   UNL     1      -7.473  -0.247  -0.575  0.00  0.00    +0.013 A 
ATOM     27  C   UNL     1      -7.893  -1.484  -0.086  0.00  0.00    +0.017 A 
BRANCH  27  31
ATOM      7  O   UNL     1     -10.188  -1.171  -0.535  0.00  0.00    -0.292 OA
ATOM     31  C   UNL     1      -9.237  -1.961  -0.372  0.00  0.00    +0.160 C 
ATOM     32  C   UNL     1      -9.515  -3.457  -0.479  0.00  0.00    +0.091 C 
ENDBRANCH  27  31
ENDBRANCH   9  19
ENDBRANCH  13   8
BRANCH  14   3
ATOM      3  O   UNL     1       3.230   1.835  -0.227  0.00  0.00    -0.442 OA
BRANCH   3  18
ATOM      5  O   UNL     1       3.636  -0.153  -1.283  0.00  0.00    -0.226 OA
ATOM     10  N   UNL     1       5.185   0.793   0.196  0.00  0.00    -0.251 N 
ATOM     18  C   UNL     1       4.000   0.726  -0.511  0.00  0.00    +0.405 C 
ATOM     36  H   UNL     1       5.308   1.609   0.791  0.00  0.00    +0.158 HD
BRANCH  10  20
ATOM     20  C   UNL     1       6.252  -0.134   0.195  0.00  0.00    +0.037 A 
ATOM     23  C   UNL     1       7.381   0.102   0.980  0.00  0.00    +0.027 A 
ATOM     24  C   UNL     1       6.175  -1.285  -0.589  0.00  0.00    +0.027 A 
ATOM     28  C   UNL     1       8.433  -0.814   0.980  0.00  0.00    +0.047 A 
ATOM     29  C   UNL     1       7.228  -2.201  -0.588  0.00  0.00    +0.047 A 
ATOM     30  C   UNL     1       8.357  -1.965   0.196  0.00  0.00    +0.120 A 
BRANCH  30   6
ATOM      6  O   UNL     1       9.383  -2.859   0.199  0.00  0.00    -0.495 OA
ATOM     33  C   UNL     1       9.239  -4.014  -0.626  0.00  0.00    +0.277 C 
ENDBRANCH  30   6
ENDBRANCH  10  20
ENDBRANCH   3  18
ENDBRANCH  14   3
TORSDOF 7
