MODEL 1
REMARK VINA RESULT:      -7.4      0.000      0.000
REMARK  Name = 26743726
REMARK  7 active torsions:
REMARK  status: ('A' for Active; 'I' for Inactive)
REMARK    1  A    between atoms: O_4  and  C_15
REMARK    2  A    between atoms: O_6  and  C_28
REMARK    3  A    between atoms: O_6  and  C_29
REMARK    4  A    between atoms: N_7  and  C_11
REMARK    5  A    between atoms: N_8  and  C_21
REMARK    6  A    between atoms: C_12  and  C_20
REMARK    7  A    between atoms: C_22  and  C_23
REMARK                            x       y       z     vdW  Elec       q    Type
REMARK                         _______ _______ _______ _____ _____    ______ ____
ROOT
ATOM      5  O   UNL     1      14.440   6.650  19.551  0.00  0.00    -0.336 OA
ATOM      9  N   UNL     1      15.650   7.926  20.939  0.00  0.00    -0.190 NA
ATOM     10  N   UNL     1      15.732   6.109  19.550  0.00  0.00    -0.056 NA
ATOM     20  C   UNL     1      14.479   7.716  20.393  0.00  0.00    +0.245 A 
ATOM     22  C   UNL     1      16.386   6.915  20.392  0.00  0.00    +0.202 A 
ENDROOT
BRANCH  22  23
ATOM     23  C   UNL     1      17.775   6.740  20.706  0.00  0.00    +0.023 A 
ATOM     24  C   UNL     1      18.382   7.553  21.663  0.00  0.00    +0.015 A 
ATOM     25  C   UNL     1      18.518   5.757  20.054  0.00  0.00    +0.015 A 
ATOM     26  C   UNL     1      19.732   7.383  21.967  0.00  0.00    +0.046 A 
ATOM     27  C   UNL     1      19.868   5.586  20.357  0.00  0.00    +0.046 A 
ATOM     28  C   UNL     1      20.476   6.399  21.314  0.00  0.00    +0.130 A 
BRANCH  28   6
ATOM      6  O   UNL     1      21.794   6.233  21.610  0.00  0.00    -0.406 OA
BRANCH   6  29
ATOM      1  F   UNL     1      23.477   5.062  22.554  0.00  0.00    -0.133 F 
ATOM      2  F   UNL     1      21.858   5.755  23.846  0.00  0.00    -0.133 F 
ATOM      3  F   UNL     1      21.515   4.110  22.411  0.00  0.00    -0.133 F 
ATOM     29  C   UNL     1      22.145   5.287  22.614  0.00  0.00    +0.575 C 
ENDBRANCH   6  29
ENDBRANCH  28   6
ENDBRANCH  22  23
BRANCH  20  12
ATOM      7  N   UNL     1      12.278   8.343  19.413  0.00  0.00    -0.286 NA
ATOM     12  C   UNL     1      13.185   8.483  20.571  0.00  0.00    +0.149 C 
ATOM     13  C   UNL     1      10.918   8.469  19.936  0.00  0.00    +0.116 C 
ATOM     14  C   UNL     1      12.363   7.992  21.777  0.00  0.00    +0.061 C 
ATOM     15  C   UNL     1      10.995   7.642  21.205  0.00  0.00    +0.130 C 
BRANCH   7  11
ATOM      8  N   UNL     1      14.448  10.568  16.514  0.00  0.00    -0.305 NA
ATOM     11  C   UNL     1      12.549   9.308  18.350  0.00  0.00    +0.060 C 
ATOM     16  C   UNL     1      13.082   8.591  17.107  0.00  0.00    +0.034 C 
ATOM     17  C   UNL     1      13.554  10.366  18.814  0.00  0.00    +0.034 C 
ATOM     18  C   UNL     1      13.466   9.595  16.016  0.00  0.00    +0.085 C 
ATOM     19  C   UNL     1      13.923  11.312  17.667  0.00  0.00    +0.085 C 
ATOM     21  C   UNL     1      14.842  11.488  15.448  0.00  0.00    +0.104 C 
ENDBRANCH   7  11
BRANCH  15   4
ATOM      4  O   UNL     1       9.968   7.983  22.117  0.00  0.00    -0.390 OA
ATOM     30  H   UNL     1       9.120   7.749  21.702  0.00  0.00    +0.210 HD
ENDBRANCH  15   4
ENDBRANCH  20  12
TORSDOF 6
ENDMDL
MODEL 2
REMARK VINA RESULT:      -7.3      1.520      2.181
REMARK  Name = 26743726
REMARK  7 active torsions:
REMARK  status: ('A' for Active; 'I' for Inactive)
REMARK    1  A    between atoms: O_4  and  C_15
REMARK    2  A    between atoms: O_6  and  C_28
REMARK    3  A    between atoms: O_6  and  C_29
REMARK    4  A    between atoms: N_7  and  C_11
REMARK    5  A    between atoms: N_8  and  C_21
REMARK    6  A    between atoms: C_12  and  C_20
REMARK    7  A    between atoms: C_22  and  C_23
REMARK                            x       y       z     vdW  Elec       q    Type
REMARK                         _______ _______ _______ _____ _____    ______ ____
ROOT
ATOM      5  O   UNL     1      16.175   5.993  18.769  0.00  0.00    -0.336 OA
ATOM      9  N   UNL     1      17.001   6.991  20.596  0.00  0.00    -0.190 NA
ATOM     10  N   UNL     1      17.453   5.453  18.963  0.00  0.00    -0.056 NA
ATOM     20  C   UNL     1      15.988   6.890  19.773  0.00  0.00    +0.245 A 
ATOM     22  C   UNL     1      17.875   6.091  20.060  0.00  0.00    +0.202 A 
ENDROOT
BRANCH  22  23
ATOM     23  C   UNL     1      19.164   5.853  20.642  0.00  0.00    +0.023 A 
ATOM     24  C   UNL     1      20.014   4.895  20.089  0.00  0.00    +0.015 A 
ATOM     25  C   UNL     1      19.567   6.579  21.763  0.00  0.00    +0.015 A 
ATOM     26  C   UNL     1      21.266   4.662  20.657  0.00  0.00    +0.046 A 
ATOM     27  C   UNL     1      20.819   6.347  22.331  0.00  0.00    +0.046 A 
ATOM     28  C   UNL     1      21.669   5.389  21.778  0.00  0.00    +0.130 A 
BRANCH  28   6
ATOM      6  O   UNL     1      22.892   5.162  22.332  0.00  0.00    -0.406 OA
BRANCH   6  29
ATOM      1  F   UNL     1      24.125   3.940  23.774  0.00  0.00    -0.133 F 
ATOM      2  F   UNL     1      22.089   3.275  23.344  0.00  0.00    -0.133 F 
ATOM      3  F   UNL     1      23.675   3.076  21.818  0.00  0.00    -0.133 F 
ATOM     29  C   UNL     1      23.184   3.853  22.807  0.00  0.00    +0.575 C 
ENDBRANCH   6  29
ENDBRANCH  28   6
ENDBRANCH  22  23
BRANCH  20  12
ATOM      7  N   UNL     1      14.018   7.655  18.459  0.00  0.00    -0.286 NA
ATOM     12  C   UNL     1      14.662   7.620  19.787  0.00  0.00    +0.149 C 
ATOM     13  C   UNL     1      12.576   7.699  18.700  0.00  0.00    +0.116 C 
ATOM     14  C   UNL     1      13.626   6.954  20.711  0.00  0.00    +0.061 C 
ATOM     15  C   UNL     1      12.416   6.692  19.822  0.00  0.00    +0.130 C 
BRANCH   7  11
ATOM      8  N   UNL     1      13.953  11.381  16.417  0.00  0.00    -0.305 NA
ATOM     11  C   UNL     1      14.470   8.768  17.628  0.00  0.00    +0.060 C 
ATOM     16  C   UNL     1      14.489  10.064  18.442  0.00  0.00    +0.034 C 
ATOM     17  C   UNL     1      13.570   8.936  16.400  0.00  0.00    +0.034 C 
ATOM     18  C   UNL     1      14.864  11.260  17.563  0.00  0.00    +0.085 C 
ATOM     19  C   UNL     1      13.975  10.169  15.587  0.00  0.00    +0.085 C 
ATOM     21  C   UNL     1      14.293  12.556  15.615  0.00  0.00    +0.104 C 
ENDBRANCH   7  11
BRANCH  15   4
ATOM      4  O   UNL     1      11.214   6.891  20.539  0.00  0.00    -0.390 OA
ATOM     30  H   UNL     1      10.838   7.740  20.250  0.00  0.00    +0.210 HD
ENDBRANCH  15   4
ENDBRANCH  20  12
TORSDOF 6
ENDMDL
MODEL 3
REMARK VINA RESULT:      -7.3      2.183      3.685
REMARK  Name = 26743726
REMARK  7 active torsions:
REMARK  status: ('A' for Active; 'I' for Inactive)
REMARK    1  A    between atoms: O_4  and  C_15
REMARK    2  A    between atoms: O_6  and  C_28
REMARK    3  A    between atoms: O_6  and  C_29
REMARK    4  A    between atoms: N_7  and  C_11
REMARK    5  A    between atoms: N_8  and  C_21
REMARK    6  A    between atoms: C_12  and  C_20
REMARK    7  A    between atoms: C_22  and  C_23
REMARK                            x       y       z     vdW  Elec       q    Type
REMARK                         _______ _______ _______ _____ _____    ______ ____
ROOT
ATOM      5  O   UNL     1      15.779   8.826  20.575  0.00  0.00    -0.336 OA
ATOM      9  N   UNL     1      16.201   6.651  20.249  0.00  0.00    -0.190 NA
ATOM     10  N   UNL     1      17.161   8.668  20.743  0.00  0.00    -0.056 NA
ATOM     20  C   UNL     1      15.291   7.591  20.287  0.00  0.00    +0.245 A 
ATOM     22  C   UNL     1      17.332   7.359  20.534  0.00  0.00    +0.202 A 
ENDROOT
BRANCH  22  23
ATOM     23  C   UNL     1      18.618   6.728  20.606  0.00  0.00    +0.023 A 
ATOM     24  C   UNL     1      18.816   5.478  20.019  0.00  0.00    +0.015 A 
ATOM     25  C   UNL     1      19.671   7.364  21.263  0.00  0.00    +0.015 A 
ATOM     26  C   UNL     1      20.066   4.864  20.091  0.00  0.00    +0.046 A 
ATOM     27  C   UNL     1      20.921   6.751  21.335  0.00  0.00    +0.046 A 
ATOM     28  C   UNL     1      21.119   5.501  20.749  0.00  0.00    +0.130 A 
BRANCH  28   6
ATOM      6  O   UNL     1      22.340   4.902  20.818  0.00  0.00    -0.406 OA
BRANCH   6  29
ATOM      1  F   UNL     1      23.711   3.675  22.124  0.00  0.00    -0.133 F 
ATOM      2  F   UNL     1      21.585   3.714  22.620  0.00  0.00    -0.133 F 
ATOM      3  F   UNL     1      22.297   2.616  20.840  0.00  0.00    -0.133 F 
ATOM     29  C   UNL     1      22.466   3.719  21.599  0.00  0.00    +0.575 C 
ENDBRANCH   6  29
ENDBRANCH  28   6
ENDBRANCH  22  23
BRANCH  20  12
ATOM      7  N   UNL     1      13.142   8.814  20.006  0.00  0.00    -0.286 NA
ATOM     12  C   UNL     1      13.798   7.492  20.056  0.00  0.00    +0.149 C 
ATOM     13  C   UNL     1      11.983   8.667  19.127  0.00  0.00    +0.116 C 
ATOM     14  C   UNL     1      13.446   6.826  18.713  0.00  0.00    +0.061 C 
ATOM     15  C   UNL     1      12.552   7.831  17.997  0.00  0.00    +0.130 C 
BRANCH   7  11
ATOM      8  N   UNL     1      11.200  11.173  22.961  0.00  0.00    -0.305 NA
ATOM     11  C   UNL     1      12.770   9.323  21.324  0.00  0.00    +0.060 C 
ATOM     16  C   UNL     1      11.270   9.132  21.563  0.00  0.00    +0.034 C 
ATOM     17  C   UNL     1      13.136  10.804  21.463  0.00  0.00    +0.034 C 
ATOM     18  C   UNL     1      10.843   9.749  22.898  0.00  0.00    +0.085 C 
ATOM     19  C   UNL     1      12.648  11.367  22.800  0.00  0.00    +0.085 C 
ATOM     21  C   UNL     1      10.741  11.760  24.219  0.00  0.00    +0.104 C 
ENDBRANCH   7  11
BRANCH  15   4
ATOM      4  O   UNL     1      11.536   7.170  17.269  0.00  0.00    -0.390 OA
ATOM     30  H   UNL     1      11.000   7.853  16.831  0.00  0.00    +0.210 HD
ENDBRANCH  15   4
ENDBRANCH  20  12
TORSDOF 6
ENDMDL
MODEL 4
REMARK VINA RESULT:      -7.2     16.581     19.818
REMARK  Name = 26743726
REMARK  7 active torsions:
REMARK  status: ('A' for Active; 'I' for Inactive)
REMARK    1  A    between atoms: O_4  and  C_15
REMARK    2  A    between atoms: O_6  and  C_28
REMARK    3  A    between atoms: O_6  and  C_29
REMARK    4  A    between atoms: N_7  and  C_11
REMARK    5  A    between atoms: N_8  and  C_21
REMARK    6  A    between atoms: C_12  and  C_20
REMARK    7  A    between atoms: C_22  and  C_23
REMARK                            x       y       z     vdW  Elec       q    Type
REMARK                         _______ _______ _______ _____ _____    ______ ____
ROOT
ATOM      5  O   UNL     1      12.480   6.190   1.311  0.00  0.00    -0.336 OA
ATOM      9  N   UNL     1      12.218   4.527   2.789  0.00  0.00    -0.190 NA
ATOM     10  N   UNL     1      11.784   6.739   2.396  0.00  0.00    -0.056 NA
ATOM     20  C   UNL     1      12.696   4.885   1.624  0.00  0.00    +0.245 A 
ATOM     22  C   UNL     1      11.668   5.697   3.225  0.00  0.00    +0.202 A 
ENDROOT
BRANCH  22  23
ATOM     23  C   UNL     1      11.008   5.791   4.495  0.00  0.00    +0.023 A 
ATOM     24  C   UNL     1      11.633   6.440   5.560  0.00  0.00    +0.015 A 
ATOM     25  C   UNL     1       9.741   5.234   4.665  0.00  0.00    +0.015 A 
ATOM     26  C   UNL     1      10.992   6.530   6.795  0.00  0.00    +0.046 A 
ATOM     27  C   UNL     1       9.099   5.323   5.899  0.00  0.00    +0.046 A 
ATOM     28  C   UNL     1       9.724   5.972   6.965  0.00  0.00    +0.130 A 
BRANCH  28   6
ATOM      6  O   UNL     1       9.097   6.060   8.170  0.00  0.00    -0.406 OA
BRANCH   6  29
ATOM      1  F   UNL     1       8.415   5.063  10.076  0.00  0.00    -0.133 F 
ATOM      2  F   UNL     1       9.526   3.861   8.630  0.00  0.00    -0.133 F 
ATOM      3  F   UNL     1      10.554   5.420   9.812  0.00  0.00    -0.133 F 
ATOM     29  C   UNL     1       9.414   5.094   9.166  0.00  0.00    +0.575 C 
ENDBRANCH   6  29
ENDBRANCH  28   6
ENDBRANCH  22  23
BRANCH  20  12
ATOM      7  N   UNL     1      13.374   4.640  -0.759  0.00  0.00    -0.286 NA
ATOM     12  C   UNL     1      13.444   4.060   0.598  0.00  0.00    +0.149 C 
ATOM     13  C   UNL     1      14.605   4.244  -1.442  0.00  0.00    +0.116 C 
ATOM     14  C   UNL     1      14.950   3.952   0.903  0.00  0.00    +0.061 C 
ATOM     15  C   UNL     1      15.644   4.452  -0.357  0.00  0.00    +0.130 C 
BRANCH   7  11
ATOM      8  N   UNL     1      10.967   3.198  -3.950  0.00  0.00    -0.305 NA
ATOM     11  C   UNL     1      12.181   4.235  -1.498  0.00  0.00    +0.060 C 
ATOM     16  C   UNL     1      12.281   2.761  -1.899  0.00  0.00    +0.034 C 
ATOM     17  C   UNL     1      11.988   5.103  -2.745  0.00  0.00    +0.034 C 
ATOM     18  C   UNL     1      11.086   2.344  -2.760  0.00  0.00    +0.085 C 
ATOM     19  C   UNL     1      10.803   4.609  -3.579  0.00  0.00    +0.085 C 
ATOM     21  C   UNL     1       9.853   2.755  -4.788  0.00  0.00    +0.104 C 
ENDBRANCH   7  11
BRANCH  15   4
ATOM      4  O   UNL     1      16.822   3.711  -0.609  0.00  0.00    -0.390 OA
ATOM     30  H   UNL     1      16.564   2.907  -1.091  0.00  0.00    +0.210 HD
ENDBRANCH  15   4
ENDBRANCH  20  12
TORSDOF 6
ENDMDL
MODEL 5
REMARK VINA RESULT:      -7.1     30.155     32.740
REMARK  Name = 26743726
REMARK  7 active torsions:
REMARK  status: ('A' for Active; 'I' for Inactive)
REMARK    1  A    between atoms: O_4  and  C_15
REMARK    2  A    between atoms: O_6  and  C_28
REMARK    3  A    between atoms: O_6  and  C_29
REMARK    4  A    between atoms: N_7  and  C_11
REMARK    5  A    between atoms: N_8  and  C_21
REMARK    6  A    between atoms: C_12  and  C_20
REMARK    7  A    between atoms: C_22  and  C_23
REMARK                            x       y       z     vdW  Elec       q    Type
REMARK                         _______ _______ _______ _____ _____    ______ ____
ROOT
ATOM      5  O   UNL     1     -14.281   4.892  34.401  0.00  0.00    -0.336 OA
ATOM      9  N   UNL     1     -14.725   4.827  32.206  0.00  0.00    -0.190 NA
ATOM     10  N   UNL     1     -14.153   3.552  34.017  0.00  0.00    -0.056 NA
ATOM     20  C   UNL     1     -14.620   5.575  33.275  0.00  0.00    +0.245 A 
ATOM     22  C   UNL     1     -14.429   3.594  32.710  0.00  0.00    +0.202 A 
ENDROOT
BRANCH  22  23
ATOM     23  C   UNL     1     -14.420   2.424  31.882  0.00  0.00    +0.023 A 
ATOM     24  C   UNL     1     -14.864   1.204  32.392  0.00  0.00    +0.015 A 
ATOM     25  C   UNL     1     -13.966   2.505  30.566  0.00  0.00    +0.015 A 
ATOM     26  C   UNL     1     -14.853   0.065  31.587  0.00  0.00    +0.046 A 
ATOM     27  C   UNL     1     -13.954   1.367  29.760  0.00  0.00    +0.046 A 
ATOM     28  C   UNL     1     -14.398   0.146  30.270  0.00  0.00    +0.130 A 
BRANCH  28   6
ATOM      6  O   UNL     1     -14.388  -0.964  29.484  0.00  0.00    -0.406 OA
BRANCH   6  29
ATOM      1  F   UNL     1     -12.257  -1.313  30.140  0.00  0.00    -0.133 F 
ATOM      2  F   UNL     1     -13.229  -2.860  28.943  0.00  0.00    -0.133 F 
ATOM      3  F   UNL     1     -12.632  -0.943  28.019  0.00  0.00    -0.133 F 
ATOM     29  C   UNL     1     -13.130  -1.527  29.130  0.00  0.00    +0.575 C 
ENDBRANCH   6  29
ENDBRANCH  28   6
ENDBRANCH  22  23
BRANCH  20  12
ATOM      7  N   UNL     1     -14.024   7.849  32.456  0.00  0.00    -0.286 NA
ATOM     12  C   UNL     1     -14.819   7.069  33.426  0.00  0.00    +0.149 C 
ATOM     13  C   UNL     1     -14.773   9.079  32.203  0.00  0.00    +0.116 C 
ATOM     14  C   UNL     1     -16.276   7.502  33.182  0.00  0.00    +0.061 C 
ATOM     15  C   UNL     1     -16.194   8.561  32.089  0.00  0.00    +0.130 C 
BRANCH   7  11
ATOM      8  N   UNL     1     -10.553  10.045  33.547  0.00  0.00    -0.305 NA
ATOM     11  C   UNL     1     -12.663   8.119  32.912  0.00  0.00    +0.060 C 
ATOM     16  C   UNL     1     -12.688   8.969  34.185  0.00  0.00    +0.034 C 
ATOM     17  C   UNL     1     -11.853   8.832  31.824  0.00  0.00    +0.034 C 
ATOM     18  C   UNL     1     -11.271   9.346  34.622  0.00  0.00    +0.085 C 
ATOM     19  C   UNL     1     -10.462   9.214  32.339  0.00  0.00    +0.085 C 
ATOM     21  C   UNL     1      -9.220  10.444  33.996  0.00  0.00    +0.104 C 
ENDBRANCH   7  11
BRANCH  15   4
ATOM      4  O   UNL     1     -17.145   9.585  32.309  0.00  0.00    -0.390 OA
ATOM     30  H   UNL     1     -17.571   9.776  31.456  0.00  0.00    +0.210 HD
ENDBRANCH  15   4
ENDBRANCH  20  12
TORSDOF 6
ENDMDL
MODEL 6
REMARK VINA RESULT:      -7.1      4.815      9.634
REMARK  Name = 26743726
REMARK  7 active torsions:
REMARK  status: ('A' for Active; 'I' for Inactive)
REMARK    1  A    between atoms: O_4  and  C_15
REMARK    2  A    between atoms: O_6  and  C_28
REMARK    3  A    between atoms: O_6  and  C_29
REMARK    4  A    between atoms: N_7  and  C_11
REMARK    5  A    between atoms: N_8  and  C_21
REMARK    6  A    between atoms: C_12  and  C_20
REMARK    7  A    between atoms: C_22  and  C_23
REMARK                            x       y       z     vdW  Elec       q    Type
REMARK                         _______ _______ _______ _____ _____    ______ ____
ROOT
ATOM      5  O   UNL     1      19.355   8.157  21.599  0.00  0.00    -0.336 OA
ATOM      9  N   UNL     1      18.236   6.365  20.853  0.00  0.00    -0.190 NA
ATOM     10  N   UNL     1      18.026   8.567  21.438  0.00  0.00    -0.056 NA
ATOM     20  C   UNL     1      19.392   6.848  21.233  0.00  0.00    +0.245 A 
ATOM     22  C   UNL     1      17.429   7.456  20.996  0.00  0.00    +0.202 A 
ENDROOT
BRANCH  22  23
ATOM     23  C   UNL     1      16.029   7.403  20.687  0.00  0.00    +0.023 A 
ATOM     24  C   UNL     1      15.085   7.479  21.711  0.00  0.00    +0.015 A 
ATOM     25  C   UNL     1      15.612   7.274  19.363  0.00  0.00    +0.015 A 
ATOM     26  C   UNL     1      13.724   7.426  21.411  0.00  0.00    +0.046 A 
ATOM     27  C   UNL     1      14.252   7.220  19.062  0.00  0.00    +0.046 A 
ATOM     28  C   UNL     1      13.307   7.296  20.086  0.00  0.00    +0.130 A 
BRANCH  28   6
ATOM      6  O   UNL     1      11.979   7.245  19.792  0.00  0.00    -0.406 OA
BRANCH   6  29
ATOM      1  F   UNL     1      10.466   8.551  18.745  0.00  0.00    -0.133 F 
ATOM      2  F   UNL     1      10.402   8.452  20.926  0.00  0.00    -0.133 F 
ATOM      3  F   UNL     1      12.040   9.528  19.904  0.00  0.00    -0.133 F 
ATOM     29  C   UNL     1      11.227   8.451  19.858  0.00  0.00    +0.575 C 
ENDBRANCH   6  29
ENDBRANCH  28   6
ENDBRANCH  22  23
BRANCH  20  12
ATOM      7  N   UNL     1      21.008   5.606  22.661  0.00  0.00    -0.286 NA
ATOM     12  C   UNL     1      20.738   6.161  21.319  0.00  0.00    +0.149 C 
ATOM     13  C   UNL     1      21.875   4.446  22.462  0.00  0.00    +0.116 C 
ATOM     14  C   UNL     1      20.856   4.959  20.364  0.00  0.00    +0.061 C 
ATOM     15  C   UNL     1      21.238   3.783  21.255  0.00  0.00    +0.130 C 
BRANCH   7  11
ATOM      8  N   UNL     1      22.417   7.304  26.293  0.00  0.00    -0.305 NA
ATOM     11  C   UNL     1      21.594   6.578  23.580  0.00  0.00    +0.060 C 
ATOM     16  C   UNL     1      22.850   5.998  24.236  0.00  0.00    +0.034 C 
ATOM     17  C   UNL     1      20.586   6.992  24.657  0.00  0.00    +0.034 C 
ATOM     18  C   UNL     1      23.423   6.964  25.276  0.00  0.00    +0.085 C 
ATOM     19  C   UNL     1      21.233   7.925  25.684  0.00  0.00    +0.085 C 
ATOM     21  C   UNL     1      22.994   8.187  27.307  0.00  0.00    +0.104 C 
ENDBRANCH   7  11
BRANCH  15   4
ATOM      4  O   UNL     1      22.142   2.923  20.590  0.00  0.00    -0.390 OA
ATOM     30  H   UNL     1      22.861   3.472  20.235  0.00  0.00    +0.210 HD
ENDBRANCH  15   4
ENDBRANCH  20  12
TORSDOF 6
ENDMDL
MODEL 7
REMARK VINA RESULT:      -7.0     26.287     29.028
REMARK  Name = 26743726
REMARK  7 active torsions:
REMARK  status: ('A' for Active; 'I' for Inactive)
REMARK    1  A    between atoms: O_4  and  C_15
REMARK    2  A    between atoms: O_6  and  C_28
REMARK    3  A    between atoms: O_6  and  C_29
REMARK    4  A    between atoms: N_7  and  C_11
REMARK    5  A    between atoms: N_8  and  C_21
REMARK    6  A    between atoms: C_12  and  C_20
REMARK    7  A    between atoms: C_22  and  C_23
REMARK                            x       y       z     vdW  Elec       q    Type
REMARK                         _______ _______ _______ _____ _____    ______ ____
ROOT
ATOM      5  O   UNL     1      -6.527 -11.646  16.988  0.00  0.00    -0.336 OA
ATOM      9  N   UNL     1      -5.917  -9.761  15.943  0.00  0.00    -0.190 NA
ATOM     10  N   UNL     1      -5.480 -12.000  16.128  0.00  0.00    -0.056 NA
ATOM     20  C   UNL     1      -6.721 -10.312  16.816  0.00  0.00    +0.245 A 
ATOM     22  C   UNL     1      -5.173 -10.835  15.547  0.00  0.00    +0.202 A 
ENDROOT
BRANCH  22  23
ATOM     23  C   UNL     1      -4.133 -10.712  14.568  0.00  0.00    +0.023 A 
ATOM     24  C   UNL     1      -2.796 -10.713  14.967  0.00  0.00    +0.015 A 
ATOM     25  C   UNL     1      -4.457 -10.590  13.217  0.00  0.00    +0.015 A 
ATOM     26  C   UNL     1      -1.784 -10.591  14.015  0.00  0.00    +0.046 A 
ATOM     27  C   UNL     1      -3.446 -10.468  12.265  0.00  0.00    +0.046 A 
ATOM     28  C   UNL     1      -2.109 -10.469  12.663  0.00  0.00    +0.130 A 
BRANCH  28   6
ATOM      6  O   UNL     1      -1.122 -10.350  11.734  0.00  0.00    -0.406 OA
BRANCH   6  29
ATOM      1  F   UNL     1       0.406  -9.135  10.600  0.00  0.00    -0.133 F 
ATOM      2  F   UNL     1      -1.672  -8.462  10.567  0.00  0.00    -0.133 F 
ATOM      3  F   UNL     1      -0.463  -8.266  12.407  0.00  0.00    -0.133 F 
ATOM     29  C   UNL     1      -0.726  -9.043  11.334  0.00  0.00    +0.575 C 
ENDBRANCH   6  29
ENDBRANCH  28   6
ENDBRANCH  22  23
BRANCH  20  12
ATOM      7  N   UNL     1      -9.162  -9.911  17.089  0.00  0.00    -0.286 NA
ATOM     12  C   UNL     1      -7.816  -9.676  17.648  0.00  0.00    +0.149 C 
ATOM     13  C   UNL     1     -10.085  -9.918  18.223  0.00  0.00    +0.116 C 
ATOM     14  C   UNL     1      -7.879 -10.240  19.079  0.00  0.00    +0.061 C 
ATOM     15  C   UNL     1      -9.313 -10.727  19.248  0.00  0.00    +0.130 C 
BRANCH   7  11
ATOM      8  N   UNL     1     -11.556  -7.129  14.944  0.00  0.00    -0.305 NA
ATOM     11  C   UNL     1      -9.545  -8.929  16.077  0.00  0.00    +0.060 C 
ATOM     16  C   UNL     1      -9.920  -7.602  16.740  0.00  0.00    +0.034 C 
ATOM     17  C   UNL     1     -10.717  -9.440  15.233  0.00  0.00    +0.034 C 
ATOM     18  C   UNL     1     -10.419  -6.591  15.704  0.00  0.00    +0.085 C 
ATOM     19  C   UNL     1     -11.191  -8.370  14.246  0.00  0.00    +0.085 C 
ATOM     21  C   UNL     1     -12.053  -6.135  13.995  0.00  0.00    +0.104 C 
ENDBRANCH   7  11
BRANCH  15   4
ATOM      4  O   UNL     1      -9.774 -10.486  20.563  0.00  0.00    -0.390 OA
ATOM     30  H   UNL     1      -9.748  -9.526  20.710  0.00  0.00    +0.210 HD
ENDBRANCH  15   4
ENDBRANCH  20  12
TORSDOF 6
ENDMDL
MODEL 8
REMARK VINA RESULT:      -7.0     26.871     30.022
REMARK  Name = 26743726
REMARK  7 active torsions:
REMARK  status: ('A' for Active; 'I' for Inactive)
REMARK    1  A    between atoms: O_4  and  C_15
REMARK    2  A    between atoms: O_6  and  C_28
REMARK    3  A    between atoms: O_6  and  C_29
REMARK    4  A    between atoms: N_7  and  C_11
REMARK    5  A    between atoms: N_8  and  C_21
REMARK    6  A    between atoms: C_12  and  C_20
REMARK    7  A    between atoms: C_22  and  C_23
REMARK                            x       y       z     vdW  Elec       q    Type
REMARK                         _______ _______ _______ _____ _____    ______ ____
ROOT
ATOM      5  O   UNL     1      -5.009 -10.906  17.354  0.00  0.00    -0.336 OA
ATOM      9  N   UNL     1      -5.901 -10.139  15.448  0.00  0.00    -0.190 NA
ATOM     10  N   UNL     1      -6.279 -10.419  17.687  0.00  0.00    -0.056 NA
ATOM     20  C   UNL     1      -4.866 -10.703  16.017  0.00  0.00    +0.245 A 
ATOM     22  C   UNL     1      -6.742  -9.984  16.511  0.00  0.00    +0.202 A 
ENDROOT
BRANCH  22  23
ATOM     23  C   UNL     1      -8.039  -9.389  16.365  0.00  0.00    +0.023 A 
ATOM     24  C   UNL     1      -8.652  -8.775  17.458  0.00  0.00    +0.015 A 
ATOM     25  C   UNL     1      -8.689  -9.425  15.132  0.00  0.00    +0.015 A 
ATOM     26  C   UNL     1      -9.914  -8.198  17.317  0.00  0.00    +0.046 A 
ATOM     27  C   UNL     1      -9.950  -8.849  14.990  0.00  0.00    +0.046 A 
ATOM     28  C   UNL     1     -10.563  -8.235  16.083  0.00  0.00    +0.130 A 
BRANCH  28   6
ATOM      6  O   UNL     1     -11.795  -7.672  15.944  0.00  0.00    -0.406 OA
BRANCH   6  29
ATOM      1  F   UNL     1     -11.303  -5.617  16.739  0.00  0.00    -0.133 F 
ATOM      2  F   UNL     1     -11.200  -5.935  14.581  0.00  0.00    -0.133 F 
ATOM      3  F   UNL     1     -13.156  -5.865  15.608  0.00  0.00    -0.133 F 
ATOM     29  C   UNL     1     -11.872  -6.272  15.701  0.00  0.00    +0.575 C 
ENDBRANCH   6  29
ENDBRANCH  28   6
ENDBRANCH  22  23
BRANCH  20  12
ATOM      7  N   UNL     1      -3.250 -10.446  14.142  0.00  0.00    -0.286 NA
ATOM     12  C   UNL     1      -3.558 -11.153  15.402  0.00  0.00    +0.149 C 
ATOM     13  C   UNL     1      -1.792 -10.398  14.041  0.00  0.00    +0.116 C 
ATOM     14  C   UNL     1      -2.347 -10.881  16.313  0.00  0.00    +0.061 C 
ATOM     15  C   UNL     1      -1.392 -10.052  15.463  0.00  0.00    +0.130 C 
BRANCH   7  11
ATOM      8  N   UNL     1      -4.158 -11.209  10.061  0.00  0.00    -0.305 NA
ATOM     11  C   UNL     1      -3.861 -11.066  12.969  0.00  0.00    +0.060 C 
ATOM     16  C   UNL     1      -2.783 -11.670  12.066  0.00  0.00    +0.034 C 
ATOM     17  C   UNL     1      -4.691 -10.048  12.181  0.00  0.00    +0.034 C 
ATOM     18  C   UNL     1      -3.395 -12.237  10.783  0.00  0.00    +0.085 C 
ATOM     19  C   UNL     1      -5.241 -10.668  10.893  0.00  0.00    +0.085 C 
ATOM     21  C   UNL     1      -4.694 -11.752   8.813  0.00  0.00    +0.104 C 
ENDBRANCH   7  11
BRANCH  15   4
ATOM      4  O   UNL     1      -0.048 -10.402  15.731  0.00  0.00    -0.390 OA
ATOM     30  H   UNL     1       0.133 -11.238  15.269  0.00  0.00    +0.210 HD
ENDBRANCH  15   4
ENDBRANCH  20  12
TORSDOF 6
ENDMDL
MODEL 9
REMARK VINA RESULT:      -6.9     29.550     32.775
REMARK  Name = 26743726
REMARK  7 active torsions:
REMARK  status: ('A' for Active; 'I' for Inactive)
REMARK    1  A    between atoms: O_4  and  C_15
REMARK    2  A    between atoms: O_6  and  C_28
REMARK    3  A    between atoms: O_6  and  C_29
REMARK    4  A    between atoms: N_7  and  C_11
REMARK    5  A    between atoms: N_8  and  C_21
REMARK    6  A    between atoms: C_12  and  C_20
REMARK    7  A    between atoms: C_22  and  C_23
REMARK                            x       y       z     vdW  Elec       q    Type
REMARK                         _______ _______ _______ _____ _____    ______ ____
ROOT
ATOM      5  O   UNL     1     -16.838   2.322  23.735  0.00  0.00    -0.336 OA
ATOM      9  N   UNL     1     -15.377   3.715  24.706  0.00  0.00    -0.190 NA
ATOM     10  N   UNL     1     -16.426   3.213  22.735  0.00  0.00    -0.056 NA
ATOM     20  C   UNL     1     -16.173   2.688  24.863  0.00  0.00    +0.245 A 
ATOM     22  C   UNL     1     -15.565   4.002  23.385  0.00  0.00    +0.202 A 
ENDROOT
BRANCH  22  23
ATOM     23  C   UNL     1     -14.879   5.087  22.745  0.00  0.00    +0.023 A 
ATOM     24  C   UNL     1     -13.562   4.923  22.314  0.00  0.00    +0.015 A 
ATOM     25  C   UNL     1     -15.528   6.306  22.554  0.00  0.00    +0.015 A 
ATOM     26  C   UNL     1     -12.895   5.978  21.694  0.00  0.00    +0.046 A 
ATOM     27  C   UNL     1     -14.861   7.362  21.933  0.00  0.00    +0.046 A 
ATOM     28  C   UNL     1     -13.544   7.198  21.503  0.00  0.00    +0.130 A 
BRANCH  28   6
ATOM      6  O   UNL     1     -12.893   8.228  20.897  0.00  0.00    -0.406 OA
BRANCH   6  29
ATOM      1  F   UNL     1     -12.721   9.400  18.976  0.00  0.00    -0.133 F 
ATOM      2  F   UNL     1     -11.453   7.639  19.221  0.00  0.00    -0.133 F 
ATOM      3  F   UNL     1     -13.626   7.414  18.890  0.00  0.00    -0.133 F 
ATOM     29  C   UNL     1     -12.671   8.152  19.493  0.00  0.00    +0.575 C 
ENDBRANCH   6  29
ENDBRANCH  28   6
ENDBRANCH  22  23
BRANCH  20  12
ATOM      7  N   UNL     1     -17.223   2.610  27.118  0.00  0.00    -0.286 NA
ATOM     12  C   UNL     1     -16.448   1.866  26.104  0.00  0.00    +0.149 C 
ATOM     13  C   UNL     1     -18.000   1.615  27.857  0.00  0.00    +0.116 C 
ATOM     14  C   UNL     1     -17.286   0.608  25.812  0.00  0.00    +0.061 C 
ATOM     15  C   UNL     1     -18.489   0.711  26.741  0.00  0.00    +0.130 C 
BRANCH   7  11
ATOM      8  N   UNL     1     -15.569   4.169  30.709  0.00  0.00    -0.305 NA
ATOM     11  C   UNL     1     -16.388   3.421  28.001  0.00  0.00    +0.060 C 
ATOM     16  C   UNL     1     -15.500   2.522  28.864  0.00  0.00    +0.034 C 
ATOM     17  C   UNL     1     -17.248   4.318  28.896  0.00  0.00    +0.034 C 
ATOM     18  C   UNL     1     -14.689   3.348  29.866  0.00  0.00    +0.085 C 
ATOM     19  C   UNL     1     -16.381   5.086  29.898  0.00  0.00    +0.085 C 
ATOM     21  C   UNL     1     -14.785   4.914  31.694  0.00  0.00    +0.104 C 
ENDBRANCH   7  11
BRANCH  15   4
ATOM      4  O   UNL     1     -18.861  -0.565  27.225  0.00  0.00    -0.390 OA
ATOM     30  H   UNL     1     -18.668  -0.584  28.177  0.00  0.00    +0.210 HD
ENDBRANCH  15   4
ENDBRANCH  20  12
TORSDOF 6
ENDMDL
MODEL 10
REMARK VINA RESULT:      -6.8     17.300     20.578
REMARK  Name = 26743726
REMARK  7 active torsions:
REMARK  status: ('A' for Active; 'I' for Inactive)
REMARK    1  A    between atoms: O_4  and  C_15
REMARK    2  A    between atoms: O_6  and  C_28
REMARK    3  A    between atoms: O_6  and  C_29
REMARK    4  A    between atoms: N_7  and  C_11
REMARK    5  A    between atoms: N_8  and  C_21
REMARK    6  A    between atoms: C_12  and  C_20
REMARK    7  A    between atoms: C_22  and  C_23
REMARK                            x       y       z     vdW  Elec       q    Type
REMARK                         _______ _______ _______ _____ _____    ______ ____
ROOT
ATOM      5  O   UNL     1      10.731   3.919   0.328  0.00  0.00    -0.336 OA
ATOM      9  N   UNL     1      11.857   4.607   2.139  0.00  0.00    -0.190 NA
ATOM     10  N   UNL     1       9.773   4.434   1.211  0.00  0.00    -0.056 NA
ATOM     20  C   UNL     1      11.931   4.059   0.952  0.00  0.00    +0.245 A 
ATOM     22  C   UNL     1      10.514   4.820   2.254  0.00  0.00    +0.202 A 
ENDROOT
BRANCH  22  23
ATOM     23  C   UNL     1       9.944   5.419   3.426  0.00  0.00    +0.023 A 
ATOM     24  C   UNL     1       9.427   6.713   3.367  0.00  0.00    +0.015 A 
ATOM     25  C   UNL     1       9.909   4.708   4.625  0.00  0.00    +0.015 A 
ATOM     26  C   UNL     1       8.875   7.296   4.507  0.00  0.00    +0.046 A 
ATOM     27  C   UNL     1       9.357   5.291   5.765  0.00  0.00    +0.046 A 
ATOM     28  C   UNL     1       8.839   6.585   5.707  0.00  0.00    +0.130 A 
BRANCH  28   6
ATOM      6  O   UNL     1       8.300   7.153   6.820  0.00  0.00    -0.406 OA
BRANCH   6  29
ATOM      1  F   UNL     1       9.028   6.456   8.839  0.00  0.00    -0.133 F 
ATOM      2  F   UNL     1      10.452   7.466   7.526  0.00  0.00    -0.133 F 
ATOM      3  F   UNL     1       8.832   8.606   8.504  0.00  0.00    -0.133 F 
ATOM     29  C   UNL     1       9.161   7.436   7.917  0.00  0.00    +0.575 C 
ENDBRANCH   6  29
ENDBRANCH  28   6
ENDBRANCH  22  23
BRANCH  20  12
ATOM      7  N   UNL     1      13.593   4.527  -0.840  0.00  0.00    -0.286 NA
ATOM     12  C   UNL     1      13.147   3.571   0.193  0.00  0.00    +0.149 C 
ATOM     13  C   UNL     1      15.038   4.344  -0.975  0.00  0.00    +0.116 C 
ATOM     14  C   UNL     1      14.374   3.370   1.101  0.00  0.00    +0.061 C 
ATOM     15  C   UNL     1      15.473   4.218   0.472  0.00  0.00    +0.130 C 
BRANCH   7  11
ATOM      8  N   UNL     1      12.787   3.189  -4.793  0.00  0.00    -0.305 NA
ATOM     11  C   UNL     1      12.898   4.364  -2.115  0.00  0.00    +0.060 C 
ATOM     16  C   UNL     1      12.555   2.890  -2.347  0.00  0.00    +0.034 C 
ATOM     17  C   UNL     1      13.749   4.891  -3.274  0.00  0.00    +0.034 C 
ATOM     18  C   UNL     1      11.915   2.685  -3.723  0.00  0.00    +0.085 C 
ATOM     19  C   UNL     1      13.070   4.620  -4.620  0.00  0.00    +0.085 C 
ATOM     21  C   UNL     1      12.185   2.941  -6.102  0.00  0.00    +0.104 C 
ENDBRANCH   7  11
BRANCH  15   4
ATOM      4  O   UNL     1      16.729   3.578   0.589  0.00  0.00    -0.390 OA
ATOM     30  H   UNL     1      16.635   2.681   0.227  0.00  0.00    +0.210 HD
ENDBRANCH  15   4
ENDBRANCH  20  12
TORSDOF 6
ENDMDL
