MODEL 1
REMARK VINA RESULT:      -7.9      0.000      0.000
REMARK  Name = 11943270
REMARK  6 active torsions:
REMARK  status: ('A' for Active; 'I' for Inactive)
REMARK    1  A    between atoms: O_6  and  C_29
REMARK    2  A    between atoms: N_7  and  C_16
REMARK    3  A    between atoms: C_16  and  C_21
REMARK    4  A    between atoms: C_19  and  C_22
REMARK    5  A    between atoms: C_24  and  C_29
REMARK    6  A    between atoms: C_28  and  C_32
REMARK                            x       y       z     vdW  Elec       q    Type
REMARK                         _______ _______ _______ _____ _____    ______ ____
ROOT
ATOM      4  O   UNL     1      12.541   7.072   3.586  0.00  0.00    -0.267 OA
ATOM      7  N   UNL     1      13.248   5.341  -1.067  0.00  0.00    -0.294 NA
ATOM      8  N   UNL     1      13.121   5.353   2.119  0.00  0.00    -0.311 N 
ATOM      9  C   UNL     1      15.150   5.489   0.560  0.00  0.00    +0.024 C 
ATOM     10  C   UNL     1      13.734   3.492   0.541  0.00  0.00    +0.050 C 
ATOM     11  C   UNL     1      15.174   3.973   0.700  0.00  0.00    +0.017 C 
ATOM     12  C   UNL     1      14.591   5.883  -0.823  0.00  0.00    +0.090 C 
ATOM     13  C   UNL     1      13.211   3.886  -0.859  0.00  0.00    +0.094 C 
ATOM     14  C   UNL     1      14.333   6.081   1.716  0.00  0.00    +0.130 C 
ATOM     15  C   UNL     1      12.846   4.077   1.623  0.00  0.00    +0.026 A 
ATOM     17  C   UNL     1      11.796   3.384   2.089  0.00  0.00    +0.022 A 
ATOM     18  C   UNL     1      12.313   5.963   3.100  0.00  0.00    +0.259 A 
ATOM     19  C   UNL     1      11.121   5.176   3.577  0.00  0.00    +0.047 A 
ATOM     20  C   UNL     1      10.919   3.948   3.076  0.00  0.00    +0.015 A 
ENDROOT
BRANCH  19  22
ATOM     22  C   UNL     1      10.185   5.735   4.569  0.00  0.00    -0.012 A 
ATOM     26  C   UNL     1      10.308   5.391   5.916  0.00  0.00    +0.021 A 
ATOM     27  C   UNL     1       9.178   6.610   4.162  0.00  0.00    +0.009 A 
ATOM     28  C   UNL     1       9.423   5.923   6.854  0.00  0.00    +0.055 A 
ATOM     30  C   UNL     1       8.293   7.140   5.101  0.00  0.00    +0.001 A 
ATOM     31  C   UNL     1       8.415   6.796   6.447  0.00  0.00    +0.012 A 
BRANCH  28  32
ATOM      1  F   UNL     1      10.785   5.832   8.818  0.00  0.00    -0.166 F 
ATOM      2  F   UNL     1       8.668   6.203   9.108  0.00  0.00    -0.166 F 
ATOM      3  F   UNL     1       9.353   4.224   8.517  0.00  0.00    -0.166 F 
ATOM     32  C   UNL     1       9.555   5.555   8.294  0.00  0.00    +0.417 C 
ENDBRANCH  28  32
ENDBRANCH  19  22
BRANCH   7  16
ATOM     16  C   UNL     1      12.777   5.691  -2.406  0.00  0.00    +0.158 C 
BRANCH  16  21
ATOM      5  O   UNL     1      11.226   4.189  -3.460  0.00  0.00    -0.461 OA
ATOM     21  C   UNL     1      11.362   5.228  -2.618  0.00  0.00    +0.119 A 
ATOM     23  C   UNL     1      10.182   5.661  -2.120  0.00  0.00    +0.046 A 
ATOM     24  C   UNL     1       9.891   3.938  -3.507  0.00  0.00    +0.131 A 
ATOM     25  C   UNL     1       9.206   4.816  -2.699  0.00  0.00    +0.047 A 
BRANCH  24  29
ATOM     29  C   UNL     1       9.468   2.828  -4.372  0.00  0.00    +0.230 C 
BRANCH  29   6
ATOM      6  O   UNL     1       9.006   1.765  -3.536  0.00  0.00    -0.387 OA
ATOM     33  H   UNL     1       9.205   0.934  -3.999  0.00  0.00    +0.210 HD
ENDBRANCH  29   6
ENDBRANCH  24  29
ENDBRANCH  16  21
ENDBRANCH   7  16
TORSDOF 6
ENDMDL
MODEL 2
REMARK VINA RESULT:      -7.3     23.464     26.119
REMARK  Name = 11943270
REMARK  6 active torsions:
REMARK  status: ('A' for Active; 'I' for Inactive)
REMARK    1  A    between atoms: O_6  and  C_29
REMARK    2  A    between atoms: N_7  and  C_16
REMARK    3  A    between atoms: C_16  and  C_21
REMARK    4  A    between atoms: C_19  and  C_22
REMARK    5  A    between atoms: C_24  and  C_29
REMARK    6  A    between atoms: C_28  and  C_32
REMARK                            x       y       z     vdW  Elec       q    Type
REMARK                         _______ _______ _______ _____ _____    ______ ____
ROOT
ATOM      4  O   UNL     1      -6.269 -11.697  10.988  0.00  0.00    -0.267 OA
ATOM      7  N   UNL     1      -3.118 -11.070  14.838  0.00  0.00    -0.294 NA
ATOM      8  N   UNL     1      -4.106 -11.629  11.858  0.00  0.00    -0.311 N 
ATOM      9  C   UNL     1      -3.279 -13.269  13.644  0.00  0.00    +0.024 C 
ATOM     10  C   UNL     1      -1.769 -11.542  12.789  0.00  0.00    +0.050 C 
ATOM     11  C   UNL     1      -1.914 -13.046  13.007  0.00  0.00    +0.017 C 
ATOM     12  C   UNL     1      -3.367 -12.510  14.985  0.00  0.00    +0.090 C 
ATOM     13  C   UNL     1      -1.844 -10.814  14.150  0.00  0.00    +0.094 C 
ATOM     14  C   UNL     1      -4.366 -12.839  12.651  0.00  0.00    +0.130 C 
ATOM     15  C   UNL     1      -2.846 -11.027  11.852  0.00  0.00    +0.026 A 
ATOM     17  C   UNL     1      -2.597  -9.991  11.035  0.00  0.00    +0.022 A 
ATOM     18  C   UNL     1      -5.155 -11.173  11.035  0.00  0.00    +0.259 A 
ATOM     19  C   UNL     1      -4.857  -9.987  10.156  0.00  0.00    +0.047 A 
ATOM     20  C   UNL     1      -3.623  -9.462  10.181  0.00  0.00    +0.015 A 
ENDROOT
BRANCH  19  22
ATOM     22  C   UNL     1      -5.894  -9.402   9.288  0.00  0.00    -0.012 A 
ATOM     26  C   UNL     1      -5.877  -9.650   7.915  0.00  0.00    +0.021 A 
ATOM     27  C   UNL     1      -6.895  -8.601   9.838  0.00  0.00    +0.009 A 
ATOM     28  C   UNL     1      -6.859  -9.097   7.093  0.00  0.00    +0.055 A 
ATOM     30  C   UNL     1      -7.877  -8.048   9.016  0.00  0.00    +0.001 A 
ATOM     31  C   UNL     1      -7.859  -8.296   7.644  0.00  0.00    +0.012 A 
BRANCH  28  32
ATOM      1  F   UNL     1      -7.991  -9.931   5.158  0.00  0.00    -0.166 F 
ATOM      2  F   UNL     1      -6.665  -8.240   4.868  0.00  0.00    -0.166 F 
ATOM      3  F   UNL     1      -5.838 -10.213   5.259  0.00  0.00    -0.166 F 
ATOM     32  C   UNL     1      -6.841  -9.363   5.626  0.00  0.00    +0.417 C 
ENDBRANCH  28  32
ENDBRANCH  19  22
BRANCH   7  16
ATOM     16  C   UNL     1      -3.157 -10.397  16.135  0.00  0.00    +0.158 C 
BRANCH  16  21
ATOM      5  O   UNL     1      -4.780 -10.861  17.844  0.00  0.00    -0.461 OA
ATOM     21  C   UNL     1      -4.567 -10.290  16.647  0.00  0.00    +0.119 A 
ATOM     23  C   UNL     1      -5.679  -9.723  16.127  0.00  0.00    +0.046 A 
ATOM     24  C   UNL     1      -6.096 -10.652  18.112  0.00  0.00    +0.131 A 
ATOM     25  C   UNL     1      -6.693  -9.956  17.087  0.00  0.00    +0.047 A 
BRANCH  24  29
ATOM     29  C   UNL     1      -6.593 -11.187  19.387  0.00  0.00    +0.230 C 
BRANCH  29   6
ATOM      6  O   UNL     1      -7.448 -10.206  19.978  0.00  0.00    -0.387 OA
ATOM     33  H   UNL     1      -6.874  -9.502  20.325  0.00  0.00    +0.210 HD
ENDBRANCH  29   6
ENDBRANCH  24  29
ENDBRANCH  16  21
ENDBRANCH   7  16
TORSDOF 6
ENDMDL
MODEL 3
REMARK VINA RESULT:      -7.3      2.483      2.956
REMARK  Name = 11943270
REMARK  6 active torsions:
REMARK  status: ('A' for Active; 'I' for Inactive)
REMARK    1  A    between atoms: O_6  and  C_29
REMARK    2  A    between atoms: N_7  and  C_16
REMARK    3  A    between atoms: C_16  and  C_21
REMARK    4  A    between atoms: C_19  and  C_22
REMARK    5  A    between atoms: C_24  and  C_29
REMARK    6  A    between atoms: C_28  and  C_32
REMARK                            x       y       z     vdW  Elec       q    Type
REMARK                         _______ _______ _______ _____ _____    ______ ____
ROOT
ATOM      4  O   UNL     1      12.305   7.517   3.251  0.00  0.00    -0.267 OA
ATOM      7  N   UNL     1      13.393   4.717  -0.765  0.00  0.00    -0.294 NA
ATOM      8  N   UNL     1      12.858   5.465   2.289  0.00  0.00    -0.311 N 
ATOM      9  C   UNL     1      15.072   5.062   1.065  0.00  0.00    +0.024 C 
ATOM     10  C   UNL     1      13.441   3.246   1.254  0.00  0.00    +0.050 C 
ATOM     11  C   UNL     1      14.895   3.621   1.526  0.00  0.00    +0.017 C 
ATOM     12  C   UNL     1      14.749   5.179  -0.439  0.00  0.00    +0.090 C 
ATOM     13  C   UNL     1      13.154   3.357  -0.261  0.00  0.00    +0.094 C 
ATOM     14  C   UNL     1      14.190   5.970   1.930  0.00  0.00    +0.130 C 
ATOM     15  C   UNL     1      12.498   4.139   2.038  0.00  0.00    +0.026 A 
ATOM     17  C   UNL     1      11.319   3.666   2.474  0.00  0.00    +0.022 A 
ATOM     18  C   UNL     1      12.009   6.350   2.982  0.00  0.00    +0.259 A 
ATOM     19  C   UNL     1      10.679   5.802   3.428  0.00  0.00    +0.047 A 
ATOM     20  C   UNL     1      10.397   4.516   3.174  0.00  0.00    +0.015 A 
ENDROOT
BRANCH  19  22
ATOM     22  C   UNL     1       9.698   6.653   4.123  0.00  0.00    -0.012 A 
ATOM     26  C   UNL     1       8.959   7.595   3.406  0.00  0.00    +0.021 A 
ATOM     27  C   UNL     1       9.505   6.516   5.498  0.00  0.00    +0.009 A 
ATOM     28  C   UNL     1       8.028   8.400   4.064  0.00  0.00    +0.055 A 
ATOM     30  C   UNL     1       8.574   7.322   6.156  0.00  0.00    +0.001 A 
ATOM     31  C   UNL     1       7.837   8.263   5.439  0.00  0.00    +0.012 A 
BRANCH  28  32
ATOM      1  F   UNL     1       6.018   9.677   3.848  0.00  0.00    -0.166 F 
ATOM      2  F   UNL     1       7.856  10.619   3.187  0.00  0.00    -0.166 F 
ATOM      3  F   UNL     1       6.981   9.008   2.018  0.00  0.00    -0.166 F 
ATOM     32  C   UNL     1       7.238   9.406   3.297  0.00  0.00    +0.417 C 
ENDBRANCH  28  32
ENDBRANCH  19  22
BRANCH   7  16
ATOM     16  C   UNL     1      13.145   4.794  -2.203  0.00  0.00    +0.158 C 
BRANCH  16  21
ATOM      5  O   UNL     1      11.399   3.529  -3.263  0.00  0.00    -0.461 OA
ATOM     21  C   UNL     1      11.685   4.604  -2.510  0.00  0.00    +0.119 A 
ATOM     23  C   UNL     1      10.587   5.316  -2.170  0.00  0.00    +0.046 A 
ATOM     24  C   UNL     1      10.049   3.547  -3.417  0.00  0.00    +0.131 A 
ATOM     25  C   UNL     1       9.503   4.627  -2.763  0.00  0.00    +0.047 A 
BRANCH  24  29
ATOM     29  C   UNL     1       9.471   2.457  -4.216  0.00  0.00    +0.230 C 
BRANCH  29   6
ATOM      6  O   UNL     1       9.086   1.410  -3.324  0.00  0.00    -0.387 OA
ATOM     33  H   UNL     1       9.344   1.689  -2.430  0.00  0.00    +0.210 HD
ENDBRANCH  29   6
ENDBRANCH  24  29
ENDBRANCH  16  21
ENDBRANCH   7  16
TORSDOF 6
ENDMDL
MODEL 4
REMARK VINA RESULT:      -7.3     15.480     19.445
REMARK  Name = 11943270
REMARK  6 active torsions:
REMARK  status: ('A' for Active; 'I' for Inactive)
REMARK    1  A    between atoms: O_6  and  C_29
REMARK    2  A    between atoms: N_7  and  C_16
REMARK    3  A    between atoms: C_16  and  C_21
REMARK    4  A    between atoms: C_19  and  C_22
REMARK    5  A    between atoms: C_24  and  C_29
REMARK    6  A    between atoms: C_28  and  C_32
REMARK                            x       y       z     vdW  Elec       q    Type
REMARK                         _______ _______ _______ _____ _____    ______ ____
ROOT
ATOM      4  O   UNL     1      14.120  11.384  21.901  0.00  0.00    -0.267 OA
ATOM      7  N   UNL     1      13.926   8.237  18.002  0.00  0.00    -0.294 NA
ATOM      8  N   UNL     1      13.492   9.344  20.961  0.00  0.00    -0.311 N 
ATOM      9  C   UNL     1      15.194   7.643  20.081  0.00  0.00    +0.024 C 
ATOM     10  C   UNL     1      12.801   7.147  19.948  0.00  0.00    +0.050 C 
ATOM     11  C   UNL     1      14.137   6.613  20.456  0.00  0.00    +0.017 C 
ATOM     12  C   UNL     1      15.227   7.834  18.550  0.00  0.00    +0.090 C 
ATOM     13  C   UNL     1      12.860   7.310  18.412  0.00  0.00    +0.094 C 
ATOM     14  C   UNL     1      14.902   8.948  20.833  0.00  0.00    +0.130 C 
ATOM     15  C   UNL     1      12.462   8.469  20.610  0.00  0.00    +0.026 A 
ATOM     17  C   UNL     1      11.183   8.806  20.840  0.00  0.00    +0.022 A 
ATOM     18  C   UNL     1      13.238  10.600  21.547  0.00  0.00    +0.259 A 
ATOM     19  C   UNL     1      11.793  10.965  21.761  0.00  0.00    +0.047 A 
ATOM     20  C   UNL     1      10.848  10.077  21.419  0.00  0.00    +0.015 A 
ENDROOT
BRANCH  19  22
ATOM     22  C   UNL     1      11.412  12.272  22.327  0.00  0.00    -0.012 A 
ATOM     26  C   UNL     1      11.364  12.446  23.711  0.00  0.00    +0.021 A 
ATOM     27  C   UNL     1      11.101  13.335  21.480  0.00  0.00    +0.009 A 
ATOM     28  C   UNL     1      11.006  13.683  24.246  0.00  0.00    +0.055 A 
ATOM     30  C   UNL     1      10.742  14.573  22.016  0.00  0.00    +0.001 A 
ATOM     31  C   UNL     1      10.694  14.746  23.398  0.00  0.00    +0.012 A 
BRANCH  28  32
ATOM      1  F   UNL     1      12.172  13.746  26.333  0.00  0.00    -0.166 F 
ATOM      2  F   UNL     1      10.489  15.095  26.108  0.00  0.00    -0.166 F 
ATOM      3  F   UNL     1      10.145  12.960  26.342  0.00  0.00    -0.166 F 
ATOM     32  C   UNL     1      10.955  13.869  25.725  0.00  0.00    +0.417 C 
ENDBRANCH  28  32
ENDBRANCH  19  22
BRANCH   7  16
ATOM     16  C   UNL     1      13.984   8.356  16.547  0.00  0.00    +0.158 C 
BRANCH  16  21
ATOM      5  O   UNL     1      14.540   9.967  14.853  0.00  0.00    -0.461 OA
ATOM     21  C   UNL     1      14.153   9.790  16.127  0.00  0.00    +0.119 A 
ATOM     23  C   UNL     1      13.988  10.955  16.795  0.00  0.00    +0.046 A 
ATOM     24  C   UNL     1      14.630  11.313  14.688  0.00  0.00    +0.131 A 
ATOM     25  C   UNL     1      14.300  11.964  15.854  0.00  0.00    +0.047 A 
BRANCH  24  29
ATOM     29  C   UNL     1      15.042  11.779  13.357  0.00  0.00    +0.230 C 
BRANCH  29   6
ATOM      6  O   UNL     1      15.647  10.682  12.671  0.00  0.00    -0.387 OA
ATOM     33  H   UNL     1      14.925  10.144  12.304  0.00  0.00    +0.210 HD
ENDBRANCH  29   6
ENDBRANCH  24  29
ENDBRANCH  16  21
ENDBRANCH   7  16
TORSDOF 6
ENDMDL
MODEL 5
REMARK VINA RESULT:      -7.1     25.496     29.079
REMARK  Name = 11943270
REMARK  6 active torsions:
REMARK  status: ('A' for Active; 'I' for Inactive)
REMARK    1  A    between atoms: O_6  and  C_29
REMARK    2  A    between atoms: N_7  and  C_16
REMARK    3  A    between atoms: C_16  and  C_21
REMARK    4  A    between atoms: C_19  and  C_22
REMARK    5  A    between atoms: C_24  and  C_29
REMARK    6  A    between atoms: C_28  and  C_32
REMARK                            x       y       z     vdW  Elec       q    Type
REMARK                         _______ _______ _______ _____ _____    ______ ____
ROOT
ATOM      4  O   UNL     1      -5.700 -13.093  15.771  0.00  0.00    -0.267 OA
ATOM      7  N   UNL     1      -9.849 -11.456  18.063  0.00  0.00    -0.294 NA
ATOM      8  N   UNL     1      -6.859 -12.504  17.709  0.00  0.00    -0.311 N 
ATOM      9  C   UNL     1      -8.949 -13.754  18.505  0.00  0.00    +0.024 C 
ATOM     10  C   UNL     1      -8.100 -11.857  19.800  0.00  0.00    +0.050 C 
ATOM     11  C   UNL     1      -8.493 -13.329  19.895  0.00  0.00    +0.017 C 
ATOM     12  C   UNL     1     -10.149 -12.894  18.057  0.00  0.00    +0.090 C 
ATOM     13  C   UNL     1      -9.326 -11.023  19.367  0.00  0.00    +0.094 C 
ATOM     14  C   UNL     1      -7.759 -13.654  17.542  0.00  0.00    +0.130 C 
ATOM     15  C   UNL     1      -6.955 -11.667  18.822  0.00  0.00    +0.026 A 
ATOM     17  C   UNL     1      -6.053 -10.692  19.013  0.00  0.00    +0.022 A 
ATOM     18  C   UNL     1      -5.839 -12.354  16.749  0.00  0.00    +0.259 A 
ATOM     19  C   UNL     1      -4.862 -11.229  16.971  0.00  0.00    +0.047 A 
ATOM     20  C   UNL     1      -4.996 -10.469  18.068  0.00  0.00    +0.015 A 
ENDROOT
BRANCH  19  22
ATOM     22  C   UNL     1      -3.782 -10.955  16.006  0.00  0.00    -0.012 A 
ATOM     26  C   UNL     1      -4.076 -10.817  14.649  0.00  0.00    +0.021 A 
ATOM     27  C   UNL     1      -2.465 -10.832  16.449  0.00  0.00    +0.009 A 
ATOM     28  C   UNL     1      -3.054 -10.556  13.737  0.00  0.00    +0.055 A 
ATOM     30  C   UNL     1      -1.443 -10.571  15.536  0.00  0.00    +0.001 A 
ATOM     31  C   UNL     1      -1.737 -10.434  14.181  0.00  0.00    +0.012 A 
BRANCH  28  32
ATOM      1  F   UNL     1      -4.459  -9.621  12.041  0.00  0.00    -0.166 F 
ATOM      2  F   UNL     1      -2.356  -9.847  11.560  0.00  0.00    -0.166 F 
ATOM      3  F   UNL     1      -3.636 -11.601  11.682  0.00  0.00    -0.166 F 
ATOM     32  C   UNL     1      -3.369 -10.407  12.286  0.00  0.00    +0.417 C 
ENDBRANCH  28  32
ENDBRANCH  19  22
BRANCH   7  16
ATOM     16  C   UNL     1     -11.025 -10.674  17.685  0.00  0.00    +0.158 C 
BRANCH  16  21
ATOM      5  O   UNL     1     -11.600  -8.473  16.914  0.00  0.00    -0.461 OA
ATOM     21  C   UNL     1     -10.626  -9.393  17.005  0.00  0.00    +0.119 A 
ATOM     23  C   UNL     1      -9.460  -8.982  16.460  0.00  0.00    +0.046 A 
ATOM     24  C   UNL     1     -11.035  -7.413  16.278  0.00  0.00    +0.131 A 
ATOM     25  C   UNL     1      -9.719  -7.677  15.978  0.00  0.00    +0.047 A 
BRANCH  24  29
ATOM     29  C   UNL     1     -11.905  -6.251  16.050  0.00  0.00    +0.230 C 
BRANCH  29   6
ATOM      6  O   UNL     1     -11.319  -5.454  15.019  0.00  0.00    -0.387 OA
ATOM     33  H   UNL     1     -10.757  -6.043  14.489  0.00  0.00    +0.210 HD
ENDBRANCH  29   6
ENDBRANCH  24  29
ENDBRANCH  16  21
ENDBRANCH   7  16
TORSDOF 6
ENDMDL
MODEL 6
REMARK VINA RESULT:      -6.8     23.458     25.992
REMARK  Name = 11943270
REMARK  6 active torsions:
REMARK  status: ('A' for Active; 'I' for Inactive)
REMARK    1  A    between atoms: O_6  and  C_29
REMARK    2  A    between atoms: N_7  and  C_16
REMARK    3  A    between atoms: C_16  and  C_21
REMARK    4  A    between atoms: C_19  and  C_22
REMARK    5  A    between atoms: C_24  and  C_29
REMARK    6  A    between atoms: C_28  and  C_32
REMARK                            x       y       z     vdW  Elec       q    Type
REMARK                         _______ _______ _______ _____ _____    ______ ____
ROOT
ATOM      4  O   UNL     1      -5.698 -12.232  10.938  0.00  0.00    -0.267 OA
ATOM      7  N   UNL     1      -3.644 -10.960  15.333  0.00  0.00    -0.294 NA
ATOM      8  N   UNL     1      -3.826 -11.881  12.285  0.00  0.00    -0.311 N 
ATOM      9  C   UNL     1      -3.356 -13.265  14.390  0.00  0.00    +0.024 C 
ATOM     10  C   UNL     1      -1.803 -11.491  13.730  0.00  0.00    +0.050 C 
ATOM     11  C   UNL     1      -1.895 -12.975  14.075  0.00  0.00    +0.017 C 
ATOM     12  C   UNL     1      -3.824 -12.397  15.577  0.00  0.00    +0.090 C 
ATOM     13  C   UNL     1      -2.261 -10.650  14.944  0.00  0.00    +0.094 C 
ATOM     14  C   UNL     1      -4.191 -13.032  13.124  0.00  0.00    +0.130 C 
ATOM     15  C   UNL     1      -2.647 -11.168  12.512  0.00  0.00    +0.026 A 
ATOM     17  C   UNL     1      -2.276 -10.193  11.667  0.00  0.00    +0.022 A 
ATOM     18  C   UNL     1      -4.668 -11.603  11.190  0.00  0.00    +0.259 A 
ATOM     19  C   UNL     1      -4.244 -10.481  10.280  0.00  0.00    +0.047 A 
ATOM     20  C   UNL     1      -3.093  -9.843  10.539  0.00  0.00    +0.015 A 
ENDROOT
BRANCH  19  22
ATOM     22  C   UNL     1      -5.072 -10.078   9.129  0.00  0.00    -0.012 A 
ATOM     26  C   UNL     1      -6.061  -9.106   9.287  0.00  0.00    +0.021 A 
ATOM     27  C   UNL     1      -4.867 -10.666   7.881  0.00  0.00    +0.009 A 
ATOM     28  C   UNL     1      -6.843  -8.722   8.198  0.00  0.00    +0.055 A 
ATOM     30  C   UNL     1      -5.651 -10.283   6.792  0.00  0.00    +0.001 A 
ATOM     31  C   UNL     1      -6.638  -9.312   6.950  0.00  0.00    +0.012 A 
BRANCH  28  32
ATOM      1  F   UNL     1      -7.414  -6.406   8.368  0.00  0.00    -0.166 F 
ATOM      2  F   UNL     1      -8.848  -7.701   7.384  0.00  0.00    -0.166 F 
ATOM      3  F   UNL     1      -8.583  -7.815   9.540  0.00  0.00    -0.166 F 
ATOM     32  C   UNL     1      -7.899  -7.682   8.367  0.00  0.00    +0.417 C 
ENDBRANCH  28  32
ENDBRANCH  19  22
BRANCH   7  16
ATOM     16  C   UNL     1      -4.048 -10.176  16.498  0.00  0.00    +0.158 C 
BRANCH  16  21
ATOM      5  O   UNL     1      -6.238  -9.922  15.544  0.00  0.00    -0.461 OA
ATOM     21  C   UNL     1      -5.543 -10.183  16.663  0.00  0.00    +0.119 A 
ATOM     23  C   UNL     1      -6.335 -10.403  17.737  0.00  0.00    +0.046 A 
ATOM     24  C   UNL     1      -7.545  -9.978  15.912  0.00  0.00    +0.131 A 
ATOM     25  C   UNL     1      -7.657 -10.271  17.251  0.00  0.00    +0.047 A 
BRANCH  24  29
ATOM     29  C   UNL     1      -8.531  -9.725  14.852  0.00  0.00    +0.230 C 
BRANCH  29   6
ATOM      6  O   UNL     1      -9.066  -8.414  15.047  0.00  0.00    -0.387 OA
ATOM     33  H   UNL     1      -9.987  -8.525  15.338  0.00  0.00    +0.210 HD
ENDBRANCH  29   6
ENDBRANCH  24  29
ENDBRANCH  16  21
ENDBRANCH   7  16
TORSDOF 6
ENDMDL
MODEL 7
REMARK VINA RESULT:      -6.8     18.046     21.514
REMARK  Name = 11943270
REMARK  6 active torsions:
REMARK  status: ('A' for Active; 'I' for Inactive)
REMARK    1  A    between atoms: O_6  and  C_29
REMARK    2  A    between atoms: N_7  and  C_16
REMARK    3  A    between atoms: C_16  and  C_21
REMARK    4  A    between atoms: C_19  and  C_22
REMARK    5  A    between atoms: C_24  and  C_29
REMARK    6  A    between atoms: C_28  and  C_32
REMARK                            x       y       z     vdW  Elec       q    Type
REMARK                         _______ _______ _______ _____ _____    ______ ____
ROOT
ATOM      4  O   UNL     1      16.685   9.899  20.019  0.00  0.00    -0.267 OA
ATOM      7  N   UNL     1      11.863   8.890  20.953  0.00  0.00    -0.294 NA
ATOM      8  N   UNL     1      14.790   8.569  19.730  0.00  0.00    -0.311 N 
ATOM      9  C   UNL     1      12.644   9.439  18.635  0.00  0.00    +0.024 C 
ATOM     10  C   UNL     1      12.753   7.124  19.426  0.00  0.00    +0.050 C 
ATOM     11  C   UNL     1      12.451   7.991  18.205  0.00  0.00    +0.017 C 
ATOM     12  C   UNL     1      11.686   9.778  19.797  0.00  0.00    +0.090 C 
ATOM     13  C   UNL     1      11.767   7.475  20.563  0.00  0.00    +0.094 C 
ATOM     14  C   UNL     1      14.117   9.655  19.003  0.00  0.00    +0.130 C 
ATOM     15  C   UNL     1      14.185   7.321  19.885  0.00  0.00    +0.026 A 
ATOM     17  C   UNL     1      14.861   6.310  20.453  0.00  0.00    +0.022 A 
ATOM     18  C   UNL     1      16.106   8.821  20.168  0.00  0.00    +0.259 A 
ATOM     19  C   UNL     1      16.827   7.678  20.833  0.00  0.00    +0.047 A 
ATOM     20  C   UNL     1      16.200   6.497  20.938  0.00  0.00    +0.015 A 
ENDROOT
BRANCH  19  22
ATOM     22  C   UNL     1      18.190   7.844  21.367  0.00  0.00    -0.012 A 
ATOM     26  C   UNL     1      19.155   6.864  21.132  0.00  0.00    +0.021 A 
ATOM     27  C   UNL     1      18.517   8.981  22.105  0.00  0.00    +0.009 A 
ATOM     28  C   UNL     1      20.447   7.022  21.636  0.00  0.00    +0.055 A 
ATOM     30  C   UNL     1      19.809   9.138  22.610  0.00  0.00    +0.001 A 
ATOM     31  C   UNL     1      20.773   8.159  22.376  0.00  0.00    +0.012 A 
BRANCH  28  32
ATOM      1  F   UNL     1      21.362   5.375  20.163  0.00  0.00    -0.166 F 
ATOM      2  F   UNL     1      22.760   6.446  21.429  0.00  0.00    -0.166 F 
ATOM      3  F   UNL     1      21.430   4.960  22.296  0.00  0.00    -0.166 F 
ATOM     32  C   UNL     1      21.479   5.974  21.385  0.00  0.00    +0.417 C 
ENDBRANCH  28  32
ENDBRANCH  19  22
BRANCH   7  16
ATOM     16  C   UNL     1      10.904   9.207  22.009  0.00  0.00    +0.158 C 
BRANCH  16  21
ATOM      5  O   UNL     1      12.789  10.346  22.970  0.00  0.00    -0.461 OA
ATOM     21  C   UNL     1      11.449  10.260  22.935  0.00  0.00    +0.119 A 
ATOM     23  C   UNL     1      10.841  11.150  23.752  0.00  0.00    +0.046 A 
ATOM     24  C   UNL     1      13.062  11.342  23.854  0.00  0.00    +0.131 A 
ATOM     25  C   UNL     1      11.897  11.869  24.361  0.00  0.00    +0.047 A 
BRANCH  24  29
ATOM     29  C   UNL     1      14.483  11.642  24.078  0.00  0.00    +0.230 C 
BRANCH  29   6
ATOM      6  O   UNL     1      14.893  10.979  25.275  0.00  0.00    -0.387 OA
ATOM     33  H   UNL     1      15.500  10.267  25.012  0.00  0.00    +0.210 HD
ENDBRANCH  29   6
ENDBRANCH  24  29
ENDBRANCH  16  21
ENDBRANCH   7  16
TORSDOF 6
ENDMDL
MODEL 8
REMARK VINA RESULT:      -6.8      2.360      2.831
REMARK  Name = 11943270
REMARK  6 active torsions:
REMARK  status: ('A' for Active; 'I' for Inactive)
REMARK    1  A    between atoms: O_6  and  C_29
REMARK    2  A    between atoms: N_7  and  C_16
REMARK    3  A    between atoms: C_16  and  C_21
REMARK    4  A    between atoms: C_19  and  C_22
REMARK    5  A    between atoms: C_24  and  C_29
REMARK    6  A    between atoms: C_28  and  C_32
REMARK                            x       y       z     vdW  Elec       q    Type
REMARK                         _______ _______ _______ _____ _____    ______ ____
ROOT
ATOM      4  O   UNL     1      12.431   7.388   4.977  0.00  0.00    -0.267 OA
ATOM      7  N   UNL     1      12.252   6.683   0.015  0.00  0.00    -0.294 NA
ATOM      8  N   UNL     1      12.535   5.987   3.114  0.00  0.00    -0.311 N 
ATOM      9  C   UNL     1      14.344   6.210   1.314  0.00  0.00    +0.024 C 
ATOM     10  C   UNL     1      12.634   4.469   1.109  0.00  0.00    +0.050 C 
ATOM     11  C   UNL     1      14.141   4.711   1.133  0.00  0.00    +0.017 C 
ATOM     12  C   UNL     1      13.685   6.977   0.148  0.00  0.00    +0.090 C 
ATOM     13  C   UNL     1      12.007   5.236  -0.078  0.00  0.00    +0.094 C 
ATOM     14  C   UNL     1      13.787   6.624   2.682  0.00  0.00    +0.130 C 
ATOM     15  C   UNL     1      11.997   4.904   2.416  0.00  0.00    +0.026 A 
ATOM     17  C   UNL     1      10.916   4.265   2.891  0.00  0.00    +0.022 A 
ATOM     18  C   UNL     1      11.967   6.457   4.315  0.00  0.00    +0.259 A 
ATOM     19  C   UNL     1      10.735   5.744   4.804  0.00  0.00    +0.047 A 
ATOM     20  C   UNL     1      10.275   4.699   4.100  0.00  0.00    +0.015 A 
ENDROOT
BRANCH  19  22
ATOM     22  C   UNL     1      10.035   6.179   6.026  0.00  0.00    -0.012 A 
ATOM     26  C   UNL     1      10.042   5.368   7.161  0.00  0.00    +0.021 A 
ATOM     27  C   UNL     1       9.368   7.404   6.049  0.00  0.00    +0.009 A 
ATOM     28  C   UNL     1       9.381   5.782   8.318  0.00  0.00    +0.055 A 
ATOM     30  C   UNL     1       8.706   7.817   7.206  0.00  0.00    +0.001 A 
ATOM     31  C   UNL     1       8.713   7.006   8.340  0.00  0.00    +0.012 A 
BRANCH  28  32
ATOM      1  F   UNL     1       8.293   5.081  10.330  0.00  0.00    -0.166 F 
ATOM      2  F   UNL     1       9.425   3.578   9.250  0.00  0.00    -0.166 F 
ATOM      3  F   UNL     1      10.466   5.148  10.337  0.00  0.00    -0.166 F 
ATOM     32  C   UNL     1       9.389   4.915   9.532  0.00  0.00    +0.417 C 
ENDBRANCH  28  32
ENDBRANCH  19  22
BRANCH   7  16
ATOM     16  C   UNL     1      11.677   7.385  -1.130  0.00  0.00    +0.158 C 
BRANCH  16  21
ATOM      5  O   UNL     1       9.418   7.887  -1.774  0.00  0.00    -0.461 OA
ATOM     21  C   UNL     1      10.329   7.960  -0.791  0.00  0.00    +0.119 A 
ATOM     23  C   UNL     1       9.850   8.546   0.330  0.00  0.00    +0.046 A 
ATOM     24  C   UNL     1       8.292   8.453  -1.264  0.00  0.00    +0.131 A 
ATOM     25  C   UNL     1       8.508   8.874   0.028  0.00  0.00    +0.047 A 
BRANCH  24  29
ATOM     29  C   UNL     1       7.125   8.500  -2.156  0.00  0.00    +0.230 C 
BRANCH  29   6
ATOM      6  O   UNL     1       7.063   7.263  -2.869  0.00  0.00    -0.387 OA
ATOM     33  H   UNL     1       6.395   6.714  -2.427  0.00  0.00    +0.210 HD
ENDBRANCH  29   6
ENDBRANCH  24  29
ENDBRANCH  16  21
ENDBRANCH   7  16
TORSDOF 6
ENDMDL
MODEL 9
REMARK VINA RESULT:      -6.8      4.334      8.811
REMARK  Name = 11943270
REMARK  6 active torsions:
REMARK  status: ('A' for Active; 'I' for Inactive)
REMARK    1  A    between atoms: O_6  and  C_29
REMARK    2  A    between atoms: N_7  and  C_16
REMARK    3  A    between atoms: C_16  and  C_21
REMARK    4  A    between atoms: C_19  and  C_22
REMARK    5  A    between atoms: C_24  and  C_29
REMARK    6  A    between atoms: C_28  and  C_32
REMARK                            x       y       z     vdW  Elec       q    Type
REMARK                         _______ _______ _______ _____ _____    ______ ____
ROOT
ATOM      4  O   UNL     1      12.538   9.080   2.810  0.00  0.00    -0.267 OA
ATOM      7  N   UNL     1       9.209   9.250   6.556  0.00  0.00    -0.294 NA
ATOM      8  N   UNL     1      10.374   9.457   3.595  0.00  0.00    -0.311 N 
ATOM      9  C   UNL     1       9.813  11.315   5.268  0.00  0.00    +0.024 C 
ATOM     10  C   UNL     1       8.035   9.853   4.435  0.00  0.00    +0.050 C 
ATOM     11  C   UNL     1       8.450  11.313   4.589  0.00  0.00    +0.017 C 
ATOM     12  C   UNL     1       9.717  10.625   6.646  0.00  0.00    +0.090 C 
ATOM     13  C   UNL     1       7.932   9.197   5.831  0.00  0.00    +0.094 C 
ATOM     14  C   UNL     1      10.830  10.639   4.340  0.00  0.00    +0.130 C 
ATOM     15  C   UNL     1       9.025   9.099   3.567  0.00  0.00    +0.026 A 
ATOM     17  C   UNL     1       8.613   8.084   2.790  0.00  0.00    +0.022 A 
ATOM     18  C   UNL     1      11.344   8.773   2.837  0.00  0.00    +0.259 A 
ATOM     19  C   UNL     1      10.858   7.617   2.003  0.00  0.00    +0.047 A 
ATOM     20  C   UNL     1       9.547   7.331   2.003  0.00  0.00    +0.015 A 
ENDROOT
BRANCH  19  22
ATOM     22  C   UNL     1      11.794   6.805   1.205  0.00  0.00    -0.012 A 
ATOM     26  C   UNL     1      12.061   5.486   1.572  0.00  0.00    +0.021 A 
ATOM     27  C   UNL     1      12.411   7.354   0.081  0.00  0.00    +0.009 A 
ATOM     28  C   UNL     1      12.945   4.716   0.815  0.00  0.00    +0.055 A 
ATOM     30  C   UNL     1      13.296   6.585  -0.675  0.00  0.00    +0.001 A 
ATOM     31  C   UNL     1      13.563   5.267  -0.308  0.00  0.00    +0.012 A 
BRANCH  28  32
ATOM      1  F   UNL     1      12.379   2.820   2.159  0.00  0.00    -0.166 F 
ATOM      2  F   UNL     1      13.145   2.421   0.169  0.00  0.00    -0.166 F 
ATOM      3  F   UNL     1      14.484   3.146   1.722  0.00  0.00    -0.166 F 
ATOM     32  C   UNL     1      13.230   3.306   1.207  0.00  0.00    +0.417 C 
ENDBRANCH  28  32
ENDBRANCH  19  22
BRANCH   7  16
ATOM     16  C   UNL     1       9.083   8.651   7.883  0.00  0.00    +0.158 C 
BRANCH  16  21
ATOM      5  O   UNL     1       9.064   6.494   8.941  0.00  0.00    -0.461 OA
ATOM     21  C   UNL     1       9.433   7.189   7.852  0.00  0.00    +0.119 A 
ATOM     23  C   UNL     1      10.056   6.426   6.926  0.00  0.00    +0.046 A 
ATOM     24  C   UNL     1       9.469   5.218   8.707  0.00  0.00    +0.131 A 
ATOM     25  C   UNL     1      10.084   5.125   7.480  0.00  0.00    +0.047 A 
BRANCH  24  29
ATOM     29  C   UNL     1       9.180   4.239   9.764  0.00  0.00    +0.230 C 
BRANCH  29   6
ATOM      6  O   UNL     1      10.064   4.494  10.858  0.00  0.00    -0.387 OA
ATOM     33  H   UNL     1      10.231   3.641  11.292  0.00  0.00    +0.210 HD
ENDBRANCH  29   6
ENDBRANCH  24  29
ENDBRANCH  16  21
ENDBRANCH   7  16
TORSDOF 6
ENDMDL
MODEL 10
REMARK VINA RESULT:      -6.7     32.939     35.539
REMARK  Name = 11943270
REMARK  6 active torsions:
REMARK  status: ('A' for Active; 'I' for Inactive)
REMARK    1  A    between atoms: O_6  and  C_29
REMARK    2  A    between atoms: N_7  and  C_16
REMARK    3  A    between atoms: C_16  and  C_21
REMARK    4  A    between atoms: C_19  and  C_22
REMARK    5  A    between atoms: C_24  and  C_29
REMARK    6  A    between atoms: C_28  and  C_32
REMARK                            x       y       z     vdW  Elec       q    Type
REMARK                         _______ _______ _______ _____ _____    ______ ____
ROOT
ATOM      4  O   UNL     1       9.032 -12.031  31.977  0.00  0.00    -0.267 OA
ATOM      7  N   UNL     1       7.189  -8.514  35.041  0.00  0.00    -0.294 NA
ATOM      8  N   UNL     1       8.598  -9.795  32.483  0.00  0.00    -0.311 N 
ATOM      9  C   UNL     1       9.635  -8.605  34.501  0.00  0.00    +0.024 C 
ATOM     10  C   UNL     1       8.119  -7.383  33.017  0.00  0.00    +0.050 C 
ATOM     11  C   UNL     1       9.512  -7.355  33.641  0.00  0.00    +0.017 C 
ATOM     12  C   UNL     1       8.546  -8.604  35.594  0.00  0.00    +0.090 C 
ATOM     13  C   UNL     1       7.053  -7.364  34.136  0.00  0.00    +0.094 C 
ATOM     14  C   UNL     1       9.559  -9.840  33.593  0.00  0.00    +0.130 C 
ATOM     15  C   UNL     1       7.945  -8.609  32.140  0.00  0.00    +0.026 A 
ATOM     17  C   UNL     1       7.158  -8.561  31.054  0.00  0.00    +0.022 A 
ATOM     18  C   UNL     1       8.448 -10.974  31.726  0.00  0.00    +0.259 A 
ATOM     19  C   UNL     1       7.531 -10.900  30.534  0.00  0.00    +0.047 A 
ATOM     20  C   UNL     1       6.946  -9.729  30.245  0.00  0.00    +0.015 A 
ENDROOT
BRANCH  19  22
ATOM     22  C   UNL     1       7.269 -12.086  29.699  0.00  0.00    -0.012 A 
ATOM     26  C   UNL     1       6.075 -12.793  29.846  0.00  0.00    +0.021 A 
ATOM     27  C   UNL     1       8.212 -12.501  28.759  0.00  0.00    +0.009 A 
ATOM     28  C   UNL     1       5.825 -13.914  29.054  0.00  0.00    +0.055 A 
ATOM     30  C   UNL     1       7.963 -13.622  27.968  0.00  0.00    +0.001 A 
ATOM     31  C   UNL     1       6.770 -14.329  28.115  0.00  0.00    +0.012 A 
BRANCH  28  32
ATOM      1  F   UNL     1       3.448 -13.974  28.796  0.00  0.00    -0.166 F 
ATOM      2  F   UNL     1       4.515 -15.840  28.508  0.00  0.00    -0.166 F 
ATOM      3  F   UNL     1       4.297 -15.012  30.507  0.00  0.00    -0.166 F 
ATOM     32  C   UNL     1       4.549 -14.669  29.211  0.00  0.00    +0.417 C 
ENDBRANCH  28  32
ENDBRANCH  19  22
BRANCH   7  16
ATOM     16  C   UNL     1       6.191  -8.462  36.107  0.00  0.00    +0.158 C 
BRANCH  16  21
ATOM      5  O   UNL     1       3.865  -9.020  36.334  0.00  0.00    -0.461 OA
ATOM     21  C   UNL     1       5.049  -9.400  35.826  0.00  0.00    +0.119 A 
ATOM     23  C   UNL     1       4.983 -10.570  35.151  0.00  0.00    +0.046 A 
ATOM     24  C   UNL     1       2.989  -9.993  35.968  0.00  0.00    +0.131 A 
ATOM     25  C   UNL     1       3.628 -10.968  35.238  0.00  0.00    +0.047 A 
BRANCH  24  29
ATOM     29  C   UNL     1       1.598  -9.814  36.406  0.00  0.00    +0.230 C 
BRANCH  29   6
ATOM      6  O   UNL     1       0.915 -11.058  36.235  0.00  0.00    -0.387 OA
ATOM     33  H   UNL     1       0.359 -11.186  37.021  0.00  0.00    +0.210 HD
ENDBRANCH  29   6
ENDBRANCH  24  29
ENDBRANCH  16  21
ENDBRANCH   7  16
TORSDOF 6
ENDMDL
