MODEL 1
REMARK VINA RESULT:      -8.3      0.000      0.000
REMARK  Name = 11911647
REMARK  9 active torsions:
REMARK  status: ('A' for Active; 'I' for Inactive)
REMARK    1  A    between atoms: O_3  and  C_13
REMARK    2  A    between atoms: O_3  and  C_17
REMARK    3  A    between atoms: N_5  and  C_12
REMARK    4  A    between atoms: N_8  and  C_21
REMARK    5  A    between atoms: N_9  and  C_31
REMARK    6  A    between atoms: N_9  and  C_34
REMARK    7  A    between atoms: N_9  and  C_35
REMARK    8  A    between atoms: C_18  and  C_22
REMARK    9  A    between atoms: C_32  and  C_33
REMARK                            x       y       z     vdW  Elec       q    Type
REMARK                         _______ _______ _______ _____ _____    ______ ____
ROOT
ATOM      1  O   UNL     1     -11.564  -8.334  17.589  0.00  0.00    -0.368 OA
ATOM      2  O   UNL     1      -9.875  -8.813  15.074  0.00  0.00    -0.368 OA
ATOM     10  C   UNL     1      -9.516  -8.758  16.471  0.00  0.00    +0.173 C 
ATOM     11  C   UNL     1     -10.379  -7.683  17.102  0.00  0.00    +0.192 C 
ATOM     12  C   UNL     1      -9.948 -10.028  17.165  0.00  0.00    +0.130 C 
ATOM     13  C   UNL     1     -10.680  -6.776  15.934  0.00  0.00    +0.235 C 
ATOM     14  C   UNL     1     -11.413  -9.755  17.459  0.00  0.00    +0.185 C 
ATOM     15  C   UNL     1     -10.806  -7.758  14.792  0.00  0.00    +0.207 C 
ENDROOT
BRANCH  12   5
ATOM      5  N   UNL     1      -9.213 -10.199  18.400  0.00  0.00    -0.306 N 
ATOM      6  N   UNL     1      -7.159 -10.386  17.280  0.00  0.00    -0.214 NA
ATOM      7  N   UNL     1      -7.275 -10.522  19.684  0.00  0.00    -0.223 NA
ATOM     16  C   UNL     1      -7.840 -10.374  18.457  0.00  0.00    +0.216 A 
ATOM     18  C   UNL     1      -5.824 -10.558  17.371  0.00  0.00    +0.076 A 
ATOM     19  C   UNL     1      -5.935 -10.690  19.701  0.00  0.00    +0.116 A 
ATOM     20  C   UNL     1      -5.151 -10.717  18.566  0.00  0.00    +0.048 A 
ATOM     36  H   UNL     1      -9.704 -10.139  19.285  0.00  0.00    +0.149 HD
BRANCH  18  22
ATOM     22  C   UNL     1      -5.119 -10.567  16.112  0.00  0.00    +0.001 A 
ATOM     25  C   UNL     1      -3.749 -10.833  16.078  0.00  0.00    +0.012 A 
ATOM     26  C   UNL     1      -5.806 -10.313  14.922  0.00  0.00    +0.012 A 
ATOM     29  C   UNL     1      -3.068 -10.843  14.860  0.00  0.00    +0.024 A 
ATOM     30  C   UNL     1      -5.126 -10.323  13.705  0.00  0.00    +0.024 A 
ATOM     31  C   UNL     1      -3.757 -10.588  13.674  0.00  0.00    +0.029 A 
BRANCH  31   9
ATOM      9  N   UNL     1      -3.068 -10.599  12.442  0.00  0.00    -0.336 N 
ATOM     34  C   UNL     1      -3.661 -10.000  11.264  0.00  0.00    +0.129 C 
ATOM     35  C   UNL     1      -1.764 -11.222  12.338  0.00  0.00    +0.129 C 
ENDBRANCH  31   9
ENDBRANCH  18  22
ENDBRANCH  12   5
BRANCH  13   3
ATOM      3  O   UNL     1     -11.849  -6.008  16.104  0.00  0.00    -0.442 OA
BRANCH   3  17
ATOM      4  O   UNL     1     -13.578  -6.665  14.759  0.00  0.00    -0.226 OA
ATOM      8  N   UNL     1     -12.312  -4.753  14.287  0.00  0.00    -0.251 N 
ATOM     17  C   UNL     1     -12.675  -5.876  15.006  0.00  0.00    +0.405 C 
ATOM     37  H   UNL     1     -11.529  -4.219  14.656  0.00  0.00    +0.158 HD
BRANCH   8  21
ATOM     21  C   UNL     1     -12.894  -4.255  13.100  0.00  0.00    +0.036 A 
ATOM     23  C   UNL     1     -14.214  -3.834  13.116  0.00  0.00    +0.023 A 
ATOM     24  C   UNL     1     -12.135  -4.197  11.942  0.00  0.00    +0.023 A 
ATOM     27  C   UNL     1     -14.790  -3.341  11.944  0.00  0.00    +0.005 A 
ATOM     28  C   UNL     1     -12.709  -3.705  10.770  0.00  0.00    +0.005 A 
ATOM     32  C   UNL     1     -14.037  -3.277  10.772  0.00  0.00    -0.050 A 
ATOM     33  C   UNL     1     -14.652  -2.751   9.519  0.00  0.00    +0.044 C 
ENDBRANCH   8  21
ENDBRANCH   3  17
ENDBRANCH  13   3
TORSDOF 6
ENDMDL
MODEL 2
REMARK VINA RESULT:      -8.3      5.023      6.723
REMARK  Name = 11911647
REMARK  9 active torsions:
REMARK  status: ('A' for Active; 'I' for Inactive)
REMARK    1  A    between atoms: O_3  and  C_13
REMARK    2  A    between atoms: O_3  and  C_17
REMARK    3  A    between atoms: N_5  and  C_12
REMARK    4  A    between atoms: N_8  and  C_21
REMARK    5  A    between atoms: N_9  and  C_31
REMARK    6  A    between atoms: N_9  and  C_34
REMARK    7  A    between atoms: N_9  and  C_35
REMARK    8  A    between atoms: C_18  and  C_22
REMARK    9  A    between atoms: C_32  and  C_33
REMARK                            x       y       z     vdW  Elec       q    Type
REMARK                         _______ _______ _______ _____ _____    ______ ____
ROOT
ATOM      1  O   UNL     1      -6.037 -12.215  19.204  0.00  0.00    -0.368 OA
ATOM      2  O   UNL     1      -7.348 -11.367  16.563  0.00  0.00    -0.368 OA
ATOM     10  C   UNL     1      -6.084 -11.009  17.162  0.00  0.00    +0.173 C 
ATOM     11  C   UNL     1      -6.320 -10.917  18.657  0.00  0.00    +0.192 C 
ATOM     12  C   UNL     1      -5.103 -12.148  17.016  0.00  0.00    +0.130 C 
ATOM     13  C   UNL     1      -7.790 -10.584  18.737  0.00  0.00    +0.235 C 
ATOM     14  C   UNL     1      -5.478 -13.050  18.179  0.00  0.00    +0.185 C 
ATOM     15  C   UNL     1      -8.359 -11.374  17.580  0.00  0.00    +0.207 C 
ENDROOT
BRANCH  12   5
ATOM      5  N   UNL     1      -3.748 -11.665  17.174  0.00  0.00    -0.306 N 
ATOM      6  N   UNL     1      -3.595 -11.029  14.921  0.00  0.00    -0.214 NA
ATOM      7  N   UNL     1      -1.744 -10.697  16.428  0.00  0.00    -0.223 NA
ATOM     16  C   UNL     1      -3.006 -11.113  16.143  0.00  0.00    +0.216 A 
ATOM     18  C   UNL     1      -2.844 -10.487  13.939  0.00  0.00    +0.076 A 
ATOM     19  C   UNL     1      -1.050 -10.165  15.400  0.00  0.00    +0.116 A 
ATOM     20  C   UNL     1      -1.553 -10.033  14.122  0.00  0.00    +0.048 A 
ATOM     36  H   UNL     1      -3.319 -11.674  18.093  0.00  0.00    +0.149 HD
BRANCH  18  22
ATOM     22  C   UNL     1      -3.487 -10.406  12.649  0.00  0.00    +0.001 A 
ATOM     25  C   UNL     1      -4.880 -10.351  12.564  0.00  0.00    +0.012 A 
ATOM     26  C   UNL     1      -2.720 -10.378  11.483  0.00  0.00    +0.012 A 
ATOM     29  C   UNL     1      -5.502 -10.271  11.317  0.00  0.00    +0.024 A 
ATOM     30  C   UNL     1      -3.341 -10.298  10.237  0.00  0.00    +0.024 A 
ATOM     31  C   UNL     1      -4.732 -10.244  10.154  0.00  0.00    +0.029 A 
BRANCH  31   9
ATOM      9  N   UNL     1      -5.361 -10.163   8.894  0.00  0.00    -0.336 N 
ATOM     34  C   UNL     1      -4.839 -10.904   7.764  0.00  0.00    +0.129 C 
ATOM     35  C   UNL     1      -6.530  -9.326   8.711  0.00  0.00    +0.129 C 
ENDBRANCH  31   9
ENDBRANCH  18  22
ENDBRANCH  12   5
BRANCH  13   3
ATOM      3  O   UNL     1      -8.382 -10.942  19.966  0.00  0.00    -0.442 OA
BRANCH   3  17
ATOM      4  O   UNL     1     -10.211 -12.294  20.195  0.00  0.00    -0.226 OA
ATOM      8  N   UNL     1     -10.420 -10.028  19.647  0.00  0.00    -0.251 N 
ATOM     17  C   UNL     1      -9.739 -11.190  19.956  0.00  0.00    +0.405 C 
ATOM     37  H   UNL     1      -9.846  -9.204  19.480  0.00  0.00    +0.158 HD
BRANCH   8  21
ATOM     21  C   UNL     1     -11.816  -9.841  19.532  0.00  0.00    +0.036 A 
ATOM     23  C   UNL     1     -12.381  -9.707  18.274  0.00  0.00    +0.023 A 
ATOM     24  C   UNL     1     -12.592  -9.795  20.679  0.00  0.00    +0.023 A 
ATOM     27  C   UNL     1     -13.759  -9.522  18.160  0.00  0.00    +0.005 A 
ATOM     28  C   UNL     1     -13.970  -9.611  20.565  0.00  0.00    +0.005 A 
ATOM     32  C   UNL     1     -14.553  -9.475  19.306  0.00  0.00    -0.050 A 
ATOM     33  C   UNL     1     -16.026  -9.278  19.184  0.00  0.00    +0.044 C 
ENDBRANCH   8  21
ENDBRANCH   3  17
ENDBRANCH  13   3
TORSDOF 6
ENDMDL
MODEL 3
REMARK VINA RESULT:      -8.2      4.508      7.470
REMARK  Name = 11911647
REMARK  9 active torsions:
REMARK  status: ('A' for Active; 'I' for Inactive)
REMARK    1  A    between atoms: O_3  and  C_13
REMARK    2  A    between atoms: O_3  and  C_17
REMARK    3  A    between atoms: N_5  and  C_12
REMARK    4  A    between atoms: N_8  and  C_21
REMARK    5  A    between atoms: N_9  and  C_31
REMARK    6  A    between atoms: N_9  and  C_34
REMARK    7  A    between atoms: N_9  and  C_35
REMARK    8  A    between atoms: C_18  and  C_22
REMARK    9  A    between atoms: C_32  and  C_33
REMARK                            x       y       z     vdW  Elec       q    Type
REMARK                         _______ _______ _______ _____ _____    ______ ____
ROOT
ATOM      1  O   UNL     1      -4.673  -8.973   9.988  0.00  0.00    -0.368 OA
ATOM      2  O   UNL     1      -5.852 -11.796  10.214  0.00  0.00    -0.368 OA
ATOM     10  C   UNL     1      -4.543 -11.277  10.534  0.00  0.00    +0.173 C 
ATOM     11  C   UNL     1      -4.216 -10.237   9.481  0.00  0.00    +0.192 C 
ATOM     12  C   UNL     1      -4.600 -10.489  11.821  0.00  0.00    +0.130 C 
ATOM     13  C   UNL     1      -5.038 -10.696   8.300  0.00  0.00    +0.235 C 
ATOM     14  C   UNL     1      -5.099  -9.134  11.350  0.00  0.00    +0.185 C 
ATOM     15  C   UNL     1      -6.284 -11.231   8.968  0.00  0.00    +0.207 C 
ENDROOT
BRANCH  12   5
ATOM      5  N   UNL     1      -3.276 -10.365  12.392  0.00  0.00    -0.306 N 
ATOM      6  N   UNL     1      -4.063 -10.723  14.573  0.00  0.00    -0.214 NA
ATOM      7  N   UNL     1      -1.721 -10.344  14.149  0.00  0.00    -0.223 NA
ATOM     16  C   UNL     1      -3.011 -10.481  13.746  0.00  0.00    +0.216 A 
ATOM     18  C   UNL     1      -3.770 -10.831  15.886  0.00  0.00    +0.076 A 
ATOM     19  C   UNL     1      -1.500 -10.464  15.475  0.00  0.00    +0.116 A 
ATOM     20  C   UNL     1      -2.494 -10.709  16.399  0.00  0.00    +0.048 A 
ATOM     36  H   UNL     1      -2.479 -10.237  11.779  0.00  0.00    +0.149 HD
BRANCH  18  22
ATOM     22  C   UNL     1      -4.899 -11.089  16.747  0.00  0.00    +0.001 A 
ATOM     25  C   UNL     1      -4.820 -10.801  18.111  0.00  0.00    +0.012 A 
ATOM     26  C   UNL     1      -6.076 -11.623  16.218  0.00  0.00    +0.012 A 
ATOM     29  C   UNL     1      -5.912 -11.049  18.943  0.00  0.00    +0.024 A 
ATOM     30  C   UNL     1      -7.169 -11.870  17.050  0.00  0.00    +0.024 A 
ATOM     31  C   UNL     1      -7.087 -11.583  18.412  0.00  0.00    +0.029 A 
BRANCH  31   9
ATOM      9  N   UNL     1      -8.191 -11.833  19.254  0.00  0.00    -0.336 N 
ATOM     34  C   UNL     1      -8.260 -13.053  20.032  0.00  0.00    +0.129 C 
ATOM     35  C   UNL     1      -9.278 -10.878  19.339  0.00  0.00    +0.129 C 
ENDBRANCH  31   9
ENDBRANCH  18  22
ENDBRANCH  12   5
BRANCH  13   3
ATOM      3  O   UNL     1      -5.328  -9.666   7.383  0.00  0.00    -0.442 OA
BRANCH   3  17
ATOM      4  O   UNL     1      -7.465  -9.739   6.570  0.00  0.00    -0.226 OA
ATOM      8  N   UNL     1      -6.827  -8.198   8.214  0.00  0.00    -0.251 N 
ATOM     17  C   UNL     1      -6.638  -9.236   7.321  0.00  0.00    +0.405 C 
ATOM     37  H   UNL     1      -6.012  -7.919   8.755  0.00  0.00    +0.158 HD
BRANCH   8  21
ATOM     21  C   UNL     1      -8.014  -7.474   8.467  0.00  0.00    +0.036 A 
ATOM     23  C   UNL     1      -8.100  -6.151   8.065  0.00  0.00    +0.023 A 
ATOM     24  C   UNL     1      -9.067  -8.100   9.114  0.00  0.00    +0.023 A 
ATOM     27  C   UNL     1      -9.271  -5.434   8.315  0.00  0.00    +0.005 A 
ATOM     28  C   UNL     1     -10.239  -7.385   9.364  0.00  0.00    +0.005 A 
ATOM     32  C   UNL     1     -10.340  -6.052   8.964  0.00  0.00    -0.050 A 
ATOM     33  C   UNL     1     -11.592  -5.287   9.232  0.00  0.00    +0.044 C 
ENDBRANCH   8  21
ENDBRANCH   3  17
ENDBRANCH  13   3
TORSDOF 6
ENDMDL
MODEL 4
REMARK VINA RESULT:      -7.7      3.935      6.960
REMARK  Name = 11911647
REMARK  9 active torsions:
REMARK  status: ('A' for Active; 'I' for Inactive)
REMARK    1  A    between atoms: O_3  and  C_13
REMARK    2  A    between atoms: O_3  and  C_17
REMARK    3  A    between atoms: N_5  and  C_12
REMARK    4  A    between atoms: N_8  and  C_21
REMARK    5  A    between atoms: N_9  and  C_31
REMARK    6  A    between atoms: N_9  and  C_34
REMARK    7  A    between atoms: N_9  and  C_35
REMARK    8  A    between atoms: C_18  and  C_22
REMARK    9  A    between atoms: C_32  and  C_33
REMARK                            x       y       z     vdW  Elec       q    Type
REMARK                         _______ _______ _______ _____ _____    ______ ____
ROOT
ATOM      1  O   UNL     1      -6.348  -7.969   8.832  0.00  0.00    -0.368 OA
ATOM      2  O   UNL     1      -8.007 -10.547   8.738  0.00  0.00    -0.368 OA
ATOM     10  C   UNL     1      -6.582 -10.324   8.682  0.00  0.00    +0.173 C 
ATOM     11  C   UNL     1      -6.369  -9.051   7.887  0.00  0.00    +0.192 C 
ATOM     12  C   UNL     1      -6.058  -9.987  10.058  0.00  0.00    +0.130 C 
ATOM     13  C   UNL     1      -7.597  -9.003   7.010  0.00  0.00    +0.235 C 
ATOM     14  C   UNL     1      -6.357  -8.502  10.165  0.00  0.00    +0.185 C 
ATOM     15  C   UNL     1      -8.663  -9.565   7.923  0.00  0.00    +0.207 C 
ENDROOT
BRANCH  12   5
ATOM      5  N   UNL     1      -4.631 -10.217  10.122  0.00  0.00    -0.306 N 
ATOM      6  N   UNL     1      -4.647 -10.367  12.463  0.00  0.00    -0.214 NA
ATOM      7  N   UNL     1      -2.596 -10.613  11.222  0.00  0.00    -0.223 NA
ATOM     16  C   UNL     1      -3.937 -10.405  11.304  0.00  0.00    +0.216 A 
ATOM     18  C   UNL     1      -3.940 -10.554  13.597  0.00  0.00    +0.076 A 
ATOM     19  C   UNL     1      -1.952 -10.792  12.394  0.00  0.00    +0.116 A 
ATOM     20  C   UNL     1      -2.577 -10.773  13.623  0.00  0.00    +0.048 A 
ATOM     36  H   UNL     1      -4.101 -10.300   9.261  0.00  0.00    +0.149 HD
BRANCH  18  22
ATOM     22  C   UNL     1      -4.713 -10.510  14.815  0.00  0.00    +0.001 A 
ATOM     25  C   UNL     1      -4.088 -10.712  16.048  0.00  0.00    +0.012 A 
ATOM     26  C   UNL     1      -6.086 -10.264  14.766  0.00  0.00    +0.012 A 
ATOM     29  C   UNL     1      -4.834 -10.668  17.226  0.00  0.00    +0.024 A 
ATOM     30  C   UNL     1      -6.833 -10.220  15.944  0.00  0.00    +0.024 A 
ATOM     31  C   UNL     1      -6.207 -10.422  17.173  0.00  0.00    +0.029 A 
BRANCH  31   9
ATOM      9  N   UNL     1      -6.961 -10.378  18.365  0.00  0.00    -0.336 N 
ATOM     34  C   UNL     1      -6.301 -10.420  19.654  0.00  0.00    +0.129 C 
ATOM     35  C   UNL     1      -8.408 -10.306  18.314  0.00  0.00    +0.129 C 
ENDBRANCH  31   9
ENDBRANCH  18  22
ENDBRANCH  12   5
BRANCH  13   3
ATOM      3  O   UNL     1      -7.915  -7.707   6.558  0.00  0.00    -0.442 OA
BRANCH   3  17
ATOM      4  O   UNL     1     -10.175  -7.427   6.340  0.00  0.00    -0.226 OA
ATOM      8  N   UNL     1      -8.973  -6.414   8.075  0.00  0.00    -0.251 N 
ATOM     17  C   UNL     1      -9.136  -7.193   6.945  0.00  0.00    +0.405 C 
ATOM     37  H   UNL     1      -8.024  -6.340   8.434  0.00  0.00    +0.158 HD
BRANCH   8  21
ATOM     21  C   UNL     1      -9.962  -5.707   8.795  0.00  0.00    +0.036 A 
ATOM     23  C   UNL     1     -10.900  -6.412   9.532  0.00  0.00    +0.023 A 
ATOM     24  C   UNL     1      -9.976  -4.322   8.749  0.00  0.00    +0.023 A 
ATOM     27  C   UNL     1     -11.877  -5.715  10.242  0.00  0.00    +0.005 A 
ATOM     28  C   UNL     1     -10.952  -3.624   9.460  0.00  0.00    +0.005 A 
ATOM     32  C   UNL     1     -11.902  -4.321  10.206  0.00  0.00    -0.050 A 
ATOM     33  C   UNL     1     -12.947  -3.574  10.966  0.00  0.00    +0.044 C 
ENDBRANCH   8  21
ENDBRANCH   3  17
ENDBRANCH  13   3
TORSDOF 6
ENDMDL
MODEL 5
REMARK VINA RESULT:      -7.7      5.250      8.452
REMARK  Name = 11911647
REMARK  9 active torsions:
REMARK  status: ('A' for Active; 'I' for Inactive)
REMARK    1  A    between atoms: O_3  and  C_13
REMARK    2  A    between atoms: O_3  and  C_17
REMARK    3  A    between atoms: N_5  and  C_12
REMARK    4  A    between atoms: N_8  and  C_21
REMARK    5  A    between atoms: N_9  and  C_31
REMARK    6  A    between atoms: N_9  and  C_34
REMARK    7  A    between atoms: N_9  and  C_35
REMARK    8  A    between atoms: C_18  and  C_22
REMARK    9  A    between atoms: C_32  and  C_33
REMARK                            x       y       z     vdW  Elec       q    Type
REMARK                         _______ _______ _______ _____ _____    ______ ____
ROOT
ATOM      1  O   UNL     1      -4.136  -8.986   9.057  0.00  0.00    -0.368 OA
ATOM      2  O   UNL     1      -6.459 -10.745  10.020  0.00  0.00    -0.368 OA
ATOM     10  C   UNL     1      -5.036 -10.825  10.254  0.00  0.00    +0.173 C 
ATOM     11  C   UNL     1      -4.356 -10.403   8.967  0.00  0.00    +0.192 C 
ATOM     12  C   UNL     1      -4.617  -9.772  11.252  0.00  0.00    +0.130 C 
ATOM     13  C   UNL     1      -5.392 -10.743   7.922  0.00  0.00    +0.235 C 
ATOM     14  C   UNL     1      -4.474  -8.537  10.378  0.00  0.00    +0.185 C 
ATOM     15  C   UNL     1      -6.684 -10.425   8.640  0.00  0.00    +0.207 C 
ENDROOT
BRANCH  12   5
ATOM      5  N   UNL     1      -3.342 -10.119  11.841  0.00  0.00    -0.306 N 
ATOM      6  N   UNL     1      -4.281 -10.405  13.972  0.00  0.00    -0.214 NA
ATOM      7  N   UNL     1      -1.923 -10.742  13.604  0.00  0.00    -0.223 NA
ATOM     16  C   UNL     1      -3.177 -10.432  13.180  0.00  0.00    +0.216 A 
ATOM     18  C   UNL     1      -4.084 -10.715  15.271  0.00  0.00    +0.076 A 
ATOM     19  C   UNL     1      -1.799 -11.041  14.914  0.00  0.00    +0.116 A 
ATOM     20  C   UNL     1      -2.854 -11.044  15.803  0.00  0.00    +0.048 A 
ATOM     36  H   UNL     1      -2.522 -10.193  11.249  0.00  0.00    +0.149 HD
BRANCH  18  22
ATOM     22  C   UNL     1      -5.269 -10.681  16.095  0.00  0.00    +0.001 A 
ATOM     25  C   UNL     1      -5.319 -11.420  17.279  0.00  0.00    +0.012 A 
ATOM     26  C   UNL     1      -6.367  -9.908  15.714  0.00  0.00    +0.012 A 
ATOM     29  C   UNL     1      -6.463 -11.387  18.077  0.00  0.00    +0.024 A 
ATOM     30  C   UNL     1      -7.511  -9.874  16.511  0.00  0.00    +0.024 A 
ATOM     31  C   UNL     1      -7.559 -10.613  17.692  0.00  0.00    +0.029 A 
BRANCH  31   9
ATOM      9  N   UNL     1      -8.716 -10.580  18.499  0.00  0.00    -0.336 N 
ATOM     34  C   UNL     1      -9.818  -9.701  18.166  0.00  0.00    +0.129 C 
ATOM     35  C   UNL     1      -8.810 -11.414  19.681  0.00  0.00    +0.129 C 
ENDBRANCH  31   9
ENDBRANCH  18  22
ENDBRANCH  12   5
BRANCH  13   3
ATOM      3  O   UNL     1      -5.252 -10.005   6.730  0.00  0.00    -0.442 OA
BRANCH   3  17
ATOM      4  O   UNL     1      -6.860 -10.937   5.397  0.00  0.00    -0.226 OA
ATOM      8  N   UNL     1      -6.751  -8.626   5.759  0.00  0.00    -0.251 N 
ATOM     17  C   UNL     1      -6.354  -9.942   5.901  0.00  0.00    +0.405 C 
ATOM     37  H   UNL     1      -6.199  -7.935   6.261  0.00  0.00    +0.158 HD
BRANCH   8  21
ATOM     21  C   UNL     1      -7.831  -8.121   5.000  0.00  0.00    +0.036 A 
ATOM     23  C   UNL     1      -7.727  -8.074   3.619  0.00  0.00    +0.023 A 
ATOM     24  C   UNL     1      -8.972  -7.681   5.652  0.00  0.00    +0.023 A 
ATOM     27  C   UNL     1      -8.793  -7.575   2.869  0.00  0.00    +0.005 A 
ATOM     28  C   UNL     1     -10.038  -7.182   4.903  0.00  0.00    +0.005 A 
ATOM     32  C   UNL     1      -9.948  -7.129   3.512  0.00  0.00    -0.050 A 
ATOM     33  C   UNL     1     -11.087  -6.596   2.711  0.00  0.00    +0.044 C 
ENDBRANCH   8  21
ENDBRANCH   3  17
ENDBRANCH  13   3
TORSDOF 6
ENDMDL
MODEL 6
REMARK VINA RESULT:      -7.7      9.306     15.214
REMARK  Name = 11911647
REMARK  9 active torsions:
REMARK  status: ('A' for Active; 'I' for Inactive)
REMARK    1  A    between atoms: O_3  and  C_13
REMARK    2  A    between atoms: O_3  and  C_17
REMARK    3  A    between atoms: N_5  and  C_12
REMARK    4  A    between atoms: N_8  and  C_21
REMARK    5  A    between atoms: N_9  and  C_31
REMARK    6  A    between atoms: N_9  and  C_34
REMARK    7  A    between atoms: N_9  and  C_35
REMARK    8  A    between atoms: C_18  and  C_22
REMARK    9  A    between atoms: C_32  and  C_33
REMARK                            x       y       z     vdW  Elec       q    Type
REMARK                         _______ _______ _______ _____ _____    ______ ____
ROOT
ATOM      1  O   UNL     1      -4.365 -13.503   3.478  0.00  0.00    -0.368 OA
ATOM      2  O   UNL     1      -2.029 -13.622   5.463  0.00  0.00    -0.368 OA
ATOM     10  C   UNL     1      -2.957 -12.564   5.139  0.00  0.00    +0.173 C 
ATOM     11  C   UNL     1      -3.219 -12.654   3.649  0.00  0.00    +0.192 C 
ATOM     12  C   UNL     1      -4.302 -12.848   5.764  0.00  0.00    +0.130 C 
ATOM     13  C   UNL     1      -1.958 -13.304   3.132  0.00  0.00    +0.235 C 
ATOM     14  C   UNL     1      -4.931 -13.801   4.762  0.00  0.00    +0.185 C 
ATOM     15  C   UNL     1      -1.616 -14.264   4.248  0.00  0.00    +0.207 C 
ENDROOT
BRANCH  12   5
ATOM      5  N   UNL     1      -5.080 -11.631   5.855  0.00  0.00    -0.306 N 
ATOM      6  N   UNL     1      -4.464 -11.272   8.090  0.00  0.00    -0.214 NA
ATOM      7  N   UNL     1      -5.925  -9.734   6.947  0.00  0.00    -0.223 NA
ATOM     16  C   UNL     1      -5.159 -10.855   6.998  0.00  0.00    +0.216 A 
ATOM     18  C   UNL     1      -4.563 -10.493   9.187  0.00  0.00    +0.076 A 
ATOM     19  C   UNL     1      -5.979  -9.002   8.080  0.00  0.00    +0.116 A 
ATOM     20  C   UNL     1      -5.313  -9.336   9.241  0.00  0.00    +0.048 A 
ATOM     36  H   UNL     1      -5.559 -11.283   5.031  0.00  0.00    +0.149 HD
BRANCH  18  22
ATOM     22  C   UNL     1      -3.818 -10.953  10.335  0.00  0.00    +0.001 A 
ATOM     25  C   UNL     1      -3.096 -10.044  11.111  0.00  0.00    +0.012 A 
ATOM     26  C   UNL     1      -3.818 -12.308  10.674  0.00  0.00    +0.012 A 
ATOM     29  C   UNL     1      -2.377 -10.488  12.221  0.00  0.00    +0.024 A 
ATOM     30  C   UNL     1      -3.100 -12.752  11.784  0.00  0.00    +0.024 A 
ATOM     31  C   UNL     1      -2.379 -11.842  12.558  0.00  0.00    +0.029 A 
BRANCH  31   9
ATOM      9  N   UNL     1      -1.652 -12.291  13.680  0.00  0.00    -0.336 N 
ATOM     34  C   UNL     1      -1.103 -13.631  13.712  0.00  0.00    +0.129 C 
ATOM     35  C   UNL     1      -1.457 -11.421  14.823  0.00  0.00    +0.129 C 
ENDBRANCH  31   9
ENDBRANCH  18  22
ENDBRANCH  12   5
BRANCH  13   3
ATOM      3  O   UNL     1      -2.131 -13.964   1.899  0.00  0.00    -0.442 OA
BRANCH   3  17
ATOM      4  O   UNL     1      -1.073 -15.816   1.074  0.00  0.00    -0.226 OA
ATOM      8  N   UNL     1       0.040 -13.771   1.313  0.00  0.00    -0.251 N 
ATOM     17  C   UNL     1      -1.036 -14.634   1.391  0.00  0.00    +0.405 C 
ATOM     37  H   UNL     1      -0.127 -12.817   1.627  0.00  0.00    +0.158 HD
BRANCH   8  21
ATOM     21  C   UNL     1       1.347 -14.048   0.853  0.00  0.00    +0.036 A 
ATOM     23  C   UNL     1       2.283 -14.562   1.736  0.00  0.00    +0.023 A 
ATOM     24  C   UNL     1       1.667 -13.800  -0.473  0.00  0.00    +0.023 A 
ATOM     27  C   UNL     1       3.573 -14.835   1.282  0.00  0.00    +0.005 A 
ATOM     28  C   UNL     1       2.957 -14.074  -0.928  0.00  0.00    +0.005 A 
ATOM     32  C   UNL     1       3.909 -14.592  -0.050  0.00  0.00    -0.050 A 
ATOM     33  C   UNL     1       5.289 -14.885  -0.536  0.00  0.00    +0.044 C 
ENDBRANCH   8  21
ENDBRANCH   3  17
ENDBRANCH  13   3
TORSDOF 6
ENDMDL
MODEL 7
REMARK VINA RESULT:      -7.6      6.156     10.012
REMARK  Name = 11911647
REMARK  9 active torsions:
REMARK  status: ('A' for Active; 'I' for Inactive)
REMARK    1  A    between atoms: O_3  and  C_13
REMARK    2  A    between atoms: O_3  and  C_17
REMARK    3  A    between atoms: N_5  and  C_12
REMARK    4  A    between atoms: N_8  and  C_21
REMARK    5  A    between atoms: N_9  and  C_31
REMARK    6  A    between atoms: N_9  and  C_34
REMARK    7  A    between atoms: N_9  and  C_35
REMARK    8  A    between atoms: C_18  and  C_22
REMARK    9  A    between atoms: C_32  and  C_33
REMARK                            x       y       z     vdW  Elec       q    Type
REMARK                         _______ _______ _______ _____ _____    ______ ____
ROOT
ATOM      1  O   UNL     1      -5.072  -8.986  10.101  0.00  0.00    -0.368 OA
ATOM      2  O   UNL     1      -6.270 -11.794  10.399  0.00  0.00    -0.368 OA
ATOM     10  C   UNL     1      -4.944 -11.286  10.662  0.00  0.00    +0.173 C 
ATOM     11  C   UNL     1      -4.648 -10.259   9.588  0.00  0.00    +0.192 C 
ATOM     12  C   UNL     1      -4.943 -10.487  11.943  0.00  0.00    +0.130 C 
ATOM     13  C   UNL     1      -5.520 -10.719   8.444  0.00  0.00    +0.235 C 
ATOM     14  C   UNL     1      -5.445  -9.130  11.480  0.00  0.00    +0.185 C 
ATOM     15  C   UNL     1      -6.745 -11.235   9.166  0.00  0.00    +0.207 C 
ENDROOT
BRANCH  12   5
ATOM      5  N   UNL     1      -3.596 -10.372  12.461  0.00  0.00    -0.306 N 
ATOM      6  N   UNL     1      -4.293 -10.755  14.668  0.00  0.00    -0.214 NA
ATOM      7  N   UNL     1      -1.970 -10.375  14.153  0.00  0.00    -0.223 NA
ATOM     16  C   UNL     1      -3.276 -10.505  13.801  0.00  0.00    +0.216 A 
ATOM     18  C   UNL     1      -3.947 -10.878  15.967  0.00  0.00    +0.076 A 
ATOM     19  C   UNL     1      -1.695 -10.511  15.467  0.00  0.00    +0.116 A 
ATOM     20  C   UNL     1      -2.651 -10.765  16.429  0.00  0.00    +0.048 A 
ATOM     36  H   UNL     1      -2.824 -10.239  11.817  0.00  0.00    +0.149 HD
BRANCH  18  22
ATOM     22  C   UNL     1      -5.041 -11.144  16.870  0.00  0.00    +0.001 A 
ATOM     25  C   UNL     1      -6.327 -10.695  16.563  0.00  0.00    +0.012 A 
ATOM     26  C   UNL     1      -4.818 -11.853  18.052  0.00  0.00    +0.012 A 
ATOM     29  C   UNL     1      -7.385 -10.954  17.435  0.00  0.00    +0.024 A 
ATOM     30  C   UNL     1      -5.875 -12.111  18.925  0.00  0.00    +0.024 A 
ATOM     31  C   UNL     1      -7.159 -11.662  18.616  0.00  0.00    +0.029 A 
BRANCH  31   9
ATOM      9  N   UNL     1      -8.229 -11.923  19.498  0.00  0.00    -0.336 N 
ATOM     34  C   UNL     1      -8.308 -13.186  20.202  0.00  0.00    +0.129 C 
ATOM     35  C   UNL     1      -9.270 -10.935  19.698  0.00  0.00    +0.129 C 
ENDBRANCH  31   9
ENDBRANCH  18  22
ENDBRANCH  12   5
BRANCH  13   3
ATOM      3  O   UNL     1      -5.836  -9.694   7.530  0.00  0.00    -0.442 OA
BRANCH   3  17
ATOM      4  O   UNL     1      -6.363  -9.364   5.329  0.00  0.00    -0.226 OA
ATOM      8  N   UNL     1      -5.000 -11.141   6.014  0.00  0.00    -0.251 N 
ATOM     17  C   UNL     1      -5.783 -10.016   6.189  0.00  0.00    +0.405 C 
ATOM     37  H   UNL     1      -4.600 -11.544   6.858  0.00  0.00    +0.158 HD
BRANCH   8  21
ATOM     21  C   UNL     1      -4.686 -11.803   4.806  0.00  0.00    +0.036 A 
ATOM     23  C   UNL     1      -3.366 -12.124   4.531  0.00  0.00    +0.023 A 
ATOM     24  C   UNL     1      -5.703 -12.118   3.919  0.00  0.00    +0.023 A 
ATOM     27  C   UNL     1      -3.055 -12.777   3.338  0.00  0.00    +0.005 A 
ATOM     28  C   UNL     1      -5.393 -12.773   2.727  0.00  0.00    +0.005 A 
ATOM     32  C   UNL     1      -4.069 -13.102   2.437  0.00  0.00    -0.050 A 
ATOM     33  C   UNL     1      -3.738 -13.800   1.161  0.00  0.00    +0.044 C 
ENDBRANCH   8  21
ENDBRANCH   3  17
ENDBRANCH  13   3
TORSDOF 6
ENDMDL
MODEL 8
REMARK VINA RESULT:      -7.5     29.849     33.680
REMARK  Name = 11911647
REMARK  9 active torsions:
REMARK  status: ('A' for Active; 'I' for Inactive)
REMARK    1  A    between atoms: O_3  and  C_13
REMARK    2  A    between atoms: O_3  and  C_17
REMARK    3  A    between atoms: N_5  and  C_12
REMARK    4  A    between atoms: N_8  and  C_21
REMARK    5  A    between atoms: N_9  and  C_31
REMARK    6  A    between atoms: N_9  and  C_34
REMARK    7  A    between atoms: N_9  and  C_35
REMARK    8  A    between atoms: C_18  and  C_22
REMARK    9  A    between atoms: C_32  and  C_33
REMARK                            x       y       z     vdW  Elec       q    Type
REMARK                         _______ _______ _______ _____ _____    ______ ____
ROOT
ATOM      1  O   UNL     1      19.794   7.928  22.812  0.00  0.00    -0.368 OA
ATOM      2  O   UNL     1      19.717   6.513  20.091  0.00  0.00    -0.368 OA
ATOM     10  C   UNL     1      18.750   6.583  21.161  0.00  0.00    +0.173 C 
ATOM     11  C   UNL     1      19.532   6.560  22.459  0.00  0.00    +0.192 C 
ATOM     12  C   UNL     1      18.079   7.937  21.162  0.00  0.00    +0.130 C 
ATOM     13  C   UNL     1      20.795   5.831  22.069  0.00  0.00    +0.235 C 
ATOM     14  C   UNL     1      19.080   8.794  21.918  0.00  0.00    +0.185 C 
ATOM     15  C   UNL     1      21.022   6.322  20.657  0.00  0.00    +0.207 C 
ENDROOT
BRANCH  12   5
ATOM      5  N   UNL     1      16.827   7.874  21.885  0.00  0.00    -0.306 N 
ATOM      6  N   UNL     1      15.636   8.873  20.127  0.00  0.00    -0.214 NA
ATOM      7  N   UNL     1      14.521   8.214  22.160  0.00  0.00    -0.223 NA
ATOM     16  C   UNL     1      15.624   8.334  21.375  0.00  0.00    +0.216 A 
ATOM     18  C   UNL     1      14.448   9.311  19.661  0.00  0.00    +0.076 A 
ATOM     19  C   UNL     1      13.367   8.672  21.631  0.00  0.00    +0.116 A 
ATOM     20  C   UNL     1      13.269   9.235  20.375  0.00  0.00    +0.048 A 
ATOM     36  H   UNL     1      16.797   7.426  22.794  0.00  0.00    +0.149 HD
BRANCH  18  22
ATOM     22  C   UNL     1      14.481   9.879  18.334  0.00  0.00    +0.001 A 
ATOM     25  C   UNL     1      14.038   9.131  17.242  0.00  0.00    +0.012 A 
ATOM     26  C   UNL     1      14.953  11.178  18.140  0.00  0.00    +0.012 A 
ATOM     29  C   UNL     1      14.068   9.680  15.959  0.00  0.00    +0.024 A 
ATOM     30  C   UNL     1      14.984  11.728  16.858  0.00  0.00    +0.024 A 
ATOM     31  C   UNL     1      14.542  10.979  15.768  0.00  0.00    +0.029 A 
BRANCH  31   9
ATOM      9  N   UNL     1      14.572  11.534  14.471  0.00  0.00    -0.336 N 
ATOM     34  C   UNL     1      15.774  11.452  13.666  0.00  0.00    +0.129 C 
ATOM     35  C   UNL     1      13.406  12.206  13.934  0.00  0.00    +0.129 C 
ENDBRANCH  31   9
ENDBRANCH  18  22
ENDBRANCH  12   5
BRANCH  13   3
ATOM      3  O   UNL     1      21.890   6.113  22.911  0.00  0.00    -0.442 OA
BRANCH   3  17
ATOM      4  O   UNL     1      24.140   5.763  22.702  0.00  0.00    -0.226 OA
ATOM      8  N   UNL     1      22.618   3.984  22.738  0.00  0.00    -0.251 N 
ATOM     17  C   UNL     1      23.005   5.310  22.774  0.00  0.00    +0.405 C 
ATOM     37  H   UNL     1      21.619   3.806  22.813  0.00  0.00    +0.158 HD
BRANCH   8  21
ATOM     21  C   UNL     1      23.440   2.842  22.608  0.00  0.00    +0.036 A 
ATOM     23  C   UNL     1      23.747   2.367  21.343  0.00  0.00    +0.023 A 
ATOM     24  C   UNL     1      23.922   2.218  23.747  0.00  0.00    +0.023 A 
ATOM     27  C   UNL     1      24.558   1.239  21.214  0.00  0.00    +0.005 A 
ATOM     28  C   UNL     1      24.733   1.091  23.619  0.00  0.00    +0.005 A 
ATOM     32  C   UNL     1      25.051   0.602  22.352  0.00  0.00    -0.050 A 
ATOM     33  C   UNL     1      25.918  -0.604  22.215  0.00  0.00    +0.044 C 
ENDBRANCH   8  21
ENDBRANCH   3  17
ENDBRANCH  13   3
TORSDOF 6
ENDMDL
MODEL 9
REMARK VINA RESULT:      -7.3     30.001     32.963
REMARK  Name = 11911647
REMARK  9 active torsions:
REMARK  status: ('A' for Active; 'I' for Inactive)
REMARK    1  A    between atoms: O_3  and  C_13
REMARK    2  A    between atoms: O_3  and  C_17
REMARK    3  A    between atoms: N_5  and  C_12
REMARK    4  A    between atoms: N_8  and  C_21
REMARK    5  A    between atoms: N_9  and  C_31
REMARK    6  A    between atoms: N_9  and  C_34
REMARK    7  A    between atoms: N_9  and  C_35
REMARK    8  A    between atoms: C_18  and  C_22
REMARK    9  A    between atoms: C_32  and  C_33
REMARK                            x       y       z     vdW  Elec       q    Type
REMARK                         _______ _______ _______ _____ _____    ______ ____
ROOT
ATOM      1  O   UNL     1      20.944   7.757  20.555  0.00  0.00    -0.368 OA
ATOM      2  O   UNL     1      20.563   5.975  23.023  0.00  0.00    -0.368 OA
ATOM     10  C   UNL     1      21.165   5.713  21.738  0.00  0.00    +0.173 C 
ATOM     11  C   UNL     1      20.342   6.461  20.708  0.00  0.00    +0.192 C 
ATOM     12  C   UNL     1      22.525   6.365  21.662  0.00  0.00    +0.130 C 
ATOM     13  C   UNL     1      18.988   6.548  21.371  0.00  0.00    +0.235 C 
ATOM     14  C   UNL     1      22.179   7.796  21.286  0.00  0.00    +0.185 C 
ATOM     15  C   UNL     1      19.358   6.727  22.827  0.00  0.00    +0.207 C 
ENDROOT
BRANCH  12   5
ATOM      5  N   UNL     1      23.319   5.751  20.619  0.00  0.00    -0.306 N 
ATOM      6  N   UNL     1      23.588   3.766  21.840  0.00  0.00    -0.214 NA
ATOM      7  N   UNL     1      24.568   4.016  19.652  0.00  0.00    -0.223 NA
ATOM     16  C   UNL     1      23.840   4.472  20.706  0.00  0.00    +0.216 A 
ATOM     18  C   UNL     1      24.112   2.523  21.892  0.00  0.00    +0.076 A 
ATOM     19  C   UNL     1      25.061   2.765  19.771  0.00  0.00    +0.116 A 
ATOM     20  C   UNL     1      24.863   1.965  20.878  0.00  0.00    +0.048 A 
ATOM     36  H   UNL     1      23.468   6.249  19.748  0.00  0.00    +0.149 HD
BRANCH  18  22
ATOM     22  C   UNL     1      23.832   1.790  23.103  0.00  0.00    +0.001 A 
ATOM     25  C   UNL     1      24.640   0.714  23.473  0.00  0.00    +0.012 A 
ATOM     26  C   UNL     1      22.754   2.157  23.912  0.00  0.00    +0.012 A 
ATOM     29  C   UNL     1      24.371   0.006  24.645  0.00  0.00    +0.024 A 
ATOM     30  C   UNL     1      22.484   1.451  25.083  0.00  0.00    +0.024 A 
ATOM     31  C   UNL     1      23.293   0.375  25.450  0.00  0.00    +0.029 A 
BRANCH  31   9
ATOM      9  N   UNL     1      23.021  -0.341  26.635  0.00  0.00    -0.336 N 
ATOM     34  C   UNL     1      23.235  -1.772  26.694  0.00  0.00    +0.129 C 
ATOM     35  C   UNL     1      22.510   0.346  27.805  0.00  0.00    +0.129 C 
ENDBRANCH  31   9
ENDBRANCH  18  22
ENDBRANCH  12   5
BRANCH  13   3
ATOM      3  O   UNL     1      18.194   7.609  20.891  0.00  0.00    -0.442 OA
BRANCH   3  17
ATOM      4  O   UNL     1      17.173   6.272  19.342  0.00  0.00    -0.226 OA
ATOM      8  N   UNL     1      16.167   8.236  20.124  0.00  0.00    -0.251 N 
ATOM     17  C   UNL     1      17.159   7.278  20.040  0.00  0.00    +0.405 C 
ATOM     37  H   UNL     1      16.339   9.005  20.767  0.00  0.00    +0.158 HD
BRANCH   8  21
ATOM     21  C   UNL     1      14.940   8.282  19.423  0.00  0.00    +0.036 A 
ATOM     23  C   UNL     1      14.018   7.264  19.604  0.00  0.00    +0.023 A 
ATOM     24  C   UNL     1      14.683   9.343  18.570  0.00  0.00    +0.023 A 
ATOM     27  C   UNL     1      12.806   7.308  18.913  0.00  0.00    +0.005 A 
ATOM     28  C   UNL     1      13.472   9.388  17.879  0.00  0.00    +0.005 A 
ATOM     32  C   UNL     1      12.534   8.370  18.051  0.00  0.00    -0.050 A 
ATOM     33  C   UNL     1      11.240   8.418  17.312  0.00  0.00    +0.044 C 
ENDBRANCH   8  21
ENDBRANCH   3  17
ENDBRANCH  13   3
TORSDOF 6
ENDMDL
MODEL 10
REMARK VINA RESULT:      -7.1     29.468     31.847
REMARK  Name = 11911647
REMARK  9 active torsions:
REMARK  status: ('A' for Active; 'I' for Inactive)
REMARK    1  A    between atoms: O_3  and  C_13
REMARK    2  A    between atoms: O_3  and  C_17
REMARK    3  A    between atoms: N_5  and  C_12
REMARK    4  A    between atoms: N_8  and  C_21
REMARK    5  A    between atoms: N_9  and  C_31
REMARK    6  A    between atoms: N_9  and  C_34
REMARK    7  A    between atoms: N_9  and  C_35
REMARK    8  A    between atoms: C_18  and  C_22
REMARK    9  A    between atoms: C_32  and  C_33
REMARK                            x       y       z     vdW  Elec       q    Type
REMARK                         _______ _______ _______ _____ _____    ______ ____
ROOT
ATOM      1  O   UNL     1      11.442  12.239  25.694  0.00  0.00    -0.368 OA
ATOM      2  O   UNL     1      13.138  13.062  23.275  0.00  0.00    -0.368 OA
ATOM     10  C   UNL     1      12.657  11.773  23.712  0.00  0.00    +0.173 C 
ATOM     11  C   UNL     1      12.718  11.774  25.227  0.00  0.00    +0.192 C 
ATOM     12  C   UNL     1      11.184  11.641  23.405  0.00  0.00    +0.130 C 
ATOM     13  C   UNL     1      13.815  12.772  25.510  0.00  0.00    +0.235 C 
ATOM     14  C   UNL     1      10.543  12.357  24.582  0.00  0.00    +0.185 C 
ATOM     15  C   UNL     1      13.605  13.795  24.416  0.00  0.00    +0.207 C 
ENDROOT
BRANCH  12   5
ATOM      5  N   UNL     1      10.797  10.246  23.397  0.00  0.00    -0.306 N 
ATOM      6  N   UNL     1      11.658   9.907  21.240  0.00  0.00    -0.214 NA
ATOM      7  N   UNL     1      10.617   8.104  22.455  0.00  0.00    -0.223 NA
ATOM     16  C   UNL     1      11.031   9.393  22.332  0.00  0.00    +0.216 A 
ATOM     18  C   UNL     1      11.870   9.049  20.221  0.00  0.00    +0.076 A 
ATOM     19  C   UNL     1      10.861   7.301  21.398  0.00  0.00    +0.116 A 
ATOM     20  C   UNL     1      11.490   7.722  20.244  0.00  0.00    +0.048 A 
ATOM     36  H   UNL     1      10.377   9.840  24.225  0.00  0.00    +0.149 HD
BRANCH  18  22
ATOM     22  C   UNL     1      12.537   9.614  19.072  0.00  0.00    +0.001 A 
ATOM     25  C   UNL     1      13.302  10.774  19.208  0.00  0.00    +0.012 A 
ATOM     26  C   UNL     1      12.422   9.001  17.823  0.00  0.00    +0.012 A 
ATOM     29  C   UNL     1      13.949  11.320  18.098  0.00  0.00    +0.024 A 
ATOM     30  C   UNL     1      13.068   9.546  16.714  0.00  0.00    +0.024 A 
ATOM     31  C   UNL     1      13.832  10.705  16.851  0.00  0.00    +0.029 A 
BRANCH  31   9
ATOM      9  N   UNL     1      14.485  11.257  15.729  0.00  0.00    -0.336 N 
ATOM     34  C   UNL     1      14.383  12.673  15.443  0.00  0.00    +0.129 C 
ATOM     35  C   UNL     1      15.256  10.410  14.841  0.00  0.00    +0.129 C 
ENDBRANCH  31   9
ENDBRANCH  18  22
ENDBRANCH  12   5
BRANCH  13   3
ATOM      3  O   UNL     1      13.735  13.346  26.795  0.00  0.00    -0.442 OA
BRANCH   3  17
ATOM      4  O   UNL     1      15.463  13.981  28.152  0.00  0.00    -0.226 OA
ATOM      8  N   UNL     1      14.906  11.728  27.846  0.00  0.00    -0.251 N 
ATOM     17  C   UNL     1      14.782  13.091  27.658  0.00  0.00    +0.405 C 
ATOM     37  H   UNL     1      14.240  11.144  27.344  0.00  0.00    +0.158 HD
BRANCH   8  21
ATOM     21  C   UNL     1      15.844  11.042  28.649  0.00  0.00    +0.036 A 
ATOM     23  C   UNL     1      17.174  11.007  28.259  0.00  0.00    +0.023 A 
ATOM     24  C   UNL     1      15.418  10.416  29.809  0.00  0.00    +0.023 A 
ATOM     27  C   UNL     1      18.101  10.330  29.051  0.00  0.00    +0.005 A 
ATOM     28  C   UNL     1      16.344   9.739  30.602  0.00  0.00    +0.005 A 
ATOM     32  C   UNL     1      17.686   9.696  30.223  0.00  0.00    -0.050 A 
ATOM     33  C   UNL     1      18.677   8.972  31.070  0.00  0.00    +0.044 C 
ENDBRANCH   8  21
ENDBRANCH   3  17
ENDBRANCH  13   3
TORSDOF 6
ENDMDL
