MODEL 1
REMARK VINA RESULT:      -5.7      0.000      0.000
REMARK  Name = 11883271
REMARK  5 active torsions:
REMARK  status: ('A' for Active; 'I' for Inactive)
REMARK    1  A    between atoms: O_3  and  C_11
REMARK    2  A    between atoms: O_3  and  C_14
REMARK    3  A    between atoms: N_6  and  C_10
REMARK    4  A    between atoms: C_14  and  C_17
REMARK    5  A    between atoms: C_15  and  C_16
REMARK                            x       y       z     vdW  Elec       q    Type
REMARK                         _______ _______ _______ _____ _____    ______ ____
ROOT
ATOM      1  O   UNL     1      13.479   8.917  21.926  0.00  0.00    -0.369 OA
ATOM      2  O   UNL     1      10.586   8.228  21.180  0.00  0.00    -0.369 OA
ATOM      8  C   UNL     1      11.706   8.652  20.375  0.00  0.00    +0.172 C 
ATOM      9  C   UNL     1      12.484   9.657  21.200  0.00  0.00    +0.180 C 
ATOM     10  C   UNL     1      12.674   7.508  20.189  0.00  0.00    +0.130 C 
ATOM     11  C   UNL     1      11.423  10.218  22.117  0.00  0.00    +0.176 C 
ATOM     12  C   UNL     1      13.477   7.553  21.477  0.00  0.00    +0.185 C 
ATOM     13  C   UNL     1      10.561   9.006  22.386  0.00  0.00    +0.194 C 
ENDROOT
BRANCH  10   6
ATOM      4  O   UNL     1      11.941   7.236  17.393  0.00  0.00    -0.276 OA
ATOM      6  N   UNL     1      13.517   7.717  19.037  0.00  0.00    -0.308 N 
ATOM     15  C   UNL     1      13.075   7.563  17.733  0.00  0.00    +0.210 C 
ATOM     16  C   UNL     1      14.150   7.868  16.724  0.00  0.00    +0.109 C 
ATOM     18  H   UNL     1      14.464   8.052  19.196  0.00  0.00    +0.149 HD
ENDBRANCH  10   6
BRANCH  11   3
ATOM      3  O   UNL     1      11.943  10.774  23.304  0.00  0.00    -0.362 OA
BRANCH   3  14
ATOM     14  C   UNL     1      10.919  11.046  24.258  0.00  0.00    +0.255 C 
BRANCH  14  17
ATOM      5  O   UNL     1      12.633  11.945  25.704  0.00  0.00    -0.274 OA
ATOM      7  N   UNL     1      10.496  12.785  25.858  0.00  0.00    -0.327 N 
ATOM     17  C   UNL     1      11.462  11.952  25.337  0.00  0.00    +0.236 C 
ATOM     19  H   UNL     1      10.719  13.449  26.592  0.00  0.00    +0.145 HD
ATOM     20  H   UNL     1       9.534  12.769  25.534  0.00  0.00    +0.145 HD
ENDBRANCH  14  17
ENDBRANCH   3  14
ENDBRANCH  11   3
TORSDOF 4
ENDMDL
MODEL 2
REMARK VINA RESULT:      -5.6      1.640      6.409
REMARK  Name = 11883271
REMARK  5 active torsions:
REMARK  status: ('A' for Active; 'I' for Inactive)
REMARK    1  A    between atoms: O_3  and  C_11
REMARK    2  A    between atoms: O_3  and  C_14
REMARK    3  A    between atoms: N_6  and  C_10
REMARK    4  A    between atoms: C_14  and  C_17
REMARK    5  A    between atoms: C_15  and  C_16
REMARK                            x       y       z     vdW  Elec       q    Type
REMARK                         _______ _______ _______ _____ _____    ______ ____
ROOT
ATOM      1  O   UNL     1      11.412   9.713  20.608  0.00  0.00    -0.369 OA
ATOM      2  O   UNL     1      13.846   9.350  22.437  0.00  0.00    -0.369 OA
ATOM      8  C   UNL     1      12.960  10.471  22.236  0.00  0.00    +0.172 C 
ATOM      9  C   UNL     1      12.609  10.494  20.762  0.00  0.00    +0.180 C 
ATOM     10  C   UNL     1      11.637  10.217  22.920  0.00  0.00    +0.130 C 
ATOM     11  C   UNL     1      13.804   9.819  20.132  0.00  0.00    +0.176 C 
ATOM     12  C   UNL     1      10.910   9.354  21.903  0.00  0.00    +0.185 C 
ATOM     13  C   UNL     1      14.158   8.771  21.162  0.00  0.00    +0.194 C 
ENDROOT
BRANCH  10   6
ATOM      4  O   UNL     1      11.321  11.598  25.454  0.00  0.00    -0.276 OA
ATOM      6  N   UNL     1      10.929  11.449  23.164  0.00  0.00    -0.308 N 
ATOM     15  C   UNL     1      10.832  12.036  24.416  0.00  0.00    +0.210 C 
ATOM     16  C   UNL     1      10.060  13.328  24.384  0.00  0.00    +0.109 C 
ATOM     18  H   UNL     1      10.533  11.937  22.364  0.00  0.00    +0.149 HD
ENDBRANCH  10   6
BRANCH  11   3
ATOM      3  O   UNL     1      13.528   9.251  18.870  0.00  0.00    -0.362 OA
BRANCH   3  14
ATOM     14  C   UNL     1      13.772   7.846  18.854  0.00  0.00    +0.255 C 
BRANCH  14  17
ATOM      5  O   UNL     1      11.910   7.316  17.408  0.00  0.00    -0.274 OA
ATOM      7  N   UNL     1      12.107   6.211  19.417  0.00  0.00    -0.327 N 
ATOM     17  C   UNL     1      12.508   7.119  18.462  0.00  0.00    +0.236 C 
ATOM     19  H   UNL     1      11.272   5.649  19.286  0.00  0.00    +0.145 HD
ATOM     20  H   UNL     1      12.622   6.068  20.280  0.00  0.00    +0.145 HD
ENDBRANCH  14  17
ENDBRANCH   3  14
ENDBRANCH  11   3
TORSDOF 4
ENDMDL
MODEL 3
REMARK VINA RESULT:      -5.4     13.838     17.225
REMARK  Name = 11883271
REMARK  5 active torsions:
REMARK  status: ('A' for Active; 'I' for Inactive)
REMARK    1  A    between atoms: O_3  and  C_11
REMARK    2  A    between atoms: O_3  and  C_14
REMARK    3  A    between atoms: N_6  and  C_10
REMARK    4  A    between atoms: C_14  and  C_17
REMARK    5  A    between atoms: C_15  and  C_16
REMARK                            x       y       z     vdW  Elec       q    Type
REMARK                         _______ _______ _______ _____ _____    ______ ____
ROOT
ATOM      1  O   UNL     1      10.494   4.711   5.043  0.00  0.00    -0.369 OA
ATOM      2  O   UNL     1       9.317   7.187   3.671  0.00  0.00    -0.369 OA
ATOM      8  C   UNL     1      10.682   6.786   3.912  0.00  0.00    +0.172 C 
ATOM      9  C   UNL     1      10.708   6.114   5.270  0.00  0.00    +0.180 C 
ATOM     10  C   UNL     1      11.077   5.686   2.955  0.00  0.00    +0.130 C 
ATOM     11  C   UNL     1       9.534   6.753   5.973  0.00  0.00    +0.176 C 
ATOM     12  C   UNL     1      10.508   4.451   3.631  0.00  0.00    +0.185 C 
ATOM     13  C   UNL     1       8.540   6.919   4.847  0.00  0.00    +0.194 C 
ENDROOT
BRANCH  10   6
ATOM      4  O   UNL     1      12.579   4.585   0.727  0.00  0.00    -0.276 OA
ATOM      6  N   UNL     1      12.511   5.598   2.823  0.00  0.00    -0.308 N 
ATOM     15  C   UNL     1      13.140   5.053   1.715  0.00  0.00    +0.210 C 
ATOM     16  C   UNL     1      14.640   5.109   1.823  0.00  0.00    +0.109 C 
ATOM     18  H   UNL     1      13.083   6.011   3.555  0.00  0.00    +0.149 HD
ENDBRANCH  10   6
BRANCH  11   3
ATOM      3  O   UNL     1       9.016   5.971   7.027  0.00  0.00    -0.362 OA
BRANCH   3  14
ATOM     14  C   UNL     1       9.726   6.183   8.245  0.00  0.00    +0.255 C 
BRANCH  14  17
ATOM      5  O   UNL     1       9.903   4.702  10.146  0.00  0.00    -0.274 OA
ATOM      7  N   UNL     1      10.236   3.846   8.036  0.00  0.00    -0.327 N 
ATOM     17  C   UNL     1       9.958   4.857   8.930  0.00  0.00    +0.236 C 
ATOM     19  H   UNL     1      10.414   2.900   8.356  0.00  0.00    +0.145 HD
ATOM     20  H   UNL     1      10.275   4.004   7.034  0.00  0.00    +0.145 HD
ENDBRANCH  14  17
ENDBRANCH   3  14
ENDBRANCH  11   3
TORSDOF 4
ENDMDL
MODEL 4
REMARK VINA RESULT:      -5.2     28.156     29.768
REMARK  Name = 11883271
REMARK  5 active torsions:
REMARK  status: ('A' for Active; 'I' for Inactive)
REMARK    1  A    between atoms: O_3  and  C_11
REMARK    2  A    between atoms: O_3  and  C_14
REMARK    3  A    between atoms: N_6  and  C_10
REMARK    4  A    between atoms: C_14  and  C_17
REMARK    5  A    between atoms: C_15  and  C_16
REMARK                            x       y       z     vdW  Elec       q    Type
REMARK                         _______ _______ _______ _____ _____    ______ ____
ROOT
ATOM      1  O   UNL     1     -14.661   4.262  31.106  0.00  0.00    -0.369 OA
ATOM      2  O   UNL     1     -14.691   3.245  33.999  0.00  0.00    -0.369 OA
ATOM      8  C   UNL     1     -13.916   4.279  33.357  0.00  0.00    +0.172 C 
ATOM      9  C   UNL     1     -13.604   3.788  31.957  0.00  0.00    +0.180 C 
ATOM     10  C   UNL     1     -14.770   5.504  33.130  0.00  0.00    +0.130 C 
ATOM     11  C   UNL     1     -13.645   2.288  32.121  0.00  0.00    +0.176 C 
ATOM     12  C   UNL     1     -15.509   5.148  31.851  0.00  0.00    +0.185 C 
ATOM     13  C   UNL     1     -14.759   2.107  33.127  0.00  0.00    +0.194 C 
ENDROOT
BRANCH  10   6
ATOM      4  O   UNL     1     -13.409   7.029  35.193  0.00  0.00    -0.276 OA
ATOM      6  N   UNL     1     -13.959   6.684  32.957  0.00  0.00    -0.308 N 
ATOM     15  C   UNL     1     -13.346   7.347  34.008  0.00  0.00    +0.210 C 
ATOM     16  C   UNL     1     -12.538   8.530  33.546  0.00  0.00    +0.109 C 
ATOM     18  H   UNL     1     -13.784   7.005  32.008  0.00  0.00    +0.149 HD
ENDBRANCH  10   6
BRANCH  11   3
ATOM      3  O   UNL     1     -13.901   1.598  30.918  0.00  0.00    -0.362 OA
BRANCH   3  14
ATOM     14  C   UNL     1     -15.129   0.875  30.969  0.00  0.00    +0.255 C 
BRANCH  14  17
ATOM      5  O   UNL     1     -14.258  -0.704  29.361  0.00  0.00    -0.274 OA
ATOM      7  N   UNL     1     -15.594  -1.478  31.067  0.00  0.00    -0.327 N 
ATOM     17  C   UNL     1     -14.933  -0.495  30.364  0.00  0.00    +0.236 C 
ATOM     19  H   UNL     1     -15.551  -2.449  30.774  0.00  0.00    +0.145 HD
ATOM     20  H   UNL     1     -16.146  -1.276  31.895  0.00  0.00    +0.145 HD
ENDBRANCH  14  17
ENDBRANCH   3  14
ENDBRANCH  11   3
TORSDOF 4
ENDMDL
MODEL 5
REMARK VINA RESULT:      -5.2     26.078     27.523
REMARK  Name = 11883271
REMARK  5 active torsions:
REMARK  status: ('A' for Active; 'I' for Inactive)
REMARK    1  A    between atoms: O_3  and  C_11
REMARK    2  A    between atoms: O_3  and  C_14
REMARK    3  A    between atoms: N_6  and  C_10
REMARK    4  A    between atoms: C_14  and  C_17
REMARK    5  A    between atoms: C_15  and  C_16
REMARK                            x       y       z     vdW  Elec       q    Type
REMARK                         _______ _______ _______ _____ _____    ______ ____
ROOT
ATOM      1  O   UNL     1      -6.219 -10.839  16.627  0.00  0.00    -0.369 OA
ATOM      2  O   UNL     1      -3.844 -11.583  18.417  0.00  0.00    -0.369 OA
ATOM      8  C   UNL     1      -4.045 -11.710  16.994  0.00  0.00    +0.172 C 
ATOM      9  C   UNL     1      -5.502 -12.074  16.787  0.00  0.00    +0.180 C 
ATOM     10  C   UNL     1      -3.910 -10.361  16.328  0.00  0.00    +0.130 C 
ATOM     11  C   UNL     1      -5.853 -12.762  18.084  0.00  0.00    +0.176 C 
ATOM     12  C   UNL     1      -5.284  -9.753  16.552  0.00  0.00    +0.185 C 
ATOM     13  C   UNL     1      -5.049 -11.973  19.092  0.00  0.00    +0.194 C 
ENDROOT
BRANCH  10   6
ATOM      4  O   UNL     1      -1.296 -10.490  15.070  0.00  0.00    -0.276 OA
ATOM      6  N   UNL     1      -3.620 -10.498  14.922  0.00  0.00    -0.308 N 
ATOM     15  C   UNL     1      -2.332 -10.551  14.412  0.00  0.00    +0.210 C 
ATOM     16  C   UNL     1      -2.314 -10.722  12.917  0.00  0.00    +0.109 C 
ATOM     18  H   UNL     1      -4.403 -10.620  14.284  0.00  0.00    +0.149 HD
ENDBRANCH  10   6
BRANCH  11   3
ATOM      3  O   UNL     1      -7.233 -12.742  18.376  0.00  0.00    -0.362 OA
BRANCH   3  14
ATOM     14  C   UNL     1      -7.497 -12.196  19.666  0.00  0.00    +0.255 C 
BRANCH  14  17
ATOM      5  O   UNL     1      -9.627 -11.192  20.212  0.00  0.00    -0.274 OA
ATOM      7  N   UNL     1      -8.279 -10.164  18.655  0.00  0.00    -0.327 N 
ATOM     17  C   UNL     1      -8.587 -11.156  19.561  0.00  0.00    +0.236 C 
ATOM     19  H   UNL     1      -8.921  -9.397  18.482  0.00  0.00    +0.145 HD
ATOM     20  H   UNL     1      -7.410 -10.159  18.130  0.00  0.00    +0.145 HD
ENDBRANCH  14  17
ENDBRANCH   3  14
ENDBRANCH  11   3
TORSDOF 4
ENDMDL
MODEL 6
REMARK VINA RESULT:      -5.2     26.400     28.250
REMARK  Name = 11883271
REMARK  5 active torsions:
REMARK  status: ('A' for Active; 'I' for Inactive)
REMARK    1  A    between atoms: O_3  and  C_11
REMARK    2  A    between atoms: O_3  and  C_14
REMARK    3  A    between atoms: N_6  and  C_10
REMARK    4  A    between atoms: C_14  and  C_17
REMARK    5  A    between atoms: C_15  and  C_16
REMARK                            x       y       z     vdW  Elec       q    Type
REMARK                         _______ _______ _______ _____ _____    ______ ____
ROOT
ATOM      1  O   UNL     1      -7.075 -11.355  16.988  0.00  0.00    -0.369 OA
ATOM      2  O   UNL     1      -5.292 -11.408  19.482  0.00  0.00    -0.369 OA
ATOM      8  C   UNL     1      -6.456 -10.621  19.156  0.00  0.00    +0.172 C 
ATOM      9  C   UNL     1      -6.373 -10.306  17.675  0.00  0.00    +0.180 C 
ATOM     10  C   UNL     1      -7.704 -11.463  19.278  0.00  0.00    +0.130 C 
ATOM     11  C   UNL     1      -4.887 -10.361  17.413  0.00  0.00    +0.176 C 
ATOM     12  C   UNL     1      -7.727 -12.199  17.949  0.00  0.00    +0.185 C 
ATOM     13  C   UNL     1      -4.443 -11.482  18.327  0.00  0.00    +0.194 C 
ENDROOT
BRANCH  10   6
ATOM      4  O   UNL     1     -10.253 -12.237  20.432  0.00  0.00    -0.276 OA
ATOM      6  N   UNL     1      -8.877 -10.641  19.443  0.00  0.00    -0.308 N 
ATOM     15  C   UNL     1     -10.055 -11.101  20.008  0.00  0.00    +0.210 C 
ATOM     16  C   UNL     1     -11.111 -10.030  20.084  0.00  0.00    +0.109 C 
ATOM     18  H   UNL     1      -8.810  -9.660  19.183  0.00  0.00    +0.149 HD
ENDBRANCH  10   6
BRANCH  11   3
ATOM      3  O   UNL     1      -4.563 -10.617  16.065  0.00  0.00    -0.362 OA
BRANCH   3  14
ATOM     14  C   UNL     1      -3.508 -11.568  15.942  0.00  0.00    +0.255 C 
BRANCH  14  17
ATOM      5  O   UNL     1      -2.234 -10.328  14.304  0.00  0.00    -0.274 OA
ATOM      7  N   UNL     1      -1.207 -10.959  16.264  0.00  0.00    -0.327 N 
ATOM     17  C   UNL     1      -2.275 -10.886  15.397  0.00  0.00    +0.236 C 
ATOM     19  H   UNL     1      -0.313 -10.543  16.028  0.00  0.00    +0.145 HD
ATOM     20  H   UNL     1      -1.270 -11.428  17.163  0.00  0.00    +0.145 HD
ENDBRANCH  14  17
ENDBRANCH   3  14
ENDBRANCH  11   3
TORSDOF 4
ENDMDL
MODEL 7
REMARK VINA RESULT:      -5.1     26.415     27.849
REMARK  Name = 11883271
REMARK  5 active torsions:
REMARK  status: ('A' for Active; 'I' for Inactive)
REMARK    1  A    between atoms: O_3  and  C_11
REMARK    2  A    between atoms: O_3  and  C_14
REMARK    3  A    between atoms: N_6  and  C_10
REMARK    4  A    between atoms: C_14  and  C_17
REMARK    5  A    between atoms: C_15  and  C_16
REMARK                            x       y       z     vdW  Elec       q    Type
REMARK                         _______ _______ _______ _____ _____    ______ ____
ROOT
ATOM      1  O   UNL     1      -5.267 -12.189  18.402  0.00  0.00    -0.369 OA
ATOM      2  O   UNL     1      -6.599 -10.249  16.436  0.00  0.00    -0.369 OA
ATOM      8  C   UNL     1      -5.260 -10.298  16.972  0.00  0.00    +0.172 C 
ATOM      9  C   UNL     1      -5.381 -10.756  18.412  0.00  0.00    +0.180 C 
ATOM     10  C   UNL     1      -4.473 -11.400  16.304  0.00  0.00    +0.130 C 
ATOM     11  C   UNL     1      -6.773 -10.306  18.782  0.00  0.00    +0.176 C 
ATOM     12  C   UNL     1      -4.918 -12.628  17.081  0.00  0.00    +0.185 C 
ATOM     13  C   UNL     1      -7.532 -10.522  17.492  0.00  0.00    +0.194 C 
ENDROOT
BRANCH  10   6
ATOM      4  O   UNL     1      -2.644 -10.422  14.273  0.00  0.00    -0.276 OA
ATOM      6  N   UNL     1      -3.053 -11.183  16.435  0.00  0.00    -0.308 N 
ATOM     15  C   UNL     1      -2.258 -10.711  15.403  0.00  0.00    +0.210 C 
ATOM     16  C   UNL     1      -0.820 -10.551  15.815  0.00  0.00    +0.109 C 
ATOM     18  H   UNL     1      -2.631 -11.330  17.349  0.00  0.00    +0.149 HD
ENDBRANCH  10   6
BRANCH  11   3
ATOM      3  O   UNL     1      -7.333 -11.033  19.853  0.00  0.00    -0.362 OA
BRANCH   3  14
ATOM     14  C   UNL     1      -8.678 -11.423  19.587  0.00  0.00    +0.255 C 
BRANCH  14  17
ATOM      5  O   UNL     1      -9.791 -13.340  20.549  0.00  0.00    -0.274 OA
ATOM      7  N   UNL     1      -7.836 -13.661  19.379  0.00  0.00    -0.327 N 
ATOM     17  C   UNL     1      -8.850 -12.890  19.902  0.00  0.00    +0.236 C 
ATOM     19  H   UNL     1      -7.823 -14.667  19.512  0.00  0.00    +0.145 HD
ATOM     20  H   UNL     1      -7.070 -13.261  18.846  0.00  0.00    +0.145 HD
ENDBRANCH  14  17
ENDBRANCH   3  14
ENDBRANCH  11   3
TORSDOF 4
ENDMDL
MODEL 8
REMARK VINA RESULT:      -4.8     25.961     27.112
REMARK  Name = 11883271
REMARK  5 active torsions:
REMARK  status: ('A' for Active; 'I' for Inactive)
REMARK    1  A    between atoms: O_3  and  C_11
REMARK    2  A    between atoms: O_3  and  C_14
REMARK    3  A    between atoms: N_6  and  C_10
REMARK    4  A    between atoms: C_14  and  C_17
REMARK    5  A    between atoms: C_15  and  C_16
REMARK                            x       y       z     vdW  Elec       q    Type
REMARK                         _______ _______ _______ _____ _____    ______ ____
ROOT
ATOM      1  O   UNL     1      -2.923 -10.497  16.114  0.00  0.00    -0.369 OA
ATOM      2  O   UNL     1      -4.454 -12.974  15.151  0.00  0.00    -0.369 OA
ATOM      8  C   UNL     1      -4.226 -11.690  14.533  0.00  0.00    +0.172 C 
ATOM      9  C   UNL     1      -4.271 -10.655  15.640  0.00  0.00    +0.180 C 
ATOM     10  C   UNL     1      -2.810 -11.606  14.015  0.00  0.00    +0.130 C 
ATOM     11  C   UNL     1      -5.154 -11.318  16.670  0.00  0.00    +0.176 C 
ATOM     12  C   UNL     1      -2.032 -11.234  15.265  0.00  0.00    +0.185 C 
ATOM     13  C   UNL     1      -4.762 -12.772  16.538  0.00  0.00    +0.194 C 
ENDROOT
BRANCH  10   6
ATOM      4  O   UNL     1      -2.938 -11.968  11.137  0.00  0.00    -0.276 OA
ATOM      6  N   UNL     1      -2.684 -10.592  12.997  0.00  0.00    -0.308 N 
ATOM     15  C   UNL     1      -2.759 -10.862  11.640  0.00  0.00    +0.210 C 
ATOM     16  C   UNL     1      -2.621  -9.621  10.800  0.00  0.00    +0.109 C 
ATOM     18  H   UNL     1      -2.594  -9.625  13.298  0.00  0.00    +0.149 HD
ENDBRANCH  10   6
BRANCH  11   3
ATOM      3  O   UNL     1      -4.954 -10.832  17.979  0.00  0.00    -0.362 OA
BRANCH   3  14
ATOM     14  C   UNL     1      -6.187 -10.571  18.644  0.00  0.00    +0.255 C 
BRANCH  14  17
ATOM      5  O   UNL     1      -5.905 -11.347  20.916  0.00  0.00    -0.274 OA
ATOM      7  N   UNL     1      -7.073 -12.660  19.430  0.00  0.00    -0.327 N 
ATOM     17  C   UNL     1      -6.356 -11.540  19.791  0.00  0.00    +0.236 C 
ATOM     19  H   UNL     1      -7.264 -13.396  20.101  0.00  0.00    +0.145 HD
ATOM     20  H   UNL     1      -7.434 -12.793  18.491  0.00  0.00    +0.145 HD
ENDBRANCH  14  17
ENDBRANCH   3  14
ENDBRANCH  11   3
TORSDOF 4
ENDMDL
MODEL 9
REMARK VINA RESULT:      -4.8     16.175     19.441
REMARK  Name = 11883271
REMARK  5 active torsions:
REMARK  status: ('A' for Active; 'I' for Inactive)
REMARK    1  A    between atoms: O_3  and  C_11
REMARK    2  A    between atoms: O_3  and  C_14
REMARK    3  A    between atoms: N_6  and  C_10
REMARK    4  A    between atoms: C_14  and  C_17
REMARK    5  A    between atoms: C_15  and  C_16
REMARK                            x       y       z     vdW  Elec       q    Type
REMARK                         _______ _______ _______ _____ _____    ______ ____
ROOT
ATOM      1  O   UNL     1      -1.623  11.939  35.088  0.00  0.00    -0.369 OA
ATOM      2  O   UNL     1       0.740  12.700  36.889  0.00  0.00    -0.369 OA
ATOM      8  C   UNL     1       0.689  12.047  35.603  0.00  0.00    +0.172 C 
ATOM      9  C   UNL     1      -0.537  11.156  35.611  0.00  0.00    +0.180 C 
ATOM     10  C   UNL     1       0.396  13.057  34.519  0.00  0.00    +0.130 C 
ATOM     11  C   UNL     1      -0.716  10.861  37.081  0.00  0.00    +0.176 C 
ATOM     12  C   UNL     1      -1.115  13.190  34.603  0.00  0.00    +0.185 C 
ATOM     13  C   UNL     1      -0.300  12.166  37.721  0.00  0.00    +0.194 C 
ENDROOT
BRANCH  10   6
ATOM      4  O   UNL     1       1.362  14.621  32.271  0.00  0.00    -0.276 OA
ATOM      6  N   UNL     1       0.809  12.571  33.225  0.00  0.00    -0.308 N 
ATOM     15  C   UNL     1       1.258  13.398  32.209  0.00  0.00    +0.210 C 
ATOM     16  C   UNL     1       1.648  12.631  30.974  0.00  0.00    +0.109 C 
ATOM     18  H   UNL     1       0.823  11.564  33.078  0.00  0.00    +0.149 HD
ENDBRANCH  10   6
BRANCH  11   3
ATOM      3  O   UNL     1      -2.035  10.498  37.426  0.00  0.00    -0.362 OA
BRANCH   3  14
ATOM     14  C   UNL     1      -2.066   9.367  38.293  0.00  0.00    +0.255 C 
BRANCH  14  17
ATOM      5  O   UNL     1      -2.016   7.019  37.725  0.00  0.00    -0.274 OA
ATOM      7  N   UNL     1      -3.387   8.423  36.524  0.00  0.00    -0.327 N 
ATOM     17  C   UNL     1      -2.464   8.140  37.507  0.00  0.00    +0.236 C 
ATOM     19  H   UNL     1      -3.744   7.692  35.917  0.00  0.00    +0.145 HD
ATOM     20  H   UNL     1      -3.741   9.361  36.365  0.00  0.00    +0.145 HD
ENDBRANCH  14  17
ENDBRANCH   3  14
ENDBRANCH  11   3
TORSDOF 4
ENDMDL
MODEL 10
REMARK VINA RESULT:      -4.8     18.660     20.968
REMARK  Name = 11883271
REMARK  5 active torsions:
REMARK  status: ('A' for Active; 'I' for Inactive)
REMARK    1  A    between atoms: O_3  and  C_11
REMARK    2  A    between atoms: O_3  and  C_14
REMARK    3  A    between atoms: N_6  and  C_10
REMARK    4  A    between atoms: C_14  and  C_17
REMARK    5  A    between atoms: C_15  and  C_16
REMARK                            x       y       z     vdW  Elec       q    Type
REMARK                         _______ _______ _______ _____ _____    ______ ____
ROOT
ATOM      1  O   UNL     1      -0.333   9.515  38.566  0.00  0.00    -0.369 OA
ATOM      2  O   UNL     1      -2.643   7.933  37.316  0.00  0.00    -0.369 OA
ATOM      8  C   UNL     1      -1.263   7.585  37.550  0.00  0.00    +0.172 C 
ATOM      9  C   UNL     1      -0.446   8.838  37.303  0.00  0.00    +0.180 C 
ATOM     10  C   UNL     1      -1.042   7.291  39.015  0.00  0.00    +0.130 C 
ATOM     11  C   UNL     1      -1.311   9.604  36.332  0.00  0.00    +0.176 C 
ATOM     12  C   UNL     1      -0.877   8.682  39.601  0.00  0.00    +0.185 C 
ATOM     13  C   UNL     1      -2.705   9.277  36.819  0.00  0.00    +0.194 C 
ENDROOT
BRANCH  10   6
ATOM      4  O   UNL     1      -0.907   4.510  39.841  0.00  0.00    -0.276 OA
ATOM      6  N   UNL     1       0.142   6.492  39.217  0.00  0.00    -0.308 N 
ATOM     15  C   UNL     1       0.107   5.166  39.614  0.00  0.00    +0.210 C 
ATOM     16  C   UNL     1       1.482   4.563  39.723  0.00  0.00    +0.109 C 
ATOM     18  H   UNL     1       1.042   6.913  38.998  0.00  0.00    +0.149 HD
ENDBRANCH  10   6
BRANCH  11   3
ATOM      3  O   UNL     1      -1.062  10.993  36.331  0.00  0.00    -0.362 OA
BRANCH   3  14
ATOM     14  C   UNL     1       0.104  11.324  35.581  0.00  0.00    +0.255 C 
BRANCH  14  17
ATOM      5  O   UNL     1      -1.225  13.108  34.639  0.00  0.00    -0.274 OA
ATOM      7  N   UNL     1       0.688  12.451  33.543  0.00  0.00    -0.327 N 
ATOM     17  C   UNL     1      -0.236  12.386  34.562  0.00  0.00    +0.236 C 
ATOM     19  H   UNL     1       0.586  13.120  32.787  0.00  0.00    +0.145 HD
ATOM     20  H   UNL     1       1.498  11.840  33.505  0.00  0.00    +0.145 HD
ENDBRANCH  14  17
ENDBRANCH   3  14
ENDBRANCH  11   3
TORSDOF 4
ENDMDL
