MODEL 1
REMARK VINA RESULT:      -7.8      0.000      0.000
REMARK  Name = 25390362
REMARK  7 active torsions:
REMARK  status: ('A' for Active; 'I' for Inactive)
REMARK    1  A    between atoms: O_2  and  C_12
REMARK    2  A    between atoms: O_3  and  C_13
REMARK    3  A    between atoms: N_9  and  C_16
REMARK    4  A    between atoms: C_11  and  C_15
REMARK    5  A    between atoms: C_14  and  C_16
REMARK    6  A    between atoms: C_15  and  C_17
REMARK    7  A    between atoms: C_23  and  C_25
REMARK                            x       y       z     vdW  Elec       q    Type
REMARK                         _______ _______ _______ _____ _____    ______ ____
ROOT
ATOM      1  O   UNL     1      13.045   8.269  22.058  0.00  0.00    -0.366 OA
ATOM     11  C   UNL     1      13.897   9.435  22.118  0.00  0.00    +0.159 C 
ATOM     12  C   UNL     1      12.992  10.608  22.484  0.00  0.00    +0.175 C 
ATOM     13  C   UNL     1      11.662  10.171  21.908  0.00  0.00    +0.176 C 
ATOM     14  C   UNL     1      11.675   8.681  22.204  0.00  0.00    +0.167 C 
ENDROOT
BRANCH  12   2
ATOM      2  O   UNL     1      12.917  10.681  23.907  0.00  0.00    -0.387 OA
ATOM     32  H   UNL     1      12.190  10.100  24.190  0.00  0.00    +0.210 HD
ENDBRANCH  12   2
BRANCH  13   3
ATOM      3  O   UNL     1      10.556  10.819  22.500  0.00  0.00    -0.387 OA
ATOM     33  H   UNL     1      10.134  11.362  21.813  0.00  0.00    +0.210 HD
ENDBRANCH  13   3
BRANCH  11  15
ATOM     15  C   UNL     1      14.562   9.598  20.758  0.00  0.00    +0.130 C 
BRANCH  15  17
ATOM      4  O   UNL     1      16.198  11.298  21.017  0.00  0.00    -0.276 OA
ATOM      7  N   UNL     1      16.968   9.107  20.986  0.00  0.00    -0.298 N 
ATOM      8  N   UNL     1      19.076   7.150  21.323  0.00  0.00    -0.312 N 
ATOM     10  N   UNL     1      20.327   5.307  20.540  0.00  0.00    -0.240 NA
ATOM     17  C   UNL     1      15.978  10.088  20.934  0.00  0.00    +0.218 C 
ATOM     18  C   UNL     1      18.366   9.501  21.148  0.00  0.00    +0.126 C 
ATOM     19  C   UNL     1      16.704   7.669  20.896  0.00  0.00    +0.126 C 
ATOM     20  C   UNL     1      19.160   8.472  21.950  0.00  0.00    +0.125 C 
ATOM     21  C   UNL     1      17.929   6.868  20.455  0.00  0.00    +0.125 C 
ATOM     22  C   UNL     1      20.078   6.204  21.520  0.00  0.00    +0.121 A 
ATOM     24  C   UNL     1      20.763   6.247  22.723  0.00  0.00    +0.043 A 
ATOM     26  C   UNL     1      21.767   5.309  22.935  0.00  0.00    +0.005 A 
ATOM     27  C   UNL     1      21.310   4.410  20.782  0.00  0.00    +0.113 A 
ATOM     28  C   UNL     1      22.051   4.370  21.951  0.00  0.00    +0.020 A 
ENDBRANCH  15  17
ENDBRANCH  11  15
BRANCH  14  16
ATOM     16  C   UNL     1      10.795   7.873  21.268  0.00  0.00    +0.138 C 
BRANCH  16   9
ATOM      5  O   UNL     1      12.389   6.770  19.151  0.00  0.00    -0.267 OA
ATOM      9  N   UNL     1      10.887   8.359  19.923  0.00  0.00    -0.306 N 
ATOM     23  C   UNL     1      11.688   7.759  18.957  0.00  0.00    +0.279 C 
ATOM     34  H   UNL     1      10.340   9.177  19.669  0.00  0.00    +0.149 HD
BRANCH  23  25
ATOM      6  O   UNL     1      10.581   8.270  16.846  0.00  0.00    -0.458 OA
ATOM     25  C   UNL     1      11.694   8.400  17.616  0.00  0.00    +0.189 A 
ATOM     29  C   UNL     1      12.651   9.138  16.961  0.00  0.00    +0.054 A 
ATOM     30  C   UNL     1      12.091   9.487  15.709  0.00  0.00    +0.042 A 
ATOM     31  C   UNL     1      10.831   8.934  15.688  0.00  0.00    +0.196 A 
ENDBRANCH  23  25
ENDBRANCH  16   9
ENDBRANCH  14  16
TORSDOF 7
ENDMDL
MODEL 2
REMARK VINA RESULT:      -7.6      1.842      4.306
REMARK  Name = 25390362
REMARK  7 active torsions:
REMARK  status: ('A' for Active; 'I' for Inactive)
REMARK    1  A    between atoms: O_2  and  C_12
REMARK    2  A    between atoms: O_3  and  C_13
REMARK    3  A    between atoms: N_9  and  C_16
REMARK    4  A    between atoms: C_11  and  C_15
REMARK    5  A    between atoms: C_14  and  C_16
REMARK    6  A    between atoms: C_15  and  C_17
REMARK    7  A    between atoms: C_23  and  C_25
REMARK                            x       y       z     vdW  Elec       q    Type
REMARK                         _______ _______ _______ _____ _____    ______ ____
ROOT
ATOM      1  O   UNL     1      13.451   9.172  19.872  0.00  0.00    -0.366 OA
ATOM     11  C   UNL     1      14.620   8.418  19.478  0.00  0.00    +0.159 C 
ATOM     12  C   UNL     1      14.178   7.506  18.338  0.00  0.00    +0.175 C 
ATOM     13  C   UNL     1      12.713   7.293  18.655  0.00  0.00    +0.176 C 
ATOM     14  C   UNL     1      12.307   8.666  19.162  0.00  0.00    +0.167 C 
ENDROOT
BRANCH  12   2
ATOM      2  O   UNL     1      14.321   8.227  17.115  0.00  0.00    -0.387 OA
ATOM     32  H   UNL     1      13.485   8.140  16.626  0.00  0.00    +0.210 HD
ENDBRANCH  12   2
BRANCH  13   3
ATOM      3  O   UNL     1      11.951   6.894  17.535  0.00  0.00    -0.387 OA
ATOM     33  H   UNL     1      11.226   6.334  17.861  0.00  0.00    +0.210 HD
ENDBRANCH  13   3
BRANCH  11  15
ATOM     15  C   UNL     1      15.113   7.651  20.698  0.00  0.00    +0.130 C 
BRANCH  15  17
ATOM      4  O   UNL     1      16.104   9.488  21.827  0.00  0.00    -0.276 OA
ATOM      7  N   UNL     1      17.508   7.719  21.284  0.00  0.00    -0.298 N 
ATOM      8  N   UNL     1      20.058   6.357  21.448  0.00  0.00    -0.312 N 
ATOM     10  N   UNL     1      21.899   5.291  20.424  0.00  0.00    -0.240 NA
ATOM     17  C   UNL     1      16.278   8.376  21.324  0.00  0.00    +0.218 C 
ATOM     18  C   UNL     1      18.687   8.359  21.864  0.00  0.00    +0.126 C 
ATOM     19  C   UNL     1      17.711   6.394  20.694  0.00  0.00    +0.126 C 
ATOM     20  C   UNL     1      19.655   7.339  22.458  0.00  0.00    +0.125 C 
ATOM     21  C   UNL     1      19.167   6.135  20.305  0.00  0.00    +0.125 C 
ATOM     22  C   UNL     1      21.271   5.681  21.555  0.00  0.00    +0.121 A 
ATOM     24  C   UNL     1      21.758   5.453  22.831  0.00  0.00    +0.043 A 
ATOM     26  C   UNL     1      22.969   4.780  22.955  0.00  0.00    +0.005 A 
ATOM     27  C   UNL     1      23.073   4.638  20.583  0.00  0.00    +0.113 A 
ATOM     28  C   UNL     1      23.644   4.361  21.814  0.00  0.00    +0.020 A 
ENDBRANCH  15  17
ENDBRANCH  11  15
BRANCH  14  16
ATOM     16  C   UNL     1      11.104   8.636  20.085  0.00  0.00    +0.138 C 
BRANCH  16   9
ATOM      5  O   UNL     1      10.789   8.468  22.934  0.00  0.00    -0.267 OA
ATOM      9  N   UNL     1      11.139   9.725  21.017  0.00  0.00    -0.306 N 
ATOM     23  C   UNL     1      10.976   9.551  22.388  0.00  0.00    +0.279 C 
ATOM     34  H   UNL     1      11.289  10.663  20.655  0.00  0.00    +0.149 HD
BRANCH  23  25
ATOM      6  O   UNL     1      11.041  10.640  24.568  0.00  0.00    -0.458 OA
ATOM     25  C   UNL     1      11.012  10.784  23.217  0.00  0.00    +0.189 A 
ATOM     29  C   UNL     1      11.021  12.116  22.872  0.00  0.00    +0.054 A 
ATOM     30  C   UNL     1      11.061  12.836  24.089  0.00  0.00    +0.042 A 
ATOM     31  C   UNL     1      11.071  11.893  25.091  0.00  0.00    +0.196 A 
ENDBRANCH  23  25
ENDBRANCH  16   9
ENDBRANCH  14  16
TORSDOF 7
ENDMDL
MODEL 3
REMARK VINA RESULT:      -6.8     27.042     30.362
REMARK  Name = 25390362
REMARK  7 active torsions:
REMARK  status: ('A' for Active; 'I' for Inactive)
REMARK    1  A    between atoms: O_2  and  C_12
REMARK    2  A    between atoms: O_3  and  C_13
REMARK    3  A    between atoms: N_9  and  C_16
REMARK    4  A    between atoms: C_11  and  C_15
REMARK    5  A    between atoms: C_14  and  C_16
REMARK    6  A    between atoms: C_15  and  C_17
REMARK    7  A    between atoms: C_23  and  C_25
REMARK                            x       y       z     vdW  Elec       q    Type
REMARK                         _______ _______ _______ _____ _____    ______ ____
ROOT
ATOM      1  O   UNL     1      -4.396 -11.574  18.632  0.00  0.00    -0.366 OA
ATOM     11  C   UNL     1      -5.775 -11.937  18.866  0.00  0.00    +0.159 C 
ATOM     12  C   UNL     1      -6.278 -12.567  17.571  0.00  0.00    +0.175 C 
ATOM     13  C   UNL     1      -5.420 -11.878  16.531  0.00  0.00    +0.176 C 
ATOM     14  C   UNL     1      -4.082 -11.794  17.246  0.00  0.00    +0.167 C 
ENDROOT
BRANCH  12   2
ATOM      2  O   UNL     1      -5.980 -13.962  17.614  0.00  0.00    -0.387 OA
ATOM     32  H   UNL     1      -5.181 -14.073  18.157  0.00  0.00    +0.210 HD
ENDBRANCH  12   2
BRANCH  13   3
ATOM      3  O   UNL     1      -5.329 -12.594  15.318  0.00  0.00    -0.387 OA
ATOM     33  H   UNL     1      -4.389 -12.792  15.166  0.00  0.00    +0.210 HD
ENDBRANCH  13   3
BRANCH  11  15
ATOM     15  C   UNL     1      -6.533 -10.672  19.246  0.00  0.00    +0.130 C 
BRANCH  15  17
ATOM      4  O   UNL     1      -8.476 -11.743  20.089  0.00  0.00    -0.276 OA
ATOM      7  N   UNL     1      -8.784 -10.265  18.323  0.00  0.00    -0.298 N 
ATOM      8  N   UNL     1     -10.498  -8.744  16.554  0.00  0.00    -0.312 N 
ATOM     10  N   UNL     1     -11.148  -8.065  14.388  0.00  0.00    -0.240 NA
ATOM     17  C   UNL     1      -8.016 -10.948  19.267  0.00  0.00    +0.218 C 
ATOM     18  C   UNL     1     -10.228 -10.483  18.276  0.00  0.00    +0.126 C 
ATOM     19  C   UNL     1      -8.237  -9.312  17.355  0.00  0.00    +0.126 C 
ATOM     20  C   UNL     1     -10.981  -9.224  17.852  0.00  0.00    +0.125 C 
ATOM     21  C   UNL     1      -9.143  -9.118  16.139  0.00  0.00    +0.125 C 
ATOM     22  C   UNL     1     -11.319  -7.983  15.726  0.00  0.00    +0.121 A 
ATOM     24  C   UNL     1     -12.270  -7.183  16.339  0.00  0.00    +0.043 A 
ATOM     26  C   UNL     1     -13.098  -6.417  15.525  0.00  0.00    +0.005 A 
ATOM     27  C   UNL     1     -11.971  -7.305  13.630  0.00  0.00    +0.113 A 
ATOM     28  C   UNL     1     -12.951  -6.474  14.144  0.00  0.00    +0.020 A 
ENDBRANCH  15  17
ENDBRANCH  11  15
BRANCH  14  16
ATOM     16  C   UNL     1      -3.196 -10.672  16.737  0.00  0.00    +0.138 C 
BRANCH  16   9
ATOM      5  O   UNL     1      -1.413 -11.362  14.595  0.00  0.00    -0.267 OA
ATOM      9  N   UNL     1      -3.407 -10.439  15.338  0.00  0.00    -0.306 N 
ATOM     23  C   UNL     1      -2.485 -10.809  14.364  0.00  0.00    +0.279 C 
ATOM     34  H   UNL     1      -4.270  -9.984  15.052  0.00  0.00    +0.149 HD
BRANCH  23  25
ATOM      6  O   UNL     1      -4.155 -10.297  12.664  0.00  0.00    -0.458 OA
ATOM     25  C   UNL     1      -2.841 -10.473  12.961  0.00  0.00    +0.189 A 
ATOM     29  C   UNL     1      -2.063 -10.297  11.840  0.00  0.00    +0.054 A 
ATOM     30  C   UNL     1      -2.958  -9.989  10.787  0.00  0.00    +0.042 A 
ATOM     31  C   UNL     1      -4.217 -10.002  11.339  0.00  0.00    +0.196 A 
ENDBRANCH  23  25
ENDBRANCH  16   9
ENDBRANCH  14  16
TORSDOF 7
ENDMDL
MODEL 4
REMARK VINA RESULT:      -6.8     27.369     29.507
REMARK  Name = 25390362
REMARK  7 active torsions:
REMARK  status: ('A' for Active; 'I' for Inactive)
REMARK    1  A    between atoms: O_2  and  C_12
REMARK    2  A    between atoms: O_3  and  C_13
REMARK    3  A    between atoms: N_9  and  C_16
REMARK    4  A    between atoms: C_11  and  C_15
REMARK    5  A    between atoms: C_14  and  C_16
REMARK    6  A    between atoms: C_15  and  C_17
REMARK    7  A    between atoms: C_23  and  C_25
REMARK                            x       y       z     vdW  Elec       q    Type
REMARK                         _______ _______ _______ _____ _____    ______ ____
ROOT
ATOM      1  O   UNL     1      -5.650 -12.702  17.643  0.00  0.00    -0.366 OA
ATOM     11  C   UNL     1      -4.468 -11.871  17.646  0.00  0.00    +0.159 C 
ATOM     12  C   UNL     1      -4.330 -11.325  19.063  0.00  0.00    +0.175 C 
ATOM     13  C   UNL     1      -5.770 -11.295  19.530  0.00  0.00    +0.176 C 
ATOM     14  C   UNL     1      -6.320 -12.567  18.909  0.00  0.00    +0.167 C 
ENDROOT
BRANCH  12   2
ATOM      2  O   UNL     1      -3.580 -12.268  19.829  0.00  0.00    -0.387 OA
ATOM     32  H   UNL     1      -3.769 -12.097  20.767  0.00  0.00    +0.210 HD
ENDBRANCH  12   2
BRANCH  13   3
ATOM      3  O   UNL     1      -5.902 -11.291  20.936  0.00  0.00    -0.387 OA
ATOM     33  H   UNL     1      -6.702 -10.782  21.152  0.00  0.00    +0.210 HD
ENDBRANCH  13   3
BRANCH  11  15
ATOM     15  C   UNL     1      -4.663 -10.778  16.603  0.00  0.00    +0.130 C 
BRANCH  15  17
ATOM      4  O   UNL     1      -2.348 -10.863  16.085  0.00  0.00    -0.276 OA
ATOM      7  N   UNL     1      -3.809 -10.637  14.294  0.00  0.00    -0.298 N 
ATOM      8  N   UNL     1      -4.353 -10.592  11.450  0.00  0.00    -0.312 N 
ATOM     10  N   UNL     1      -5.299  -9.566   9.545  0.00  0.00    -0.240 NA
ATOM     17  C   UNL     1      -3.496 -10.766  15.647  0.00  0.00    +0.218 C 
ATOM     18  C   UNL     1      -2.734 -10.611  13.305  0.00  0.00    +0.126 C 
ATOM     19  C   UNL     1      -5.174 -10.532  13.774  0.00  0.00    +0.126 C 
ATOM     20  C   UNL     1      -3.158 -11.250  11.984  0.00  0.00    +0.125 C 
ATOM     21  C   UNL     1      -5.233  -9.888  12.388  0.00  0.00    +0.125 C 
ATOM     22  C   UNL     1      -4.624 -10.606  10.084  0.00  0.00    +0.121 A 
ATOM     24  C   UNL     1      -4.176 -11.698   9.361  0.00  0.00    +0.043 A 
ATOM     26  C   UNL     1      -4.438 -11.727   7.995  0.00  0.00    +0.005 A 
ATOM     27  C   UNL     1      -5.537  -9.630   8.215  0.00  0.00    +0.113 A 
ATOM     28  C   UNL     1      -5.131 -10.677   7.405  0.00  0.00    +0.020 A 
ENDBRANCH  15  17
ENDBRANCH  11  15
BRANCH  14  16
ATOM     16  C   UNL     1      -7.821 -12.533  18.693  0.00  0.00    +0.138 C 
BRANCH  16   9
ATOM      5  O   UNL     1      -9.725 -10.478  19.325  0.00  0.00    -0.267 OA
ATOM      9  N   UNL     1      -8.199 -11.429  17.860  0.00  0.00    -0.306 N 
ATOM     23  C   UNL     1      -9.135 -10.476  18.248  0.00  0.00    +0.279 C 
ATOM     34  H   UNL     1      -7.761 -11.345  16.946  0.00  0.00    +0.149 HD
BRANCH  23  25
ATOM      6  O   UNL     1      -9.344  -9.722  15.940  0.00  0.00    -0.458 OA
ATOM     25  C   UNL     1      -9.437  -9.409  17.259  0.00  0.00    +0.189 A 
ATOM     29  C   UNL     1      -9.811  -8.095  17.419  0.00  0.00    +0.054 A 
ATOM     30  C   UNL     1      -9.961  -7.568  16.114  0.00  0.00    +0.042 A 
ATOM     31  C   UNL     1      -9.665  -8.597  15.250  0.00  0.00    +0.196 A 
ENDBRANCH  23  25
ENDBRANCH  16   9
ENDBRANCH  14  16
TORSDOF 7
ENDMDL
MODEL 5
REMARK VINA RESULT:      -6.8     27.966     29.838
REMARK  Name = 25390362
REMARK  7 active torsions:
REMARK  status: ('A' for Active; 'I' for Inactive)
REMARK    1  A    between atoms: O_2  and  C_12
REMARK    2  A    between atoms: O_3  and  C_13
REMARK    3  A    between atoms: N_9  and  C_16
REMARK    4  A    between atoms: C_11  and  C_15
REMARK    5  A    between atoms: C_14  and  C_16
REMARK    6  A    between atoms: C_15  and  C_17
REMARK    7  A    between atoms: C_23  and  C_25
REMARK                            x       y       z     vdW  Elec       q    Type
REMARK                         _______ _______ _______ _____ _____    ______ ____
ROOT
ATOM      1  O   UNL     1      -8.215 -12.289  18.718  0.00  0.00    -0.366 OA
ATOM     11  C   UNL     1      -6.789 -12.051  18.730  0.00  0.00    +0.159 C 
ATOM     12  C   UNL     1      -6.606 -10.538  18.668  0.00  0.00    +0.175 C 
ATOM     13  C   UNL     1      -7.849 -10.101  17.921  0.00  0.00    +0.176 C 
ATOM     14  C   UNL     1      -8.896 -11.042  18.493  0.00  0.00    +0.167 C 
ENDROOT
BRANCH  12   2
ATOM      2  O   UNL     1      -6.627 -10.035  20.003  0.00  0.00    -0.387 OA
ATOM     32  H   UNL     1      -6.849  -9.089  19.955  0.00  0.00    +0.210 HD
ENDBRANCH  12   2
BRANCH  13   3
ATOM      3  O   UNL     1      -8.182  -8.745  18.135  0.00  0.00    -0.387 OA
ATOM     33  H   UNL     1      -8.067  -8.280  17.288  0.00  0.00    +0.210 HD
ENDBRANCH  13   3
BRANCH  11  15
ATOM     15  C   UNL     1      -6.185 -12.773  17.533  0.00  0.00    +0.130 C 
BRANCH  15  17
ATOM      4  O   UNL     1      -3.930 -12.127  17.890  0.00  0.00    -0.276 OA
ATOM      7  N   UNL     1      -4.892 -11.484  15.876  0.00  0.00    -0.298 N 
ATOM      8  N   UNL     1      -4.702 -10.355  13.217  0.00  0.00    -0.312 N 
ATOM     10  N   UNL     1      -5.442  -8.850  11.554  0.00  0.00    -0.240 NA
ATOM     17  C   UNL     1      -4.896 -12.104  17.126  0.00  0.00    +0.218 C 
ATOM     18  C   UNL     1      -3.682 -10.809  15.411  0.00  0.00    +0.126 C 
ATOM     19  C   UNL     1      -6.038 -11.467  14.964  0.00  0.00    +0.126 C 
ATOM     20  C   UNL     1      -3.523 -10.901  13.895  0.00  0.00    +0.125 C 
ATOM     21  C   UNL     1      -5.971 -10.325  13.950  0.00  0.00    +0.125 C 
ATOM     22  C   UNL     1      -4.606  -9.846  11.924  0.00  0.00    +0.121 A 
ATOM     24  C   UNL     1      -3.648 -10.403  11.093  0.00  0.00    +0.043 A 
ATOM     26  C   UNL     1      -3.540  -9.905   9.799  0.00  0.00    +0.005 A 
ATOM     27  C   UNL     1      -5.308  -8.393  10.289  0.00  0.00    +0.113 A 
ATOM     28  C   UNL     1      -4.383  -8.881   9.382  0.00  0.00    +0.020 A 
ENDBRANCH  15  17
ENDBRANCH  11  15
BRANCH  14  16
ATOM     16  C   UNL     1     -10.077 -11.264  17.567  0.00  0.00    +0.138 C 
BRANCH  16   9
ATOM      5  O   UNL     1     -12.109  -9.483  18.539  0.00  0.00    -0.267 OA
ATOM      9  N   UNL     1     -10.499 -10.034  16.963  0.00  0.00    -0.306 N 
ATOM     23  C   UNL     1     -11.496  -9.230  17.505  0.00  0.00    +0.279 C 
ATOM     34  H   UNL     1     -10.047  -9.743  16.101  0.00  0.00    +0.149 HD
BRANCH  23  25
ATOM      6  O   UNL     1     -10.899  -7.019  16.669  0.00  0.00    -0.458 OA
ATOM     25  C   UNL     1     -11.837  -8.000  16.743  0.00  0.00    +0.189 A 
ATOM     29  C   UNL     1     -12.974  -7.635  16.061  0.00  0.00    +0.054 A 
ATOM     30  C   UNL     1     -12.717  -6.348  15.531  0.00  0.00    +0.042 A 
ATOM     31  C   UNL     1     -11.443  -6.018  15.929  0.00  0.00    +0.196 A 
ENDBRANCH  23  25
ENDBRANCH  16   9
ENDBRANCH  14  16
TORSDOF 7
ENDMDL
MODEL 6
REMARK VINA RESULT:      -6.7      4.058      8.535
REMARK  Name = 25390362
REMARK  7 active torsions:
REMARK  status: ('A' for Active; 'I' for Inactive)
REMARK    1  A    between atoms: O_2  and  C_12
REMARK    2  A    between atoms: O_3  and  C_13
REMARK    3  A    between atoms: N_9  and  C_16
REMARK    4  A    between atoms: C_11  and  C_15
REMARK    5  A    between atoms: C_14  and  C_16
REMARK    6  A    between atoms: C_15  and  C_17
REMARK    7  A    between atoms: C_23  and  C_25
REMARK                            x       y       z     vdW  Elec       q    Type
REMARK                         _______ _______ _______ _____ _____    ______ ____
ROOT
ATOM      1  O   UNL     1      12.902   9.384  20.358  0.00  0.00    -0.366 OA
ATOM     11  C   UNL     1      12.928   9.526  18.920  0.00  0.00    +0.159 C 
ATOM     12  C   UNL     1      12.387   8.218  18.350  0.00  0.00    +0.175 C 
ATOM     13  C   UNL     1      12.773   7.224  19.425  0.00  0.00    +0.176 C 
ATOM     14  C   UNL     1      12.537   8.033  20.689  0.00  0.00    +0.167 C 
ENDROOT
BRANCH  12   2
ATOM      2  O   UNL     1      10.967   8.328  18.263  0.00  0.00    -0.387 OA
ATOM     32  H   UNL     1      10.717   8.149  17.341  0.00  0.00    +0.210 HD
ENDBRANCH  12   2
BRANCH  13   3
ATOM      3  O   UNL     1      11.998   6.043  19.399  0.00  0.00    -0.387 OA
ATOM     33  H   UNL     1      12.143   5.581  20.242  0.00  0.00    +0.210 HD
ENDBRANCH  13   3
BRANCH  11  15
ATOM     15  C   UNL     1      14.365   9.808  18.504  0.00  0.00    +0.130 C 
BRANCH  15  17
ATOM      4  O   UNL     1      14.761  12.108  18.938  0.00  0.00    -0.276 OA
ATOM      7  N   UNL     1      14.326  11.523  16.732  0.00  0.00    -0.298 N 
ATOM      8  N   UNL     1      14.188  12.169  13.913  0.00  0.00    -0.312 N 
ATOM     10  N   UNL     1      13.030  12.196  11.855  0.00  0.00    -0.240 NA
ATOM     17  C   UNL     1      14.506  11.251  18.089  0.00  0.00    +0.218 C 
ATOM     18  C   UNL     1      14.440  12.898  16.252  0.00  0.00    +0.126 C 
ATOM     19  C   UNL     1      14.033  10.503  15.723  0.00  0.00    +0.126 C 
ATOM     20  C   UNL     1      15.006  12.962  14.835  0.00  0.00    +0.125 C 
ATOM     21  C   UNL     1      13.377  11.082  14.469  0.00  0.00    +0.125 C 
ATOM     22  C   UNL     1      14.155  12.467  12.554  0.00  0.00    +0.121 A 
ATOM     24  C   UNL     1      15.294  13.030  12.001  0.00  0.00    +0.043 A 
ATOM     26  C   UNL     1      15.278  13.333  10.644  0.00  0.00    +0.005 A 
ATOM     27  C   UNL     1      13.052  12.504  10.538  0.00  0.00    +0.113 A 
ATOM     28  C   UNL     1      14.139  13.068   9.892  0.00  0.00    +0.020 A 
ENDBRANCH  15  17
ENDBRANCH  11  15
BRANCH  14  16
ATOM     16  C   UNL     1      13.360   7.556  21.872  0.00  0.00    +0.138 C 
BRANCH  16   9
ATOM      5  O   UNL     1      15.892   8.909  21.832  0.00  0.00    -0.267 OA
ATOM      9  N   UNL     1      14.615   7.012  21.444  0.00  0.00    -0.306 N 
ATOM     23  C   UNL     1      15.799   7.742  21.459  0.00  0.00    +0.279 C 
ATOM     34  H   UNL     1      14.635   6.050  21.117  0.00  0.00    +0.149 HD
BRANCH  23  25
ATOM      6  O   UNL     1      18.153   7.152  21.686  0.00  0.00    -0.458 OA
ATOM     25  C   UNL     1      17.010   7.043  20.958  0.00  0.00    +0.189 A 
ATOM     29  C   UNL     1      17.220   6.265  19.844  0.00  0.00    +0.054 A 
ATOM     30  C   UNL     1      18.577   5.868  19.891  0.00  0.00    +0.042 A 
ATOM     31  C   UNL     1      19.101   6.434  21.030  0.00  0.00    +0.196 A 
ENDBRANCH  23  25
ENDBRANCH  16   9
ENDBRANCH  14  16
TORSDOF 7
ENDMDL
MODEL 7
REMARK VINA RESULT:      -6.7     27.663     31.640
REMARK  Name = 25390362
REMARK  7 active torsions:
REMARK  status: ('A' for Active; 'I' for Inactive)
REMARK    1  A    between atoms: O_2  and  C_12
REMARK    2  A    between atoms: O_3  and  C_13
REMARK    3  A    between atoms: N_9  and  C_16
REMARK    4  A    between atoms: C_11  and  C_15
REMARK    5  A    between atoms: C_14  and  C_16
REMARK    6  A    between atoms: C_15  and  C_17
REMARK    7  A    between atoms: C_23  and  C_25
REMARK                            x       y       z     vdW  Elec       q    Type
REMARK                         _______ _______ _______ _____ _____    ______ ____
ROOT
ATOM      1  O   UNL     1     -18.274   3.862  24.838  0.00  0.00    -0.366 OA
ATOM     11  C   UNL     1     -17.245   4.133  23.860  0.00  0.00    +0.159 C 
ATOM     12  C   UNL     1     -16.477   2.828  23.673  0.00  0.00    +0.175 C 
ATOM     13  C   UNL     1     -16.648   2.166  25.024  0.00  0.00    +0.176 C 
ATOM     14  C   UNL     1     -18.080   2.539  25.368  0.00  0.00    +0.167 C 
ENDROOT
BRANCH  12   2
ATOM      2  O   UNL     1     -17.136   2.069  22.661  0.00  0.00    -0.387 OA
ATOM     32  H   UNL     1     -18.088   2.088  22.855  0.00  0.00    +0.210 HD
ENDBRANCH  12   2
BRANCH  13   3
ATOM      3  O   UNL     1     -16.459   0.767  24.989  0.00  0.00    -0.387 OA
ATOM     33  H   UNL     1     -17.228   0.380  24.536  0.00  0.00    +0.210 HD
ENDBRANCH  13   3
BRANCH  11  15
ATOM     15  C   UNL     1     -16.377   5.263  24.397  0.00  0.00    +0.130 C 
BRANCH  15  17
ATOM      4  O   UNL     1     -17.643   7.156  23.727  0.00  0.00    -0.276 OA
ATOM      7  N   UNL     1     -15.583   6.862  22.695  0.00  0.00    -0.298 N 
ATOM      8  N   UNL     1     -13.444   7.794  20.981  0.00  0.00    -0.312 N 
ATOM     10  N   UNL     1     -11.952   7.472  19.179  0.00  0.00    -0.240 NA
ATOM     17  C   UNL     1     -16.601   6.514  23.583  0.00  0.00    +0.218 C 
ATOM     18  C   UNL     1     -15.727   8.056  21.866  0.00  0.00    +0.126 C 
ATOM     19  C   UNL     1     -14.341   6.103  22.533  0.00  0.00    +0.126 C 
ATOM     20  C   UNL     1     -14.383   8.733  21.601  0.00  0.00    +0.125 C 
ATOM     21  C   UNL     1     -13.660   6.360  21.188  0.00  0.00    +0.125 C 
ATOM     22  C   UNL     1     -12.398   8.256  20.186  0.00  0.00    +0.121 A 
ATOM     24  C   UNL     1     -11.879   9.505  20.485  0.00  0.00    +0.043 A 
ATOM     26  C   UNL     1     -10.834   9.980  19.700  0.00  0.00    +0.005 A 
ATOM     27  C   UNL     1     -10.935   7.967  18.438  0.00  0.00    +0.113 A 
ATOM     28  C   UNL     1     -10.347   9.202  18.656  0.00  0.00    +0.020 A 
ENDBRANCH  15  17
ENDBRANCH  11  15
BRANCH  14  16
ATOM     16  C   UNL     1     -18.362   2.538  26.859  0.00  0.00    +0.138 C 
BRANCH  16   9
ATOM      5  O   UNL     1     -17.766   0.200  28.415  0.00  0.00    -0.267 OA
ATOM      9  N   UNL     1     -17.167   2.292  27.611  0.00  0.00    -0.306 N 
ATOM     23  C   UNL     1     -16.961   1.125  28.340  0.00  0.00    +0.279 C 
ATOM     34  H   UNL     1     -16.442   3.004  27.608  0.00  0.00    +0.149 HD
BRANCH  23  25
ATOM      6  O   UNL     1     -15.039  -0.165  29.105  0.00  0.00    -0.458 OA
ATOM     25  C   UNL     1     -15.680   1.033  29.088  0.00  0.00    +0.189 A 
ATOM     29  C   UNL     1     -14.974   1.970  29.807  0.00  0.00    +0.054 A 
ATOM     30  C   UNL     1     -13.824   1.304  30.295  0.00  0.00    +0.042 A 
ATOM     31  C   UNL     1     -13.911   0.009  29.842  0.00  0.00    +0.196 A 
ENDBRANCH  23  25
ENDBRANCH  16   9
ENDBRANCH  14  16
TORSDOF 7
ENDMDL
MODEL 8
REMARK VINA RESULT:      -6.7      2.616      4.567
REMARK  Name = 25390362
REMARK  7 active torsions:
REMARK  status: ('A' for Active; 'I' for Inactive)
REMARK    1  A    between atoms: O_2  and  C_12
REMARK    2  A    between atoms: O_3  and  C_13
REMARK    3  A    between atoms: N_9  and  C_16
REMARK    4  A    between atoms: C_11  and  C_15
REMARK    5  A    between atoms: C_14  and  C_16
REMARK    6  A    between atoms: C_15  and  C_17
REMARK    7  A    between atoms: C_23  and  C_25
REMARK                            x       y       z     vdW  Elec       q    Type
REMARK                         _______ _______ _______ _____ _____    ______ ____
ROOT
ATOM      1  O   UNL     1      11.384  12.060  21.148  0.00  0.00    -0.366 OA
ATOM     11  C   UNL     1      10.865  11.822  22.476  0.00  0.00    +0.159 C 
ATOM     12  C   UNL     1      10.773  13.187  23.151  0.00  0.00    +0.175 C 
ATOM     13  C   UNL     1      11.879  13.955  22.458  0.00  0.00    +0.176 C 
ATOM     14  C   UNL     1      11.760  13.443  21.033  0.00  0.00    +0.167 C 
ENDROOT
BRANCH  12   2
ATOM      2  O   UNL     1       9.502  13.753  22.834  0.00  0.00    -0.387 OA
ATOM     32  H   UNL     1       9.601  14.244  22.002  0.00  0.00    +0.210 HD
ENDBRANCH  12   2
BRANCH  13   3
ATOM      3  O   UNL     1      11.718  15.356  22.533  0.00  0.00    -0.387 OA
ATOM     33  H   UNL     1      10.765  15.537  22.609  0.00  0.00    +0.210 HD
ENDBRANCH  13   3
BRANCH  11  15
ATOM     15  C   UNL     1      11.816  10.868  23.185  0.00  0.00    +0.130 C 
BRANCH  15  17
ATOM      4  O   UNL     1      10.489   8.963  22.693  0.00  0.00    -0.276 OA
ATOM      7  N   UNL     1      12.754   8.813  22.196  0.00  0.00    -0.298 N 
ATOM      8  N   UNL     1      15.004   7.448  20.990  0.00  0.00    -0.312 N 
ATOM     10  N   UNL     1      17.193   6.570  21.111  0.00  0.00    -0.240 NA
ATOM     17  C   UNL     1      11.615   9.465  22.670  0.00  0.00    +0.218 C 
ATOM     18  C   UNL     1      12.643   7.448  21.686  0.00  0.00    +0.126 C 
ATOM     19  C   UNL     1      14.088   9.414  22.161  0.00  0.00    +0.126 C 
ATOM     20  C   UNL     1      13.631   7.179  20.554  0.00  0.00    +0.125 C 
ATOM     21  C   UNL     1      15.206   8.373  22.109  0.00  0.00    +0.125 C 
ATOM     22  C   UNL     1      16.082   6.811  20.380  0.00  0.00    +0.121 A 
ATOM     24  C   UNL     1      15.941   6.465  19.046  0.00  0.00    +0.043 A 
ATOM     26  C   UNL     1      17.009   5.829  18.423  0.00  0.00    +0.005 A 
ATOM     27  C   UNL     1      18.211   5.951  20.470  0.00  0.00    +0.113 A 
ATOM     28  C   UNL     1      18.168   5.564  19.141  0.00  0.00    +0.020 A 
ENDBRANCH  15  17
ENDBRANCH  11  15
BRANCH  14  16
ATOM     16  C   UNL     1      13.050  13.559  20.242  0.00  0.00    +0.138 C 
BRANCH  16   9
ATOM      5  O   UNL     1      15.222  11.768  19.677  0.00  0.00    -0.267 OA
ATOM      9  N   UNL     1      13.104  12.581  19.194  0.00  0.00    -0.306 N 
ATOM     23  C   UNL     1      14.202  11.751  18.992  0.00  0.00    +0.279 C 
ATOM     34  H   UNL     1      12.303  12.495  18.576  0.00  0.00    +0.149 HD
BRANCH  23  25
ATOM      6  O   UNL     1      13.781   9.518  18.111  0.00  0.00    -0.458 OA
ATOM     25  C   UNL     1      14.114  10.809  17.847  0.00  0.00    +0.189 A 
ATOM     29  C   UNL     1      14.312  10.992  16.498  0.00  0.00    +0.054 A 
ATOM     30  C   UNL     1      14.084   9.732  15.894  0.00  0.00    +0.042 A 
ATOM     31  C   UNL     1      13.766   8.870  16.917  0.00  0.00    +0.196 A 
ENDBRANCH  23  25
ENDBRANCH  16   9
ENDBRANCH  14  16
TORSDOF 7
ENDMDL
MODEL 9
REMARK VINA RESULT:      -6.6     27.077     29.803
REMARK  Name = 25390362
REMARK  7 active torsions:
REMARK  status: ('A' for Active; 'I' for Inactive)
REMARK    1  A    between atoms: O_2  and  C_12
REMARK    2  A    between atoms: O_3  and  C_13
REMARK    3  A    between atoms: N_9  and  C_16
REMARK    4  A    between atoms: C_11  and  C_15
REMARK    5  A    between atoms: C_14  and  C_16
REMARK    6  A    between atoms: C_15  and  C_17
REMARK    7  A    between atoms: C_23  and  C_25
REMARK                            x       y       z     vdW  Elec       q    Type
REMARK                         _______ _______ _______ _____ _____    ______ ____
ROOT
ATOM      1  O   UNL     1      -5.988 -11.107  16.583  0.00  0.00    -0.366 OA
ATOM     11  C   UNL     1      -4.632 -11.459  16.937  0.00  0.00    +0.159 C 
ATOM     12  C   UNL     1      -4.618 -11.641  18.452  0.00  0.00    +0.175 C 
ATOM     13  C   UNL     1      -5.727 -10.708  18.891  0.00  0.00    +0.176 C 
ATOM     14  C   UNL     1      -6.750 -10.908  17.786  0.00  0.00    +0.167 C 
ENDROOT
BRANCH  12   2
ATOM      2  O   UNL     1      -4.968 -12.995  18.737  0.00  0.00    -0.387 OA
ATOM     32  H   UNL     1      -5.914 -13.099  18.542  0.00  0.00    +0.210 HD
ENDBRANCH  12   2
BRANCH  13   3
ATOM      3  O   UNL     1      -6.252 -11.023  20.163  0.00  0.00    -0.387 OA
ATOM     33  H   UNL     1      -6.234 -11.991  20.255  0.00  0.00    +0.210 HD
ENDBRANCH  13   3
BRANCH  11  15
ATOM     15  C   UNL     1      -3.719 -10.337  16.464  0.00  0.00    +0.130 C 
BRANCH  15  17
ATOM      4  O   UNL     1      -1.585 -11.262  15.988  0.00  0.00    -0.276 OA
ATOM      7  N   UNL     1      -3.005 -10.931  14.179  0.00  0.00    -0.298 N 
ATOM      8  N   UNL     1      -3.678 -11.267  11.383  0.00  0.00    -0.312 N 
ATOM     10  N   UNL     1      -4.363 -10.384   9.303  0.00  0.00    -0.240 NA
ATOM     17  C   UNL     1      -2.668 -10.888  15.532  0.00  0.00    +0.218 C 
ATOM     18  C   UNL     1      -2.039 -11.446  13.212  0.00  0.00    +0.126 C 
ATOM     19  C   UNL     1      -4.296 -10.495  13.641  0.00  0.00    +0.126 C 
ATOM     20  C   UNL     1      -2.722 -12.158  12.046  0.00  0.00    +0.125 C 
ATOM     21  C   UNL     1      -4.231 -10.150  12.153  0.00  0.00    +0.125 C 
ATOM     22  C   UNL     1      -4.020 -11.459  10.047  0.00  0.00    +0.121 A 
ATOM     24  C   UNL     1      -3.986 -12.757   9.564  0.00  0.00    +0.043 A 
ATOM     26  C   UNL     1      -4.325 -12.965   8.232  0.00  0.00    +0.005 A 
ATOM     27  C   UNL     1      -4.688 -10.625   8.013  0.00  0.00    +0.113 A 
ATOM     28  C   UNL     1      -4.685 -11.884   7.435  0.00  0.00    +0.020 A 
ENDBRANCH  15  17
ENDBRANCH  11  15
BRANCH  14  16
ATOM     16  C   UNL     1      -7.686  -9.726  17.611  0.00  0.00    +0.138 C 
BRANCH  16   9
ATOM      5  O   UNL     1     -10.141  -8.306  17.164  0.00  0.00    -0.267 OA
ATOM      9  N   UNL     1      -8.940  -9.956  18.266  0.00  0.00    -0.306 N 
ATOM     23  C   UNL     1     -10.085  -9.217  17.986  0.00  0.00    +0.279 C 
ATOM     34  H   UNL     1      -8.989 -10.693  18.965  0.00  0.00    +0.149 HD
BRANCH  23  25
ATOM      6  O   UNL     1     -11.132  -9.923  20.070  0.00  0.00    -0.458 OA
ATOM     25  C   UNL     1     -11.299  -9.561  18.771  0.00  0.00    +0.189 A 
ATOM     29  C   UNL     1     -12.630  -9.588  18.428  0.00  0.00    +0.054 A 
ATOM     30  C   UNL     1     -13.327  -9.991  19.592  0.00  0.00    +0.042 A 
ATOM     31  C   UNL     1     -12.372 -10.183  20.562  0.00  0.00    +0.196 A 
ENDBRANCH  23  25
ENDBRANCH  16   9
ENDBRANCH  14  16
TORSDOF 7
ENDMDL
MODEL 10
REMARK VINA RESULT:      -6.5      4.820      7.898
REMARK  Name = 25390362
REMARK  7 active torsions:
REMARK  status: ('A' for Active; 'I' for Inactive)
REMARK    1  A    between atoms: O_2  and  C_12
REMARK    2  A    between atoms: O_3  and  C_13
REMARK    3  A    between atoms: N_9  and  C_16
REMARK    4  A    between atoms: C_11  and  C_15
REMARK    5  A    between atoms: C_14  and  C_16
REMARK    6  A    between atoms: C_15  and  C_17
REMARK    7  A    between atoms: C_23  and  C_25
REMARK                            x       y       z     vdW  Elec       q    Type
REMARK                         _______ _______ _______ _____ _____    ______ ____
ROOT
ATOM      1  O   UNL     1      11.739  10.431  20.697  0.00  0.00    -0.366 OA
ATOM     11  C   UNL     1      12.319   9.666  19.616  0.00  0.00    +0.159 C 
ATOM     12  C   UNL     1      11.623   8.309  19.629  0.00  0.00    +0.175 C 
ATOM     13  C   UNL     1      11.255   8.157  21.090  0.00  0.00    +0.176 C 
ATOM     14  C   UNL     1      10.862   9.579  21.455  0.00  0.00    +0.167 C 
ENDROOT
BRANCH  12   2
ATOM      2  O   UNL     1      10.445   8.409  18.829  0.00  0.00    -0.387 OA
ATOM     32  H   UNL     1      10.317   7.551  18.391  0.00  0.00    +0.210 HD
ENDBRANCH  12   2
BRANCH  13   3
ATOM      3  O   UNL     1      10.201   7.243  21.310  0.00  0.00    -0.387 OA
ATOM     33  H   UNL     1      10.131   7.105  22.270  0.00  0.00    +0.210 HD
ENDBRANCH  13   3
BRANCH  11  15
ATOM     15  C   UNL     1      13.818   9.569  19.865  0.00  0.00    +0.130 C 
BRANCH  15  17
ATOM      4  O   UNL     1      14.818  11.646  20.434  0.00  0.00    -0.276 OA
ATOM      7  N   UNL     1      14.667  11.146  18.170  0.00  0.00    -0.298 N 
ATOM      8  N   UNL     1      15.296  11.702  15.399  0.00  0.00    -0.312 N 
ATOM     10  N   UNL     1      14.635  12.014  13.153  0.00  0.00    -0.240 NA
ATOM     17  C   UNL     1      14.481  10.881  19.527  0.00  0.00    +0.218 C 
ATOM     18  C   UNL     1      15.296  12.400  17.760  0.00  0.00    +0.126 C 
ATOM     19  C   UNL     1      14.275  10.233  17.094  0.00  0.00    +0.126 C 
ATOM     20  C   UNL     1      16.122  12.234  16.486  0.00  0.00    +0.125 C 
ATOM     21  C   UNL     1      14.094  10.941  15.752  0.00  0.00    +0.125 C 
ATOM     22  C   UNL     1      15.627  11.947  14.069  0.00  0.00    +0.121 A 
ATOM     24  C   UNL     1      16.970  12.107  13.769  0.00  0.00    +0.043 A 
ATOM     26  C   UNL     1      17.318  12.351  12.445  0.00  0.00    +0.005 A 
ATOM     27  C   UNL     1      15.011  12.252  11.876  0.00  0.00    +0.113 A 
ATOM     28  C   UNL     1      16.325  12.427  11.475  0.00  0.00    +0.020 A 
ENDBRANCH  15  17
ENDBRANCH  11  15
BRANCH  14  16
ATOM     16  C   UNL     1      11.007   9.883  22.935  0.00  0.00    +0.138 C 
BRANCH  16   9
ATOM      5  O   UNL     1      10.881  11.151  25.507  0.00  0.00    -0.267 OA
ATOM      9  N   UNL     1      10.862  11.286  23.192  0.00  0.00    -0.306 N 
ATOM     23  C   UNL     1      10.810  11.816  24.477  0.00  0.00    +0.279 C 
ATOM     34  H   UNL     1      10.796  11.915  22.397  0.00  0.00    +0.149 HD
BRANCH  23  25
ATOM      6  O   UNL     1      11.373  13.958  25.496  0.00  0.00    -0.458 OA
ATOM     25  C   UNL     1      10.631  13.288  24.575  0.00  0.00    +0.189 A 
ATOM     29  C   UNL     1       9.821  14.157  23.882  0.00  0.00    +0.054 A 
ATOM     30  C   UNL     1      10.083  15.444  24.410  0.00  0.00    +0.042 A 
ATOM     31  C   UNL     1      11.032  15.268  25.389  0.00  0.00    +0.196 A 
ENDBRANCH  23  25
ENDBRANCH  16   9
ENDBRANCH  14  16
TORSDOF 7
ENDMDL
