MODEL 1
REMARK VINA RESULT:      -6.4      0.000      0.000
REMARK  Name = 38027418
REMARK  14 active torsions:
REMARK  status: ('A' for Active; 'I' for Inactive)
REMARK    1  A    between atoms: N_3  and  C_14
REMARK    2  A    between atoms: N_4  and  C_19
REMARK    3  A    between atoms: N_5  and  C_27
REMARK    4  A    between atoms: N_6  and  C_28
REMARK    5  A    between atoms: N_6  and  C_29
REMARK    6  A    between atoms: N_6  and  C_30
REMARK    7  A    between atoms: C_7  and  C_11
REMARK    8  A    between atoms: C_8  and  C_14
REMARK    9  A    between atoms: C_10  and  C_15
REMARK   10  A    between atoms: C_11  and  C_16
REMARK   11  A    between atoms: C_11  and  C_17
REMARK   12  A    between atoms: C_12  and  C_18
REMARK   13  A    between atoms: C_15  and  C_20
REMARK   14  A    between atoms: C_27  and  C_28
REMARK                            x       y       z     vdW  Elec       q    Type
REMARK                         _______ _______ _______ _____ _____    ______ ____
ROOT
ATOM      7  C   UNL     1     -12.211   8.733  19.803  0.00  0.00    +0.000 C 
ATOM      8  C   UNL     1     -11.435   9.995  20.254  0.00  0.00    +0.032 C 
ATOM      9  C   UNL     1     -11.400   7.949  18.759  0.00  0.00    +0.012 C 
ATOM     10  C   UNL     1     -11.080   8.797  17.514  0.00  0.00    +0.023 C 
ATOM     12  C   UNL     1     -10.557  10.169  17.886  0.00  0.00    -0.073 C 
ATOM     13  C   UNL     1     -10.714  10.683  19.118  0.00  0.00    -0.022 C 
ATOM     18  C   UNL     1      -9.810  10.921  16.820  0.00  0.00    +0.039 C 
ENDROOT
BRANCH   7  11
ATOM     11  C   UNL     1     -12.551   7.821  20.986  0.00  0.00    -0.013 C 
ATOM     16  C   UNL     1     -14.044   7.512  21.007  0.00  0.00    +0.007 C 
ATOM     17  C   UNL     1     -11.734   6.535  20.920  0.00  0.00    +0.007 C 
ENDBRANCH   7  11
BRANCH   8  14
ATOM     14  C   UNL     1     -12.365  10.997  20.950  0.00  0.00    +0.113 C 
BRANCH  14   3
ATOM      2  O   UNL     1     -13.914  10.173  23.227  0.00  0.00    -0.253 OA
ATOM      3  N   UNL     1     -12.009  11.147  22.326  0.00  0.00    -0.299 N 
ATOM      4  N   UNL     1     -12.243  10.980  24.620  0.00  0.00    -0.297 N 
ATOM     26  C   UNL     1     -12.822  10.716  23.382  0.00  0.00    +0.300 C 
ATOM     31  H   UNL     1     -11.093  11.521  22.555  0.00  0.00    +0.150 HD
ATOM     32  H   UNL     1     -11.372  11.504  24.634  0.00  0.00    +0.151 HD
BRANCH   4  19
ATOM     19  C   UNL     1     -12.871  10.639  25.877  0.00  0.00    +0.074 C 
ATOM     21  C   UNL     1     -11.913   9.847  26.774  0.00  0.00    +0.022 C 
ATOM     22  C   UNL     1     -13.392  11.890  26.591  0.00  0.00    +0.022 C 
ATOM     23  C   UNL     1     -10.788  10.714  27.338  0.00  0.00    +0.002 C 
ATOM     24  C   UNL     1     -12.264  12.755  27.155  0.00  0.00    +0.002 C 
ATOM     25  C   UNL     1     -11.332  11.947  28.053  0.00  0.00    +0.000 C 
ENDBRANCH   4  19
ENDBRANCH  14   3
ENDBRANCH   8  14
BRANCH  10  15
ATOM     15  C   UNL     1     -12.299   8.905  16.591  0.00  0.00    +0.103 C 
BRANCH  15  20
ATOM      1  O   UNL     1     -10.919   8.227  14.723  0.00  0.00    -0.276 OA
ATOM      5  N   UNL     1     -13.213   7.861  14.644  0.00  0.00    -0.314 N 
ATOM     20  C   UNL     1     -12.035   8.303  15.229  0.00  0.00    +0.214 C 
ATOM     33  H   UNL     1     -14.091   7.968  15.142  0.00  0.00    +0.149 HD
BRANCH   5  27
ATOM     27  C   UNL     1     -13.262   7.244  13.338  0.00  0.00    +0.119 C 
BRANCH  27  28
ATOM     28  C   UNL     1     -14.698   7.035  12.881  0.00  0.00    +0.102 C 
BRANCH  28   6
ATOM      6  N   UNL     1     -15.175   5.721  13.293  0.00  0.00    -0.307 NA
ATOM     29  C   UNL     1     -15.503   4.901  12.125  0.00  0.00    +0.104 C 
ATOM     30  C   UNL     1     -16.341   5.845  14.169  0.00  0.00    +0.104 C 
ENDBRANCH  28   6
ENDBRANCH  27  28
ENDBRANCH   5  27
ENDBRANCH  15  20
ENDBRANCH  10  15
TORSDOF 9
ENDMDL
MODEL 2
REMARK VINA RESULT:      -6.2     17.391     21.744
REMARK  Name = 38027418
REMARK  14 active torsions:
REMARK  status: ('A' for Active; 'I' for Inactive)
REMARK    1  A    between atoms: N_3  and  C_14
REMARK    2  A    between atoms: N_4  and  C_19
REMARK    3  A    between atoms: N_5  and  C_27
REMARK    4  A    between atoms: N_6  and  C_28
REMARK    5  A    between atoms: N_6  and  C_29
REMARK    6  A    between atoms: N_6  and  C_30
REMARK    7  A    between atoms: C_7  and  C_11
REMARK    8  A    between atoms: C_8  and  C_14
REMARK    9  A    between atoms: C_10  and  C_15
REMARK   10  A    between atoms: C_11  and  C_16
REMARK   11  A    between atoms: C_11  and  C_17
REMARK   12  A    between atoms: C_12  and  C_18
REMARK   13  A    between atoms: C_15  and  C_20
REMARK   14  A    between atoms: C_27  and  C_28
REMARK                            x       y       z     vdW  Elec       q    Type
REMARK                         _______ _______ _______ _____ _____    ______ ____
ROOT
ATOM      7  C   UNL     1      -6.426 -10.407  17.617  0.00  0.00    +0.000 C 
ATOM      8  C   UNL     1      -6.108 -11.015  16.228  0.00  0.00    +0.032 C 
ATOM      9  C   UNL     1      -7.912 -10.594  17.956  0.00  0.00    +0.012 C 
ATOM     10  C   UNL     1      -8.835  -9.937  16.914  0.00  0.00    +0.023 C 
ATOM     12  C   UNL     1      -8.418 -10.277  15.498  0.00  0.00    -0.073 C 
ATOM     13  C   UNL     1      -7.200 -10.769  15.212  0.00  0.00    -0.022 C 
ATOM     18  C   UNL     1      -9.448 -10.080  14.421  0.00  0.00    +0.039 C 
ENDROOT
BRANCH   7  11
ATOM     11  C   UNL     1      -5.560 -11.025  18.719  0.00  0.00    -0.013 C 
ATOM     16  C   UNL     1      -6.075 -10.613  20.094  0.00  0.00    +0.007 C 
ATOM     17  C   UNL     1      -5.531 -12.544  18.586  0.00  0.00    +0.007 C 
ENDBRANCH   7  11
BRANCH   8  14
ATOM     14  C   UNL     1      -4.776 -10.485  15.683  0.00  0.00    +0.113 C 
BRANCH  14   3
ATOM      2  O   UNL     1      -2.700 -11.031  13.771  0.00  0.00    -0.253 OA
ATOM      3  N   UNL     1      -4.846 -10.297  14.268  0.00  0.00    -0.299 N 
ATOM      4  N   UNL     1      -4.115 -10.317  12.075  0.00  0.00    -0.297 N 
ATOM     26  C   UNL     1      -3.786 -10.589  13.400  0.00  0.00    +0.300 C 
ATOM     31  H   UNL     1      -5.727 -10.003  13.858  0.00  0.00    +0.150 HD
ATOM     32  H   UNL     1      -5.013  -9.881  11.889  0.00  0.00    +0.151 HD
BRANCH   4  19
ATOM     19  C   UNL     1      -3.202 -10.528  10.974  0.00  0.00    +0.074 C 
ATOM     21  C   UNL     1      -3.707 -11.637  10.044  0.00  0.00    +0.022 C 
ATOM     22  C   UNL     1      -2.958  -9.227  10.203  0.00  0.00    +0.022 C 
ATOM     23  C   UNL     1      -4.920 -11.204   9.222  0.00  0.00    +0.002 C 
ATOM     24  C   UNL     1      -4.173  -8.796   9.381  0.00  0.00    +0.002 C 
ATOM     25  C   UNL     1      -4.649  -9.912   8.456  0.00  0.00    +0.000 C 
ENDBRANCH   4  19
ENDBRANCH  14   3
ENDBRANCH   8  14
BRANCH  10  15
ATOM     15  C   UNL     1      -8.906  -8.419  17.116  0.00  0.00    +0.103 C 
BRANCH  15  20
ATOM      1  O   UNL     1     -11.295  -8.516  17.490  0.00  0.00    -0.276 OA
ATOM      5  N   UNL     1     -10.376  -6.663  16.432  0.00  0.00    -0.314 N 
ATOM     20  C   UNL     1     -10.326  -7.903  17.051  0.00  0.00    +0.214 C 
ATOM     33  H   UNL     1      -9.519  -6.234  16.099  0.00  0.00    +0.149 HD
BRANCH   5  27
ATOM     27  C   UNL     1     -11.606  -5.931  16.229  0.00  0.00    +0.119 C 
BRANCH  27  28
ATOM     28  C   UNL     1     -11.952  -5.835  14.750  0.00  0.00    +0.102 C 
BRANCH  28   6
ATOM      6  N   UNL     1     -13.011  -6.778  14.416  0.00  0.00    -0.307 NA
ATOM     29  C   UNL     1     -13.723  -6.350  13.211  0.00  0.00    +0.104 C 
ATOM     30  C   UNL     1     -13.946  -6.922  15.533  0.00  0.00    +0.104 C 
ENDBRANCH  28   6
ENDBRANCH  27  28
ENDBRANCH   5  27
ENDBRANCH  15  20
ENDBRANCH  10  15
TORSDOF 9
ENDMDL
MODEL 3
REMARK VINA RESULT:      -6.1     24.545     27.880
REMARK  Name = 38027418
REMARK  14 active torsions:
REMARK  status: ('A' for Active; 'I' for Inactive)
REMARK    1  A    between atoms: N_3  and  C_14
REMARK    2  A    between atoms: N_4  and  C_19
REMARK    3  A    between atoms: N_5  and  C_27
REMARK    4  A    between atoms: N_6  and  C_28
REMARK    5  A    between atoms: N_6  and  C_29
REMARK    6  A    between atoms: N_6  and  C_30
REMARK    7  A    between atoms: C_7  and  C_11
REMARK    8  A    between atoms: C_8  and  C_14
REMARK    9  A    between atoms: C_10  and  C_15
REMARK   10  A    between atoms: C_11  and  C_16
REMARK   11  A    between atoms: C_11  and  C_17
REMARK   12  A    between atoms: C_12  and  C_18
REMARK   13  A    between atoms: C_15  and  C_20
REMARK   14  A    between atoms: C_27  and  C_28
REMARK                            x       y       z     vdW  Elec       q    Type
REMARK                         _______ _______ _______ _____ _____    ______ ____
ROOT
ATOM      7  C   UNL     1      14.821   8.191  20.232  0.00  0.00    +0.000 C 
ATOM      8  C   UNL     1      14.007   7.095  19.499  0.00  0.00    +0.032 C 
ATOM      9  C   UNL     1      14.403   8.272  21.708  0.00  0.00    +0.012 C 
ATOM     10  C   UNL     1      12.904   8.585  21.873  0.00  0.00    +0.023 C 
ATOM     12  C   UNL     1      12.046   7.719  20.974  0.00  0.00    -0.073 C 
ATOM     13  C   UNL     1      12.559   7.051  19.925  0.00  0.00    -0.022 C 
ATOM     18  C   UNL     1      10.591   7.603  21.332  0.00  0.00    +0.039 C 
ENDROOT
BRANCH   7  11
ATOM     11  C   UNL     1      16.329   7.941  20.133  0.00  0.00    -0.013 C 
ATOM     16  C   UNL     1      17.098   9.015  20.895  0.00  0.00    +0.007 C 
ATOM     17  C   UNL     1      16.675   6.552  20.661  0.00  0.00    +0.007 C 
ENDBRANCH   7  11
BRANCH   8  14
ATOM     14  C   UNL     1      14.087   7.272  17.978  0.00  0.00    +0.113 C 
BRANCH  14   3
ATOM      2  O   UNL     1      13.736   8.509  15.406  0.00  0.00    -0.253 OA
ATOM      3  N   UNL     1      14.361   8.633  17.639  0.00  0.00    -0.299 N 
ATOM      4  N   UNL     1      14.505  10.510  16.297  0.00  0.00    -0.297 N 
ATOM     26  C   UNL     1      14.162   9.162  16.358  0.00  0.00    +0.300 C 
ATOM     31  H   UNL     1      14.649   9.270  18.376  0.00  0.00    +0.150 HD
ATOM     32  H   UNL     1      14.920  10.931  17.123  0.00  0.00    +0.151 HD
BRANCH   4  19
ATOM     19  C   UNL     1      14.396  11.301  15.092  0.00  0.00    +0.074 C 
ATOM     21  C   UNL     1      14.204  12.785  15.422  0.00  0.00    +0.022 C 
ATOM     22  C   UNL     1      15.610  11.088  14.181  0.00  0.00    +0.022 C 
ATOM     23  C   UNL     1      15.474  13.431  15.974  0.00  0.00    +0.002 C 
ATOM     24  C   UNL     1      16.879  11.736  14.736  0.00  0.00    +0.002 C 
ATOM     25  C   UNL     1      16.665  13.215  15.046  0.00  0.00    +0.000 C 
ENDBRANCH   4  19
ENDBRANCH  14   3
ENDBRANCH   8  14
BRANCH  10  15
ATOM     15  C   UNL     1      12.621  10.072  21.636  0.00  0.00    +0.103 C 
BRANCH  15  20
ATOM      1  O   UNL     1      13.666  11.579  23.215  0.00  0.00    -0.276 OA
ATOM      5  N   UNL     1      11.563  10.708  23.684  0.00  0.00    -0.314 N 
ATOM     20  C   UNL     1      12.705  10.877  22.914  0.00  0.00    +0.214 C 
ATOM     33  H   UNL     1      10.818  10.104  23.350  0.00  0.00    +0.149 HD
BRANCH   5  27
ATOM     27  C   UNL     1      11.369  11.356  24.961  0.00  0.00    +0.119 C 
BRANCH  27  28
ATOM     28  C   UNL     1      10.653  12.689  24.799  0.00  0.00    +0.102 C 
BRANCH  28   6
ATOM      6  N   UNL     1      11.573  13.791  25.047  0.00  0.00    -0.307 NA
ATOM     29  C   UNL     1      12.630  13.383  25.974  0.00  0.00    +0.104 C 
ATOM     30  C   UNL     1      10.856  14.953  25.577  0.00  0.00    +0.104 C 
ENDBRANCH  28   6
ENDBRANCH  27  28
ENDBRANCH   5  27
ENDBRANCH  15  20
ENDBRANCH  10  15
TORSDOF 9
ENDMDL
MODEL 4
REMARK VINA RESULT:      -6.0     20.110     22.803
REMARK  Name = 38027418
REMARK  14 active torsions:
REMARK  status: ('A' for Active; 'I' for Inactive)
REMARK    1  A    between atoms: N_3  and  C_14
REMARK    2  A    between atoms: N_4  and  C_19
REMARK    3  A    between atoms: N_5  and  C_27
REMARK    4  A    between atoms: N_6  and  C_28
REMARK    5  A    between atoms: N_6  and  C_29
REMARK    6  A    between atoms: N_6  and  C_30
REMARK    7  A    between atoms: C_7  and  C_11
REMARK    8  A    between atoms: C_8  and  C_14
REMARK    9  A    between atoms: C_10  and  C_15
REMARK   10  A    between atoms: C_11  and  C_16
REMARK   11  A    between atoms: C_11  and  C_17
REMARK   12  A    between atoms: C_12  and  C_18
REMARK   13  A    between atoms: C_15  and  C_20
REMARK   14  A    between atoms: C_27  and  C_28
REMARK                            x       y       z     vdW  Elec       q    Type
REMARK                         _______ _______ _______ _____ _____    ______ ____
ROOT
ATOM      7  C   UNL     1      -3.083 -12.182  12.532  0.00  0.00    +0.000 C 
ATOM      8  C   UNL     1      -2.024 -11.055  12.452  0.00  0.00    +0.032 C 
ATOM      9  C   UNL     1      -3.611 -12.521  11.130  0.00  0.00    +0.012 C 
ATOM     10  C   UNL     1      -4.247 -11.303  10.437  0.00  0.00    +0.023 C 
ATOM     12  C   UNL     1      -3.373 -10.071  10.549  0.00  0.00    -0.073 C 
ATOM     13  C   UNL     1      -2.377  -9.983  11.448  0.00  0.00    -0.022 C 
ATOM     18  C   UNL     1      -3.643  -8.957   9.576  0.00  0.00    +0.039 C 
ENDROOT
BRANCH   7  11
ATOM     11  C   UNL     1      -2.521 -13.444  13.194  0.00  0.00    -0.013 C 
ATOM     16  C   UNL     1      -3.395 -13.861  14.373  0.00  0.00    +0.007 C 
ATOM     17  C   UNL     1      -2.410 -14.575  12.177  0.00  0.00    +0.007 C 
ENDBRANCH   7  11
BRANCH   8  14
ATOM     14  C   UNL     1      -1.795 -10.411  13.825  0.00  0.00    +0.113 C 
BRANCH  14   3
ATOM      2  O   UNL     1      -2.058 -10.895  16.648  0.00  0.00    -0.253 OA
ATOM      3  N   UNL     1      -3.005 -10.399  14.587  0.00  0.00    -0.299 N 
ATOM      4  N   UNL     1      -4.349 -10.571  16.460  0.00  0.00    -0.297 N 
ATOM     26  C   UNL     1      -3.050 -10.644  15.965  0.00  0.00    +0.300 C 
ATOM     31  H   UNL     1      -3.869 -10.131  14.124  0.00  0.00    +0.150 HD
ATOM     32  H   UNL     1      -5.103 -10.434  15.794  0.00  0.00    +0.151 HD
BRANCH   4  19
ATOM     19  C   UNL     1      -4.678 -10.783  17.852  0.00  0.00    +0.074 C 
ATOM     21  C   UNL     1      -6.129 -10.382  18.142  0.00  0.00    +0.022 C 
ATOM     22  C   UNL     1      -4.411 -12.234  18.266  0.00  0.00    +0.022 C 
ATOM     23  C   UNL     1      -7.138 -11.361  17.543  0.00  0.00    +0.002 C 
ATOM     24  C   UNL     1      -5.422 -13.211  17.666  0.00  0.00    +0.002 C 
ATOM     25  C   UNL     1      -6.857 -12.796  17.978  0.00  0.00    +0.000 C 
ENDBRANCH   4  19
ENDBRANCH  14   3
ENDBRANCH   8  14
BRANCH  10  15
ATOM     15  C   UNL     1      -5.655 -11.029  10.980  0.00  0.00    +0.103 C 
BRANCH  15  20
ATOM      1  O   UNL     1      -6.919 -11.416   8.953  0.00  0.00    -0.276 OA
ATOM      5  N   UNL     1      -7.128  -9.385  10.064  0.00  0.00    -0.314 N 
ATOM     20  C   UNL     1      -6.627 -10.665   9.880  0.00  0.00    +0.214 C 
ATOM     33  H   UNL     1      -6.826  -8.838  10.863  0.00  0.00    +0.149 HD
BRANCH   5  27
ATOM     27  C   UNL     1      -8.078  -8.773   9.162  0.00  0.00    +0.119 C 
BRANCH  27  28
ATOM     28  C   UNL     1      -7.460  -7.590   8.431  0.00  0.00    +0.102 C 
BRANCH  28   6
ATOM      6  N   UNL     1      -8.471  -6.899   7.641  0.00  0.00    -0.307 NA
ATOM     29  C   UNL     1      -9.335  -6.090   8.503  0.00  0.00    +0.104 C 
ATOM     30  C   UNL     1      -9.273  -7.856   6.877  0.00  0.00    +0.104 C 
ENDBRANCH  28   6
ENDBRANCH  27  28
ENDBRANCH   5  27
ENDBRANCH  15  20
ENDBRANCH  10  15
TORSDOF 9
ENDMDL
MODEL 5
REMARK VINA RESULT:      -5.9     29.126     31.426
REMARK  Name = 38027418
REMARK  14 active torsions:
REMARK  status: ('A' for Active; 'I' for Inactive)
REMARK    1  A    between atoms: N_3  and  C_14
REMARK    2  A    between atoms: N_4  and  C_19
REMARK    3  A    between atoms: N_5  and  C_27
REMARK    4  A    between atoms: N_6  and  C_28
REMARK    5  A    between atoms: N_6  and  C_29
REMARK    6  A    between atoms: N_6  and  C_30
REMARK    7  A    between atoms: C_7  and  C_11
REMARK    8  A    between atoms: C_8  and  C_14
REMARK    9  A    between atoms: C_10  and  C_15
REMARK   10  A    between atoms: C_11  and  C_16
REMARK   11  A    between atoms: C_11  and  C_17
REMARK   12  A    between atoms: C_12  and  C_18
REMARK   13  A    between atoms: C_15  and  C_20
REMARK   14  A    between atoms: C_27  and  C_28
REMARK                            x       y       z     vdW  Elec       q    Type
REMARK                         _______ _______ _______ _____ _____    ______ ____
ROOT
ATOM      7  C   UNL     1      16.882   7.588  21.056  0.00  0.00    +0.000 C 
ATOM      8  C   UNL     1      18.428   7.666  21.032  0.00  0.00    +0.032 C 
ATOM      9  C   UNL     1      16.271   8.851  20.431  0.00  0.00    +0.012 C 
ATOM     10  C   UNL     1      16.706  10.133  21.164  0.00  0.00    +0.023 C 
ATOM     12  C   UNL     1      18.199  10.158  21.416  0.00  0.00    -0.073 C 
ATOM     13  C   UNL     1      18.954   9.048  21.341  0.00  0.00    -0.022 C 
ATOM     18  C   UNL     1      18.813  11.497  21.716  0.00  0.00    +0.039 C 
ENDROOT
BRANCH   7  11
ATOM     11  C   UNL     1      16.364   6.345  20.326  0.00  0.00    -0.013 C 
ATOM     16  C   UNL     1      14.915   6.546  19.894  0.00  0.00    +0.007 C 
ATOM     17  C   UNL     1      17.247   6.026  19.124  0.00  0.00    +0.007 C 
ENDBRANCH   7  11
BRANCH   8  14
ATOM     14  C   UNL     1      19.049   6.655  22.003  0.00  0.00    +0.113 C 
BRANCH  14   3
ATOM      2  O   UNL     1      21.286   5.610  23.476  0.00  0.00    -0.253 OA
ATOM      3  N   UNL     1      20.248   6.099  21.458  0.00  0.00    -0.299 N 
ATOM      4  N   UNL     1      22.344   5.123  21.467  0.00  0.00    -0.297 N 
ATOM     26  C   UNL     1      21.297   5.608  22.246  0.00  0.00    +0.300 C 
ATOM     31  H   UNL     1      20.320   5.990  20.450  0.00  0.00    +0.150 HD
ATOM     32  H   UNL     1      22.281   5.242  20.461  0.00  0.00    +0.151 HD
BRANCH   4  19
ATOM     19  C   UNL     1      23.551   4.559  22.028  0.00  0.00    +0.074 C 
ATOM     21  C   UNL     1      23.404   3.049  22.245  0.00  0.00    +0.022 C 
ATOM     22  C   UNL     1      24.767   4.877  21.151  0.00  0.00    +0.022 C 
ATOM     23  C   UNL     1      23.405   2.266  20.933  0.00  0.00    +0.002 C 
ATOM     24  C   UNL     1      24.765   4.091  19.840  0.00  0.00    +0.002 C 
ATOM     25  C   UNL     1      24.629   2.592  20.084  0.00  0.00    +0.000 C 
ENDBRANCH   4  19
ENDBRANCH  14   3
ENDBRANCH   8  14
BRANCH  10  15
ATOM     15  C   UNL     1      15.925  10.315  22.471  0.00  0.00    +0.103 C 
BRANCH  15  20
ATOM      1  O   UNL     1      14.384  12.039  21.759  0.00  0.00    -0.276 OA
ATOM      5  N   UNL     1      13.554  10.052  22.632  0.00  0.00    -0.314 N 
ATOM     20  C   UNL     1      14.559  10.922  22.236  0.00  0.00    +0.214 C 
ATOM     33  H   UNL     1      13.798   9.145  23.018  0.00  0.00    +0.149 HD
BRANCH   5  27
ATOM     27  C   UNL     1      12.148  10.370  22.526  0.00  0.00    +0.119 C 
BRANCH  27  28
ATOM     28  C   UNL     1      11.654  10.210  21.096  0.00  0.00    +0.102 C 
BRANCH  28   6
ATOM      6  N   UNL     1      11.915   8.858  20.618  0.00  0.00    -0.307 NA
ATOM     29  C   UNL     1      12.125   8.854  19.170  0.00  0.00    +0.104 C 
ATOM     30  C   UNL     1      10.812   7.963  20.973  0.00  0.00    +0.104 C 
ENDBRANCH  28   6
ENDBRANCH  27  28
ENDBRANCH   5  27
ENDBRANCH  15  20
ENDBRANCH  10  15
TORSDOF 9
ENDMDL
MODEL 6
REMARK VINA RESULT:      -5.9     26.256     28.572
REMARK  Name = 38027418
REMARK  14 active torsions:
REMARK  status: ('A' for Active; 'I' for Inactive)
REMARK    1  A    between atoms: N_3  and  C_14
REMARK    2  A    between atoms: N_4  and  C_19
REMARK    3  A    between atoms: N_5  and  C_27
REMARK    4  A    between atoms: N_6  and  C_28
REMARK    5  A    between atoms: N_6  and  C_29
REMARK    6  A    between atoms: N_6  and  C_30
REMARK    7  A    between atoms: C_7  and  C_11
REMARK    8  A    between atoms: C_8  and  C_14
REMARK    9  A    between atoms: C_10  and  C_15
REMARK   10  A    between atoms: C_11  and  C_16
REMARK   11  A    between atoms: C_11  and  C_17
REMARK   12  A    between atoms: C_12  and  C_18
REMARK   13  A    between atoms: C_15  and  C_20
REMARK   14  A    between atoms: C_27  and  C_28
REMARK                            x       y       z     vdW  Elec       q    Type
REMARK                         _______ _______ _______ _____ _____    ______ ____
ROOT
ATOM      7  C   UNL     1      13.994   9.015  20.102  0.00  0.00    +0.000 C 
ATOM      8  C   UNL     1      13.680   7.517  20.336  0.00  0.00    +0.032 C 
ATOM      9  C   UNL     1      15.364   9.177  19.425  0.00  0.00    +0.012 C 
ATOM     10  C   UNL     1      16.503   8.566  20.262  0.00  0.00    +0.023 C 
ATOM     12  C   UNL     1      16.154   7.178  20.758  0.00  0.00    -0.073 C 
ATOM     13  C   UNL     1      14.889   6.722  20.773  0.00  0.00    -0.022 C 
ATOM     18  C   UNL     1      17.298   6.308  21.199  0.00  0.00    +0.039 C 
ENDROOT
BRANCH   7  11
ATOM     11  C   UNL     1      12.914   9.697  19.256  0.00  0.00    -0.013 C 
ATOM     16  C   UNL     1      13.339  11.115  18.892  0.00  0.00    +0.007 C 
ATOM     17  C   UNL     1      12.626   8.880  18.000  0.00  0.00    +0.007 C 
ENDBRANCH   7  11
BRANCH   8  14
ATOM     14  C   UNL     1      12.556   7.341  21.363  0.00  0.00    +0.113 C 
BRANCH  14   3
ATOM      2  O   UNL     1      10.462   9.254  21.837  0.00  0.00    -0.253 OA
ATOM      3  N   UNL     1      12.569   8.405  22.317  0.00  0.00    -0.299 N 
ATOM      4  N   UNL     1      11.773  10.237  23.481  0.00  0.00    -0.297 N 
ATOM     26  C   UNL     1      11.505   9.299  22.489  0.00  0.00    +0.300 C 
ATOM     31  H   UNL     1      13.359   8.481  22.952  0.00  0.00    +0.150 HD
ATOM     32  H   UNL     1      12.697  10.230  23.903  0.00  0.00    +0.151 HD
BRANCH   4  19
ATOM     19  C   UNL     1      10.842  11.276  23.861  0.00  0.00    +0.074 C 
ATOM     21  C   UNL     1      11.104  11.755  25.293  0.00  0.00    +0.022 C 
ATOM     22  C   UNL     1      10.886  12.445  22.870  0.00  0.00    +0.022 C 
ATOM     23  C   UNL     1      12.386  12.578  25.411  0.00  0.00    +0.002 C 
ATOM     24  C   UNL     1      12.170  13.266  22.990  0.00  0.00    +0.002 C 
ATOM     25  C   UNL     1      12.401  13.740  24.422  0.00  0.00    +0.000 C 
ENDBRANCH   4  19
ENDBRANCH  14   3
ENDBRANCH   8  14
BRANCH  10  15
ATOM     15  C   UNL     1      16.889   9.485  21.426  0.00  0.00    +0.103 C 
BRANCH  15  20
ATOM      1  O   UNL     1      19.116  10.226  20.841  0.00  0.00    -0.276 OA
ATOM      5  N   UNL     1      18.813   8.867  22.702  0.00  0.00    -0.314 N 
ATOM     20  C   UNL     1      18.388   9.587  21.595  0.00  0.00    +0.214 C 
ATOM     33  H   UNL     1      18.134   8.368  23.267  0.00  0.00    +0.149 HD
BRANCH   5  27
ATOM     27  C   UNL     1      20.199   8.785  23.105  0.00  0.00    +0.119 C 
BRANCH  27  28
ATOM     28  C   UNL     1      20.844   7.502  22.603  0.00  0.00    +0.102 C 
BRANCH  28   6
ATOM      6  N   UNL     1      22.002   7.809  21.773  0.00  0.00    -0.307 NA
ATOM     29  C   UNL     1      21.788   7.353  20.398  0.00  0.00    +0.104 C 
ATOM     30  C   UNL     1      23.211   7.198  22.327  0.00  0.00    +0.104 C 
ENDBRANCH  28   6
ENDBRANCH  27  28
ENDBRANCH   5  27
ENDBRANCH  15  20
ENDBRANCH  10  15
TORSDOF 9
ENDMDL
MODEL 7
REMARK VINA RESULT:      -5.9     23.681     27.911
REMARK  Name = 38027418
REMARK  14 active torsions:
REMARK  status: ('A' for Active; 'I' for Inactive)
REMARK    1  A    between atoms: N_3  and  C_14
REMARK    2  A    between atoms: N_4  and  C_19
REMARK    3  A    between atoms: N_5  and  C_27
REMARK    4  A    between atoms: N_6  and  C_28
REMARK    5  A    between atoms: N_6  and  C_29
REMARK    6  A    between atoms: N_6  and  C_30
REMARK    7  A    between atoms: C_7  and  C_11
REMARK    8  A    between atoms: C_8  and  C_14
REMARK    9  A    between atoms: C_10  and  C_15
REMARK   10  A    between atoms: C_11  and  C_16
REMARK   11  A    between atoms: C_11  and  C_17
REMARK   12  A    between atoms: C_12  and  C_18
REMARK   13  A    between atoms: C_15  and  C_20
REMARK   14  A    between atoms: C_27  and  C_28
REMARK                            x       y       z     vdW  Elec       q    Type
REMARK                         _______ _______ _______ _____ _____    ______ ____
ROOT
ATOM      7  C   UNL     1       9.806   6.197   7.299  0.00  0.00    +0.000 C 
ATOM      8  C   UNL     1       9.146   5.807   5.953  0.00  0.00    +0.032 C 
ATOM      9  C   UNL     1       8.944   7.231   8.039  0.00  0.00    +0.012 C 
ATOM     10  C   UNL     1       8.733   8.512   7.211  0.00  0.00    +0.023 C 
ATOM     12  C   UNL     1       8.337   8.200   5.782  0.00  0.00    -0.073 C 
ATOM     13  C   UNL     1       8.518   6.983   5.241  0.00  0.00    -0.022 C 
ATOM     18  C   UNL     1       7.688   9.309   5.002  0.00  0.00    +0.039 C 
ENDROOT
BRANCH   7  11
ATOM     11  C   UNL     1      10.033   4.975   8.195  0.00  0.00    -0.013 C 
ATOM     16  C   UNL     1       9.349   5.170   9.544  0.00  0.00    +0.007 C 
ATOM     17  C   UNL     1       9.525   3.710   7.509  0.00  0.00    +0.007 C 
ENDBRANCH   7  11
BRANCH   8  14
ATOM     14  C   UNL     1      10.153   5.125   5.019  0.00  0.00    +0.113 C 
BRANCH  14   3
ATOM      2  O   UNL     1      11.469   7.124   3.426  0.00  0.00    -0.253 OA
ATOM      3  N   UNL     1      11.467   5.650   5.220  0.00  0.00    -0.299 N 
ATOM      4  N   UNL     1      13.325   6.964   4.811  0.00  0.00    -0.297 N 
ATOM     26  C   UNL     1      12.039   6.628   4.397  0.00  0.00    +0.300 C 
ATOM     31  H   UNL     1      11.990   5.354   6.039  0.00  0.00    +0.150 HD
ATOM     32  H   UNL     1      13.728   6.437   5.580  0.00  0.00    +0.151 HD
BRANCH   4  19
ATOM     19  C   UNL     1      14.142   7.948   4.137  0.00  0.00    +0.074 C 
ATOM     21  C   UNL     1      13.685   9.371   4.479  0.00  0.00    +0.022 C 
ATOM     22  C   UNL     1      15.626   7.749   4.463  0.00  0.00    +0.022 C 
ATOM     23  C   UNL     1      14.031   9.768   5.913  0.00  0.00    +0.002 C 
ATOM     24  C   UNL     1      15.969   8.148   5.899  0.00  0.00    +0.002 C 
ATOM     25  C   UNL     1      15.515   9.571   6.210  0.00  0.00    +0.000 C 
ENDBRANCH   4  19
ENDBRANCH  14   3
ENDBRANCH   8  14
BRANCH  10  15
ATOM     15  C   UNL     1       9.976   9.409   7.253  0.00  0.00    +0.103 C 
BRANCH  15  20
ATOM      1  O   UNL     1       9.027  11.631   7.386  0.00  0.00    -0.276 OA
ATOM      5  N   UNL     1      10.281  10.813   9.163  0.00  0.00    -0.314 N 
ATOM     20  C   UNL     1       9.692  10.742   7.910  0.00  0.00    +0.214 C 
ATOM     33  H   UNL     1      10.815  10.023   9.513  0.00  0.00    +0.149 HD
BRANCH   5  27
ATOM     27  C   UNL     1      10.178  11.973  10.019  0.00  0.00    +0.119 C 
BRANCH  27  28
ATOM     28  C   UNL     1       9.196  11.733  11.157  0.00  0.00    +0.102 C 
BRANCH  28   6
ATOM      6  N   UNL     1       9.856  11.920  12.443  0.00  0.00    -0.307 NA
ATOM     29  C   UNL     1       8.989  12.656  13.365  0.00  0.00    +0.104 C 
ATOM     30  C   UNL     1      11.128  12.624  12.273  0.00  0.00    +0.104 C 
ENDBRANCH  28   6
ENDBRANCH  27  28
ENDBRANCH   5  27
ENDBRANCH  15  20
ENDBRANCH  10  15
TORSDOF 9
ENDMDL
MODEL 8
REMARK VINA RESULT:      -5.8     25.736     28.960
REMARK  Name = 38027418
REMARK  14 active torsions:
REMARK  status: ('A' for Active; 'I' for Inactive)
REMARK    1  A    between atoms: N_3  and  C_14
REMARK    2  A    between atoms: N_4  and  C_19
REMARK    3  A    between atoms: N_5  and  C_27
REMARK    4  A    between atoms: N_6  and  C_28
REMARK    5  A    between atoms: N_6  and  C_29
REMARK    6  A    between atoms: N_6  and  C_30
REMARK    7  A    between atoms: C_7  and  C_11
REMARK    8  A    between atoms: C_8  and  C_14
REMARK    9  A    between atoms: C_10  and  C_15
REMARK   10  A    between atoms: C_11  and  C_16
REMARK   11  A    between atoms: C_11  and  C_17
REMARK   12  A    between atoms: C_12  and  C_18
REMARK   13  A    between atoms: C_15  and  C_20
REMARK   14  A    between atoms: C_27  and  C_28
REMARK                            x       y       z     vdW  Elec       q    Type
REMARK                         _______ _______ _______ _____ _____    ______ ____
ROOT
ATOM      7  C   UNL     1       9.102   8.304   4.861  0.00  0.00    +0.000 C 
ATOM      8  C   UNL     1       8.715   8.977   6.201  0.00  0.00    +0.032 C 
ATOM      9  C   UNL     1       8.633   6.842   4.840  0.00  0.00    +0.012 C 
ATOM     10  C   UNL     1       9.240   6.019   5.992  0.00  0.00    +0.023 C 
ATOM     12  C   UNL     1       9.134   6.744   7.318  0.00  0.00    -0.073 C 
ATOM     13  C   UNL     1       8.887   8.064   7.392  0.00  0.00    -0.022 C 
ATOM     18  C   UNL     1       9.277   5.910   8.560  0.00  0.00    +0.039 C 
ENDROOT
BRANCH   7  11
ATOM     11  C   UNL     1       8.518   9.053   3.659  0.00  0.00    -0.013 C 
ATOM     16  C   UNL     1       8.693   8.233   2.384  0.00  0.00    +0.007 C 
ATOM     17  C   UNL     1       7.046   9.376   3.896  0.00  0.00    +0.007 C 
ENDBRANCH   7  11
BRANCH   8  14
ATOM     14  C   UNL     1       9.517  10.265   6.425  0.00  0.00    +0.113 C 
BRANCH  14   3
ATOM      2  O   UNL     1      11.947   9.714   7.859  0.00  0.00    -0.253 OA
ATOM      3  N   UNL     1      10.830  10.148   5.871  0.00  0.00    -0.299 N 
ATOM      4  N   UNL     1      13.117   9.813   5.857  0.00  0.00    -0.297 N 
ATOM     26  C   UNL     1      11.968   9.876   6.640  0.00  0.00    +0.300 C 
ATOM     31  H   UNL     1      10.939  10.196   4.863  0.00  0.00    +0.150 HD
ATOM     32  H   UNL     1      13.031  10.039   4.870  0.00  0.00    +0.151 HD
BRANCH   4  19
ATOM     19  C   UNL     1      14.431   9.546   6.399  0.00  0.00    +0.074 C 
ATOM     21  C   UNL     1      14.715   8.041   6.439  0.00  0.00    +0.022 C 
ATOM     22  C   UNL     1      15.513  10.294   5.613  0.00  0.00    +0.022 C 
ATOM     23  C   UNL     1      14.945   7.452   5.048  0.00  0.00    +0.002 C 
ATOM     24  C   UNL     1      15.742   9.702   4.223  0.00  0.00    +0.002 C 
ATOM     25  C   UNL     1      16.034   8.206   4.290  0.00  0.00    +0.000 C 
ENDBRANCH   4  19
ENDBRANCH  14   3
ENDBRANCH   8  14
BRANCH  10  15
ATOM     15  C   UNL     1      10.692   5.633   5.691  0.00  0.00    +0.103 C 
BRANCH  15  20
ATOM      1  O   UNL     1      10.308   4.262   3.735  0.00  0.00    -0.276 OA
ATOM      5  N   UNL     1      11.783   6.053   3.606  0.00  0.00    -0.314 N 
ATOM     20  C   UNL     1      10.882   5.217   4.249  0.00  0.00    +0.214 C 
ATOM     33  H   UNL     1      12.208   6.821   4.116  0.00  0.00    +0.149 HD
BRANCH   5  27
ATOM     27  C   UNL     1      12.158   5.891   2.219  0.00  0.00    +0.119 C 
BRANCH  27  28
ATOM     28  C   UNL     1      13.624   5.507   2.086  0.00  0.00    +0.102 C 
BRANCH  28   6
ATOM      6  N   UNL     1      13.777   4.424   1.123  0.00  0.00    -0.307 NA
ATOM     29  C   UNL     1      13.313   4.841  -0.201  0.00  0.00    +0.104 C 
ATOM     30  C   UNL     1      13.048   3.234   1.564  0.00  0.00    +0.104 C 
ENDBRANCH  28   6
ENDBRANCH  27  28
ENDBRANCH   5  27
ENDBRANCH  15  20
ENDBRANCH  10  15
TORSDOF 9
ENDMDL
MODEL 9
REMARK VINA RESULT:      -5.7     30.069     32.650
REMARK  Name = 38027418
REMARK  14 active torsions:
REMARK  status: ('A' for Active; 'I' for Inactive)
REMARK    1  A    between atoms: N_3  and  C_14
REMARK    2  A    between atoms: N_4  and  C_19
REMARK    3  A    between atoms: N_5  and  C_27
REMARK    4  A    between atoms: N_6  and  C_28
REMARK    5  A    between atoms: N_6  and  C_29
REMARK    6  A    between atoms: N_6  and  C_30
REMARK    7  A    between atoms: C_7  and  C_11
REMARK    8  A    between atoms: C_8  and  C_14
REMARK    9  A    between atoms: C_10  and  C_15
REMARK   10  A    between atoms: C_11  and  C_16
REMARK   11  A    between atoms: C_11  and  C_17
REMARK   12  A    between atoms: C_12  and  C_18
REMARK   13  A    between atoms: C_15  and  C_20
REMARK   14  A    between atoms: C_27  and  C_28
REMARK                            x       y       z     vdW  Elec       q    Type
REMARK                         _______ _______ _______ _____ _____    ______ ____
ROOT
ATOM      7  C   UNL     1      19.394   8.480  22.084  0.00  0.00    +0.000 C 
ATOM      8  C   UNL     1      18.547   7.837  20.958  0.00  0.00    +0.032 C 
ATOM      9  C   UNL     1      20.888   8.214  21.851  0.00  0.00    +0.012 C 
ATOM     10  C   UNL     1      21.210   6.709  21.798  0.00  0.00    +0.023 C 
ATOM     12  C   UNL     1      20.242   5.957  20.908  0.00  0.00    -0.073 C 
ATOM     13  C   UNL     1      19.063   6.482  20.533  0.00  0.00    -0.022 C 
ATOM     18  C   UNL     1      20.680   4.603  20.422  0.00  0.00    +0.039 C 
ENDROOT
BRANCH   7  11
ATOM     11  C   UNL     1      19.146   9.988  22.190  0.00  0.00    -0.013 C 
ATOM     16  C   UNL     1      19.897  10.568  23.384  0.00  0.00    +0.007 C 
ATOM     17  C   UNL     1      19.560  10.688  20.899  0.00  0.00    +0.007 C 
ENDBRANCH   7  11
BRANCH   8  14
ATOM     14  C   UNL     1      17.075   7.716  21.371  0.00  0.00    +0.113 C 
BRANCH  14   3
ATOM      2  O   UNL     1      15.700   6.168  19.377  0.00  0.00    -0.253 OA
ATOM      3  N   UNL     1      16.218   8.215  20.342  0.00  0.00    -0.299 N 
ATOM      4  N   UNL     1      14.804   8.128  18.515  0.00  0.00    -0.297 N 
ATOM     26  C   UNL     1      15.581   7.392  19.405  0.00  0.00    +0.300 C 
ATOM     31  H   UNL     1      16.001   9.207  20.327  0.00  0.00    +0.150 HD
ATOM     32  H   UNL     1      14.839   9.141  18.582  0.00  0.00    +0.151 HD
BRANCH   4  19
ATOM     19  C   UNL     1      14.039   7.526  17.446  0.00  0.00    +0.074 C 
ATOM     21  C   UNL     1      12.594   7.261  17.884  0.00  0.00    +0.022 C 
ATOM     22  C   UNL     1      14.085   8.389  16.181  0.00  0.00    +0.022 C 
ATOM     23  C   UNL     1      11.778   8.545  18.018  0.00  0.00    +0.002 C 
ATOM     24  C   UNL     1      13.267   9.674  16.319  0.00  0.00    +0.002 C 
ATOM     25  C   UNL     1      11.831   9.382  16.743  0.00  0.00    +0.000 C 
ENDBRANCH   4  19
ENDBRANCH  14   3
ENDBRANCH   8  14
BRANCH  10  15
ATOM     15  C   UNL     1      21.247   6.102  23.205  0.00  0.00    +0.103 C 
BRANCH  15  20
ATOM      1  O   UNL     1      22.881   5.011  24.618  0.00  0.00    -0.276 OA
ATOM      5  N   UNL     1      23.465   5.621  22.453  0.00  0.00    -0.314 N 
ATOM     20  C   UNL     1      22.601   5.512  23.533  0.00  0.00    +0.214 C 
ATOM     33  H   UNL     1      23.142   6.054  21.594  0.00  0.00    +0.149 HD
BRANCH   5  27
ATOM     27  C   UNL     1      24.829   5.143  22.482  0.00  0.00    +0.119 C 
BRANCH  27  28
ATOM     28  C   UNL     1      24.905   3.671  22.105  0.00  0.00    +0.102 C 
BRANCH  28   6
ATOM      6  N   UNL     1      24.157   3.424  20.879  0.00  0.00    -0.307 NA
ATOM     29  C   UNL     1      23.726   2.026  20.811  0.00  0.00    +0.104 C 
ATOM     30  C   UNL     1      24.962   3.764  19.705  0.00  0.00    +0.104 C 
ENDBRANCH  28   6
ENDBRANCH  27  28
ENDBRANCH   5  27
ENDBRANCH  15  20
ENDBRANCH  10  15
TORSDOF 9
ENDMDL
MODEL 10
REMARK VINA RESULT:      -5.7     19.734     22.526
REMARK  Name = 38027418
REMARK  14 active torsions:
REMARK  status: ('A' for Active; 'I' for Inactive)
REMARK    1  A    between atoms: N_3  and  C_14
REMARK    2  A    between atoms: N_4  and  C_19
REMARK    3  A    between atoms: N_5  and  C_27
REMARK    4  A    between atoms: N_6  and  C_28
REMARK    5  A    between atoms: N_6  and  C_29
REMARK    6  A    between atoms: N_6  and  C_30
REMARK    7  A    between atoms: C_7  and  C_11
REMARK    8  A    between atoms: C_8  and  C_14
REMARK    9  A    between atoms: C_10  and  C_15
REMARK   10  A    between atoms: C_11  and  C_16
REMARK   11  A    between atoms: C_11  and  C_17
REMARK   12  A    between atoms: C_12  and  C_18
REMARK   13  A    between atoms: C_15  and  C_20
REMARK   14  A    between atoms: C_27  and  C_28
REMARK                            x       y       z     vdW  Elec       q    Type
REMARK                         _______ _______ _______ _____ _____    ______ ____
ROOT
ATOM      7  C   UNL     1      -3.708 -11.906  13.654  0.00  0.00    +0.000 C 
ATOM      8  C   UNL     1      -2.450 -11.333  14.353  0.00  0.00    +0.032 C 
ATOM      9  C   UNL     1      -3.405 -12.221  12.181  0.00  0.00    +0.012 C 
ATOM     10  C   UNL     1      -2.939 -10.977  11.403  0.00  0.00    +0.023 C 
ATOM     12  C   UNL     1      -1.878 -10.204  12.160  0.00  0.00    -0.073 C 
ATOM     13  C   UNL     1      -1.666 -10.386  13.475  0.00  0.00    -0.022 C 
ATOM     18  C   UNL     1      -1.037  -9.248  11.362  0.00  0.00    +0.039 C 
ENDROOT
BRANCH   7  11
ATOM     11  C   UNL     1      -4.226 -13.163  14.358  0.00  0.00    -0.013 C 
ATOM     16  C   UNL     1      -5.749 -13.138  14.439  0.00  0.00    +0.007 C 
ATOM     17  C   UNL     1      -3.745 -14.417  13.633  0.00  0.00    +0.007 C 
ENDBRANCH   7  11
BRANCH   8  14
ATOM     14  C   UNL     1      -2.818 -10.627  15.664  0.00  0.00    +0.113 C 
BRANCH  14   3
ATOM      2  O   UNL     1      -4.728 -10.678  17.813  0.00  0.00    -0.253 OA
ATOM      3  N   UNL     1      -4.166 -10.152  15.622  0.00  0.00    -0.299 N 
ATOM      4  N   UNL     1      -6.288  -9.683  16.411  0.00  0.00    -0.297 N 
ATOM     26  C   UNL     1      -5.037 -10.212  16.717  0.00  0.00    +0.300 C 
ATOM     31  H   UNL     1      -4.493  -9.685  14.781  0.00  0.00    +0.150 HD
ATOM     32  H   UNL     1      -6.459  -9.396  15.452  0.00  0.00    +0.151 HD
BRANCH   4  19
ATOM     19  C   UNL     1      -7.375  -9.622  17.362  0.00  0.00    +0.074 C 
ATOM     21  C   UNL     1      -8.509  -8.728  16.846  0.00  0.00    +0.022 C 
ATOM     22  C   UNL     1      -7.888 -11.024  17.704  0.00  0.00    +0.022 C 
ATOM     23  C   UNL     1      -9.282  -9.369  15.694  0.00  0.00    +0.002 C 
ATOM     24  C   UNL     1      -8.662 -11.663  16.550  0.00  0.00    +0.002 C 
ATOM     25  C   UNL     1      -9.790 -10.759  16.063  0.00  0.00    +0.000 C 
ENDBRANCH   4  19
ENDBRANCH  14   3
ENDBRANCH   8  14
BRANCH  10  15
ATOM     15  C   UNL     1      -4.123 -10.074  11.041  0.00  0.00    +0.103 C 
BRANCH  15  20
ATOM      1  O   UNL     1      -3.921  -8.760   9.019  0.00  0.00    -0.276 OA
ATOM      5  N   UNL     1      -4.672 -10.956   8.888  0.00  0.00    -0.314 N 
ATOM     20  C   UNL     1      -4.215  -9.827   9.552  0.00  0.00    +0.214 C 
ATOM     33  H   UNL     1      -4.890 -11.794   9.417  0.00  0.00    +0.149 HD
BRANCH   5  27
ATOM     27  C   UNL     1      -4.859 -11.007   7.456  0.00  0.00    +0.119 C 
BRANCH  27  28
ATOM     28  C   UNL     1      -6.305 -10.720   7.078  0.00  0.00    +0.102 C 
BRANCH  28   6
ATOM      6  N   UNL     1      -6.478  -9.304   6.779  0.00  0.00    -0.307 NA
ATOM     29  C   UNL     1      -7.413  -8.687   7.721  0.00  0.00    +0.104 C 
ATOM     30  C   UNL     1      -6.948  -9.121   5.405  0.00  0.00    +0.104 C 
ENDBRANCH  28   6
ENDBRANCH  27  28
ENDBRANCH   5  27
ENDBRANCH  15  20
ENDBRANCH  10  15
TORSDOF 9
ENDMDL
