REMARK  Name = 26743177
REMARK  8 active torsions:
REMARK  status: ('A' for Active; 'I' for Inactive)
REMARK    1  A    between atoms: O_3  and  C_24
REMARK    2  A    between atoms: O_3  and  C_25
REMARK    3  A    between atoms: N_6  and  C_22
REMARK    4  A    between atoms: C_8  and  C_12
REMARK    5  A    between atoms: C_9  and  C_14
REMARK    6  A    between atoms: C_12  and  C_15
REMARK    7  A    between atoms: C_14  and  C_16
REMARK    8  A    between atoms: C_23  and  C_24
REMARK                            x       y       z     vdW  Elec       q    Type
REMARK                         _______ _______ _______ _____ _____    ______ ____
ROOT
ATOM      4  N   UNL     1       0.649   2.698   1.323  0.00  0.00    -0.316 NA
ATOM      8  C   UNL     1       2.162   1.247  -0.754  0.00  0.00    +0.004 C 
ATOM      9  C   UNL     1       0.688   0.922  -0.412  0.00  0.00    +0.012 C 
ATOM     10  C   UNL     1       2.460   2.703  -0.357  0.00  0.00    +0.019 C 
ATOM     11  C   UNL     1       0.346   1.294   1.040  0.00  0.00    +0.085 C 
ATOM     13  C   UNL     1       2.057   3.009   1.085  0.00  0.00    +0.081 C 
ATOM     31  H   UNL     1       0.418   2.904   2.295  0.00  0.00    +0.122 HD
ENDROOT
BRANCH   8  12
ATOM     12  C   UNL     1       3.175   0.290  -0.116  0.00  0.00    +0.100 C 
BRANCH  12  15
ATOM      1  O   UNL     1       4.574   1.072  -1.862  0.00  0.00    -0.276 OA
ATOM      5  N   UNL     1       5.513  -0.458  -0.389  0.00  0.00    -0.299 N 
ATOM      6  N   UNL     1       7.852  -1.426   0.953  0.00  0.00    -0.302 NA
ATOM     15  C   UNL     1       4.479   0.341  -0.873  0.00  0.00    +0.216 C 
ATOM     17  C   UNL     1       6.810  -0.460  -1.065  0.00  0.00    +0.123 C 
ATOM     18  C   UNL     1       5.393  -1.433   0.699  0.00  0.00    +0.123 C 
ATOM     19  C   UNL     1       7.958  -0.367  -0.061  0.00  0.00    +0.103 C 
ATOM     20  C   UNL     1       6.571  -1.327   1.668  0.00  0.00    +0.103 C 
ATOM     22  C   UNL     1       8.971  -1.353   1.891  0.00  0.00    +0.105 C 
ENDBRANCH  12  15
ENDBRANCH   8  12
BRANCH   9  14
ATOM     14  C   UNL     1       0.314  -0.533  -0.696  0.00  0.00    +0.064 C 
BRANCH  14  16
ATOM      2  O   UNL     1      -3.071  -0.774  -1.898  0.00  0.00    -0.356 OA
ATOM      7  N   UNL     1      -1.710  -0.571  -2.089  0.00  0.00    -0.083 NA
ATOM     16  C   UNL     1      -1.169  -0.692  -0.873  0.00  0.00    +0.084 A 
ATOM     21  C   UNL     1      -2.130  -0.970   0.114  0.00  0.00    +0.074 A 
ATOM     23  C   UNL     1      -3.309  -1.011  -0.582  0.00  0.00    +0.175 A 
BRANCH  23  24
ATOM     24  C   UNL     1      -4.706  -1.249  -0.201  0.00  0.00    +0.306 C 
BRANCH  24   3
ATOM      3  O   UNL     1      -5.437  -0.020  -0.201  0.00  0.00    -0.484 OA
BRANCH   3  25
ATOM     25  C   UNL     1      -6.742  -0.087   0.200  0.00  0.00    +0.121 A 
ATOM     26  C   UNL     1      -7.292  -1.310   0.582  0.00  0.00    +0.045 A 
ATOM     27  C   UNL     1      -7.523   1.068   0.228  0.00  0.00    +0.045 A 
ATOM     28  C   UNL     1      -8.624  -1.379   0.991  0.00  0.00    +0.004 A 
ATOM     29  C   UNL     1      -8.854   1.000   0.638  0.00  0.00    +0.004 A 
ATOM     30  C   UNL     1      -9.405  -0.224   1.019  0.00  0.00    +0.000 A 
ENDBRANCH   3  25
ENDBRANCH  24   3
ENDBRANCH  23  24
ENDBRANCH  14  16
ENDBRANCH   9  14
TORSDOF 7
