REMARK  Name = 7673828
REMARK  5 active torsions:
REMARK  status: ('A' for Active; 'I' for Inactive)
REMARK    1  A    between atoms: N_5  and  C_20
REMARK    2  A    between atoms: C_17  and  C_19
REMARK    3  A    between atoms: C_20  and  C_23
REMARK    4  A    between atoms: C_20  and  C_24
REMARK    5  A    between atoms: C_25  and  C_28
REMARK                            x       y       z     vdW  Elec       q    Type
REMARK                         _______ _______ _______ _____ _____    ______ ____
ROOT
ATOM      1  O   UNL     1       0.889   1.612   1.758  0.00  0.00    -0.267 OA
ATOM      2  O   UNL     1      -2.883  -1.911   1.802  0.00  0.00    -0.253 OA
ATOM      3  N   UNL     1      -3.462  -0.288   0.251  0.00  0.00    -0.285 N 
ATOM      4  N   UNL     1      -0.949   1.625   0.322  0.00  0.00    -0.311 N 
ATOM      5  N   UNL     1      -2.534  -2.358  -0.419  0.00  0.00    -0.297 N 
ATOM      7  C   UNL     1      -3.339   2.032   1.149  0.00  0.00    +0.027 C 
ATOM      8  C   UNL     1      -2.924   1.619  -1.242  0.00  0.00    +0.054 C 
ATOM      9  C   UNL     1      -3.579   2.583  -0.252  0.00  0.00    +0.018 C 
ATOM     10  C   UNL     1      -3.950   0.624   1.289  0.00  0.00    +0.114 C 
ATOM     11  C   UNL     1      -1.831   2.036   1.425  0.00  0.00    +0.130 C 
ATOM     12  C   UNL     1      -3.591   0.235  -1.120  0.00  0.00    +0.119 C 
ATOM     13  C   UNL     1      -1.435   1.497  -0.982  0.00  0.00    +0.027 A 
ATOM     14  C   UNL     1      -0.591   1.234  -1.992  0.00  0.00    +0.022 A 
ATOM     15  C   UNL     1       0.417   1.472   0.628  0.00  0.00    +0.259 A 
ATOM     16  C   UNL     1      -2.959  -1.545   0.624  0.00  0.00    +0.302 C 
ATOM     17  C   UNL     1       1.333   1.139  -0.520  0.00  0.00    +0.047 A 
ATOM     18  C   UNL     1       0.812   1.047  -1.753  0.00  0.00    +0.015 A 
ATOM     29  H   UNL     1      -2.489  -2.015  -1.368  0.00  0.00    +0.150 HD
ENDROOT
BRANCH  17  19
ATOM     19  C   UNL     1       2.772   0.905  -0.305  0.00  0.00    -0.011 A 
ATOM     21  C   UNL     1       3.237  -0.380  -0.025  0.00  0.00    +0.027 A 
ATOM     22  C   UNL     1       3.670   1.970  -0.383  0.00  0.00    +0.009 A 
ATOM     25  C   UNL     1       4.600  -0.599   0.178  0.00  0.00    +0.052 A 
ATOM     26  C   UNL     1       5.032   1.751  -0.180  0.00  0.00    +0.002 A 
ATOM     27  C   UNL     1       5.497   0.466   0.101  0.00  0.00    +0.019 A 
BRANCH  25  28
ATOM      6  N   UNL     1       5.465  -2.985   0.701  0.00  0.00    -0.191 NA
ATOM     28  C   UNL     1       5.077  -1.915   0.467  0.00  0.00    +0.099 C 
ENDBRANCH  25  28
ENDBRANCH  17  19
BRANCH   5  20
ATOM     20  C   UNL     1      -1.981  -3.675  -0.192  0.00  0.00    +0.068 C 
ATOM     23  C   UNL     1      -2.318  -4.604  -1.351  0.00  0.00    +0.027 C 
ATOM     24  C   UNL     1      -0.476  -3.587   0.025  0.00  0.00    +0.027 C 
ENDBRANCH   5  20
TORSDOF 3
