MODEL 1
REMARK VINA RESULT:      -6.7      0.000      0.000
REMARK  Name = 75536792
REMARK  6 active torsions:
REMARK  status: ('A' for Active; 'I' for Inactive)
REMARK    1  A    between atoms: O_4  and  C_11
REMARK    2  A    between atoms: N_6  and  C_9
REMARK    3  A    between atoms: N_6  and  C_10
REMARK    4  A    between atoms: N_7  and  C_19
REMARK    5  A    between atoms: C_14  and  C_19
REMARK    6  A    between atoms: C_20  and  C_21
REMARK                            x       y       z     vdW  Elec       q    Type
REMARK                         _______ _______ _______ _____ _____    ______ ____
ROOT
ATOM      3  O   UNL     1      -1.082 -11.413  15.156  0.00  0.00    -0.371 OA
ATOM     10  C   UNL     1      -3.219 -10.975  16.098  0.00  0.00    +0.111 C 
ATOM     11  C   UNL     1      -3.400 -11.702  14.778  0.00  0.00    +0.164 C 
ATOM     14  C   UNL     1      -2.030 -12.345  14.607  0.00  0.00    +0.165 C 
ATOM     15  C   UNL     1      -1.795 -10.461  15.965  0.00  0.00    +0.181 C 
ENDROOT
BRANCH  11   4
ATOM      4  O   UNL     1      -4.434 -12.668  14.823  0.00  0.00    -0.388 OA
ATOM     27  H   UNL     1      -5.253 -12.224  15.102  0.00  0.00    +0.210 HD
ENDBRANCH  11   4
BRANCH  10   6
ATOM      6  N   UNL     1      -4.188  -9.913  16.316  0.00  0.00    -0.306 NA
ATOM     26  H   UNL     1      -4.773  -9.795  15.490  0.00  0.00    +0.123 HD
BRANCH   6   9
ATOM      1  F   UNL     1      -6.652 -13.209  18.342  0.00  0.00    -0.206 F 
ATOM      2  F   UNL     1      -7.444 -12.293  20.148  0.00  0.00    -0.206 F 
ATOM      9  C   UNL     1      -5.020 -10.203  17.482  0.00  0.00    +0.054 C 
ATOM     12  C   UNL     1      -4.384 -11.329  18.308  0.00  0.00    +0.024 C 
ATOM     13  C   UNL     1      -6.436 -10.580  17.028  0.00  0.00    +0.024 C 
ATOM     16  C   UNL     1      -5.263 -11.709  19.498  0.00  0.00    +0.077 C 
ATOM     17  C   UNL     1      -7.316 -10.961  18.217  0.00  0.00    +0.077 C 
ATOM     18  C   UNL     1      -6.676 -12.054  19.056  0.00  0.00    +0.249 C 
ENDBRANCH   6   9
ENDBRANCH  10   6
BRANCH  14  19
ATOM     19  C   UNL     1      -1.681 -12.639  13.159  0.00  0.00    +0.138 C 
BRANCH  19   7
ATOM      5  O   UNL     1      -1.418 -10.100  11.846  0.00  0.00    -0.270 OA
ATOM      7  N   UNL     1      -2.625 -12.036  12.263  0.00  0.00    -0.309 N 
ATOM     20  C   UNL     1      -2.415 -10.796  11.669  0.00  0.00    +0.244 C 
ATOM     28  H   UNL     1      -3.502 -12.529  12.127  0.00  0.00    +0.149 HD
BRANCH  20  21
ATOM      8  N   UNL     1      -5.545  -9.358   9.128  0.00  0.00    -0.263 NA
ATOM     21  C   UNL     1      -3.501 -10.298  10.786  0.00  0.00    +0.040 A 
ATOM     22  C   UNL     1      -3.287  -9.189   9.975  0.00  0.00    +0.033 A 
ATOM     23  C   UNL     1      -4.735 -10.937  10.770  0.00  0.00    +0.033 A 
ATOM     24  C   UNL     1      -4.332  -8.763   9.171  0.00  0.00    +0.111 A 
ATOM     25  C   UNL     1      -5.716 -10.433   9.930  0.00  0.00    +0.111 A 
ENDBRANCH  20  21
ENDBRANCH  19   7
ENDBRANCH  14  19
TORSDOF 6
ENDMDL
MODEL 2
REMARK VINA RESULT:      -6.6     26.383     28.267
REMARK  Name = 75536792
REMARK  6 active torsions:
REMARK  status: ('A' for Active; 'I' for Inactive)
REMARK    1  A    between atoms: O_4  and  C_11
REMARK    2  A    between atoms: N_6  and  C_9
REMARK    3  A    between atoms: N_6  and  C_10
REMARK    4  A    between atoms: N_7  and  C_19
REMARK    5  A    between atoms: C_14  and  C_19
REMARK    6  A    between atoms: C_20  and  C_21
REMARK                            x       y       z     vdW  Elec       q    Type
REMARK                         _______ _______ _______ _____ _____    ______ ____
ROOT
ATOM      3  O   UNL     1      13.140   6.920  20.985  0.00  0.00    -0.371 OA
ATOM     10  C   UNL     1      11.068   8.080  21.056  0.00  0.00    +0.111 C 
ATOM     11  C   UNL     1      11.728   8.327  19.712  0.00  0.00    +0.164 C 
ATOM     14  C   UNL     1      12.693   7.152  19.638  0.00  0.00    +0.165 C 
ATOM     15  C   UNL     1      12.247   7.599  21.886  0.00  0.00    +0.181 C 
ENDROOT
BRANCH  11   4
ATOM      4  O   UNL     1      10.804   8.319  18.640  0.00  0.00    -0.388 OA
ATOM     27  H   UNL     1      10.014   8.815  18.915  0.00  0.00    +0.210 HD
ENDBRANCH  11   4
BRANCH  10   6
ATOM      6  N   UNL     1      10.424   9.258  21.616  0.00  0.00    -0.306 NA
ATOM     26  H   UNL     1       9.710   8.983  22.289  0.00  0.00    +0.123 HD
BRANCH   6   9
ATOM      1  F   UNL     1      11.024  13.450  23.380  0.00  0.00    -0.206 F 
ATOM      2  F   UNL     1      13.089  13.488  24.057  0.00  0.00    -0.206 F 
ATOM      9  C   UNL     1      11.408  10.128  22.258  0.00  0.00    +0.054 C 
ATOM     12  C   UNL     1      10.920  10.519  23.659  0.00  0.00    +0.024 C 
ATOM     13  C   UNL     1      11.649  11.369  21.389  0.00  0.00    +0.024 C 
ATOM     16  C   UNL     1      11.889  11.487  24.335  0.00  0.00    +0.077 C 
ATOM     17  C   UNL     1      12.618  12.338  22.063  0.00  0.00    +0.077 C 
ATOM     18  C   UNL     1      12.156  12.704  23.464  0.00  0.00    +0.249 C 
ENDBRANCH   6   9
ENDBRANCH  10   6
BRANCH  14  19
ATOM     19  C   UNL     1      13.888   7.412  18.738  0.00  0.00    +0.138 C 
BRANCH  19   7
ATOM      5  O   UNL     1      16.260   5.800  18.621  0.00  0.00    -0.270 OA
ATOM      7  N   UNL     1      15.087   7.595  19.504  0.00  0.00    -0.309 N 
ATOM     20  C   UNL     1      16.195   6.762  19.381  0.00  0.00    +0.244 C 
ATOM     28  H   UNL     1      15.074   8.332  20.201  0.00  0.00    +0.149 HD
BRANCH  20  21
ATOM      8  N   UNL     1      19.522   7.651  21.923  0.00  0.00    -0.263 NA
ATOM     21  C   UNL     1      17.349   7.069  20.265  0.00  0.00    +0.040 A 
ATOM     22  C   UNL     1      17.347   8.225  21.037  0.00  0.00    +0.033 A 
ATOM     23  C   UNL     1      18.436   6.205  20.319  0.00  0.00    +0.033 A 
ATOM     24  C   UNL     1      18.448   8.468  21.842  0.00  0.00    +0.111 A 
ATOM     25  C   UNL     1      19.489   6.537  21.157  0.00  0.00    +0.111 A 
ENDBRANCH  20  21
ENDBRANCH  19   7
ENDBRANCH  14  19
TORSDOF 6
ENDMDL
MODEL 3
REMARK VINA RESULT:      -6.6     26.854     28.984
REMARK  Name = 75536792
REMARK  6 active torsions:
REMARK  status: ('A' for Active; 'I' for Inactive)
REMARK    1  A    between atoms: O_4  and  C_11
REMARK    2  A    between atoms: N_6  and  C_9
REMARK    3  A    between atoms: N_6  and  C_10
REMARK    4  A    between atoms: N_7  and  C_19
REMARK    5  A    between atoms: C_14  and  C_19
REMARK    6  A    between atoms: C_20  and  C_21
REMARK                            x       y       z     vdW  Elec       q    Type
REMARK                         _______ _______ _______ _____ _____    ______ ____
ROOT
ATOM      3  O   UNL     1      13.416   8.320  18.764  0.00  0.00    -0.371 OA
ATOM     10  C   UNL     1      14.432   6.745  20.223  0.00  0.00    +0.111 C 
ATOM     11  C   UNL     1      13.059   7.104  20.762  0.00  0.00    +0.164 C 
ATOM     14  C   UNL     1      12.386   7.648  19.508  0.00  0.00    +0.165 C 
ATOM     15  C   UNL     1      14.695   7.901  19.273  0.00  0.00    +0.181 C 
ENDROOT
BRANCH  11   4
ATOM      4  O   UNL     1      12.369   5.987  21.289  0.00  0.00    -0.388 OA
ATOM     27  H   UNL     1      11.723   6.307  21.941  0.00  0.00    +0.210 HD
ENDBRANCH  11   4
BRANCH  10   6
ATOM      6  N   UNL     1      15.448   6.617  21.256  0.00  0.00    -0.306 NA
ATOM     26  H   UNL     1      15.633   5.634  21.449  0.00  0.00    +0.123 HD
BRANCH   6   9
ATOM      1  F   UNL     1      19.581   7.927  22.757  0.00  0.00    -0.206 F 
ATOM      2  F   UNL     1      20.521   8.894  21.052  0.00  0.00    -0.206 F 
ATOM      9  C   UNL     1      16.683   7.287  20.851  0.00  0.00    +0.054 C 
ATOM     12  C   UNL     1      17.866   6.319  20.980  0.00  0.00    +0.024 C 
ATOM     13  C   UNL     1      16.897   8.542  21.706  0.00  0.00    +0.024 C 
ATOM     16  C   UNL     1      19.186   7.007  20.633  0.00  0.00    +0.077 C 
ATOM     17  C   UNL     1      18.216   9.230  21.361  0.00  0.00    +0.077 C 
ATOM     18  C   UNL     1      19.388   8.268  21.457  0.00  0.00    +0.249 C 
ENDBRANCH   6   9
ENDBRANCH  10   6
BRANCH  14  19
ATOM     19  C   UNL     1      11.254   8.615  19.807  0.00  0.00    +0.138 C 
BRANCH  19   7
ATOM      5  O   UNL     1      12.418  11.166  20.421  0.00  0.00    -0.270 OA
ATOM      7  N   UNL     1      11.398   9.199  21.109  0.00  0.00    -0.309 N 
ATOM     20  C   UNL     1      11.977  10.448  21.315  0.00  0.00    +0.244 C 
ATOM     28  H   UNL     1      11.115   8.628  21.898  0.00  0.00    +0.149 HD
BRANCH  20  21
ATOM      8  N   UNL     1      12.260  11.757  25.380  0.00  0.00    -0.263 NA
ATOM     21  C   UNL     1      12.076  10.901  22.726  0.00  0.00    +0.040 A 
ATOM     22  C   UNL     1      10.961  10.848  23.555  0.00  0.00    +0.033 A 
ATOM     23  C   UNL     1      13.282  11.382  23.222  0.00  0.00    +0.033 A 
ATOM     24  C   UNL     1      11.104  11.285  24.863  0.00  0.00    +0.111 A 
ATOM     25  C   UNL     1      13.322  11.795  24.544  0.00  0.00    +0.111 A 
ENDBRANCH  20  21
ENDBRANCH  19   7
ENDBRANCH  14  19
TORSDOF 6
ENDMDL
MODEL 4
REMARK VINA RESULT:      -6.2     27.156     29.227
REMARK  Name = 75536792
REMARK  6 active torsions:
REMARK  status: ('A' for Active; 'I' for Inactive)
REMARK    1  A    between atoms: O_4  and  C_11
REMARK    2  A    between atoms: N_6  and  C_9
REMARK    3  A    between atoms: N_6  and  C_10
REMARK    4  A    between atoms: N_7  and  C_19
REMARK    5  A    between atoms: C_14  and  C_19
REMARK    6  A    between atoms: C_20  and  C_21
REMARK                            x       y       z     vdW  Elec       q    Type
REMARK                         _______ _______ _______ _____ _____    ______ ____
ROOT
ATOM      3  O   UNL     1      16.405   5.755  18.620  0.00  0.00    -0.371 OA
ATOM     10  C   UNL     1      17.978   6.234  20.335  0.00  0.00    +0.111 C 
ATOM     11  C   UNL     1      16.906   7.308  20.332  0.00  0.00    +0.164 C 
ATOM     14  C   UNL     1      15.776   6.593  19.604  0.00  0.00    +0.165 C 
ATOM     15  C   UNL     1      17.799   5.627  18.952  0.00  0.00    +0.181 C 
ENDROOT
BRANCH  11   4
ATOM      4  O   UNL     1      16.526   7.704  21.637  0.00  0.00    -0.388 OA
ATOM     27  H   UNL     1      15.624   7.381  21.803  0.00  0.00    +0.210 HD
ENDBRANCH  11   4
BRANCH  10   6
ATOM      6  N   UNL     1      19.320   6.748  20.558  0.00  0.00    -0.306 NA
ATOM     26  H   UNL     1      19.276   7.679  20.970  0.00  0.00    +0.123 HD
BRANCH   6   9
ATOM      1  F   UNL     1      23.571   5.410  21.647  0.00  0.00    -0.206 F 
ATOM      2  F   UNL     1      23.311   3.915  23.203  0.00  0.00    -0.206 F 
ATOM      9  C   UNL     1      20.078   5.852  21.430  0.00  0.00    +0.054 C 
ATOM     12  C   UNL     1      21.000   6.672  22.342  0.00  0.00    +0.024 C 
ATOM     13  C   UNL     1      20.880   4.858  20.580  0.00  0.00    +0.024 C 
ATOM     16  C   UNL     1      21.862   5.764  23.218  0.00  0.00    +0.077 C 
ATOM     17  C   UNL     1      21.742   3.950  21.455  0.00  0.00    +0.077 C 
ATOM     18  C   UNL     1      22.635   4.756  22.383  0.00  0.00    +0.249 C 
ENDBRANCH   6   9
ENDBRANCH  10   6
BRANCH  14  19
ATOM     19  C   UNL     1      14.805   7.543  18.925  0.00  0.00    +0.138 C 
BRANCH  19   7
ATOM      5  O   UNL     1      11.948   7.570  19.201  0.00  0.00    -0.270 OA
ATOM      7  N   UNL     1      14.045   8.287  19.887  0.00  0.00    -0.309 N 
ATOM     20  C   UNL     1      12.655   8.239  19.949  0.00  0.00    +0.244 C 
ATOM     28  H   UNL     1      14.565   8.913  20.492  0.00  0.00    +0.149 HD
BRANCH  20  21
ATOM      8  N   UNL     1      10.807  10.684  22.937  0.00  0.00    -0.263 NA
ATOM     21  C   UNL     1      12.015   9.088  20.987  0.00  0.00    +0.040 A 
ATOM     22  C   UNL     1      11.358   8.500  22.062  0.00  0.00    +0.033 A 
ATOM     23  C   UNL     1      12.068  10.473  20.886  0.00  0.00    +0.033 A 
ATOM     24  C   UNL     1      10.775   9.335  23.001  0.00  0.00    +0.111 A 
ATOM     25  C   UNL     1      11.454  11.221  21.878  0.00  0.00    +0.111 A 
ENDBRANCH  20  21
ENDBRANCH  19   7
ENDBRANCH  14  19
TORSDOF 6
ENDMDL
MODEL 5
REMARK VINA RESULT:      -6.2     21.055     23.125
REMARK  Name = 75536792
REMARK  6 active torsions:
REMARK  status: ('A' for Active; 'I' for Inactive)
REMARK    1  A    between atoms: O_4  and  C_11
REMARK    2  A    between atoms: N_6  and  C_9
REMARK    3  A    between atoms: N_6  and  C_10
REMARK    4  A    between atoms: N_7  and  C_19
REMARK    5  A    between atoms: C_14  and  C_19
REMARK    6  A    between atoms: C_20  and  C_21
REMARK                            x       y       z     vdW  Elec       q    Type
REMARK                         _______ _______ _______ _____ _____    ______ ____
ROOT
ATOM      3  O   UNL     1     -17.496   0.687  25.410  0.00  0.00    -0.371 OA
ATOM     10  C   UNL     1     -16.562   2.731  24.639  0.00  0.00    +0.111 C 
ATOM     11  C   UNL     1     -16.632   2.760  26.154  0.00  0.00    +0.164 C 
ATOM     14  C   UNL     1     -16.725   1.273  26.472  0.00  0.00    +0.165 C 
ATOM     15  C   UNL     1     -17.544   1.617  24.313  0.00  0.00    +0.181 C 
ENDROOT
BRANCH  11   4
ATOM      4  O   UNL     1     -15.491   3.355  26.743  0.00  0.00    -0.388 OA
ATOM     27  H   UNL     1     -15.675   3.500  27.686  0.00  0.00    +0.210 HD
ENDBRANCH  11   4
BRANCH  10   6
ATOM      6  N   UNL     1     -16.912   3.996  24.014  0.00  0.00    -0.306 NA
ATOM     26  H   UNL     1     -16.953   4.735  24.714  0.00  0.00    +0.123 HD
BRANCH   6   9
ATOM      1  F   UNL     1     -14.198   7.373  22.506  0.00  0.00    -0.206 F 
ATOM      2  F   UNL     1     -13.206   6.559  20.751  0.00  0.00    -0.206 F 
ATOM      9  C   UNL     1     -15.945   4.345  22.975  0.00  0.00    +0.054 C 
ATOM     12  C   UNL     1     -14.589   4.672  23.615  0.00  0.00    +0.024 C 
ATOM     13  C   UNL     1     -16.470   5.529  22.154  0.00  0.00    +0.024 C 
ATOM     16  C   UNL     1     -13.571   5.111  22.564  0.00  0.00    +0.077 C 
ATOM     17  C   UNL     1     -15.453   5.970  21.103  0.00  0.00    +0.077 C 
ATOM     18  C   UNL     1     -14.099   6.264  21.727  0.00  0.00    +0.249 C 
ENDBRANCH   6   9
ENDBRANCH  10   6
BRANCH  14  19
ATOM     19  C   UNL     1     -17.388   0.986  27.808  0.00  0.00    +0.138 C 
BRANCH  19   7
ATOM      5  O   UNL     1     -15.063  -0.128  29.071  0.00  0.00    -0.270 OA
ATOM      7  N   UNL     1     -16.644   1.559  28.892  0.00  0.00    -0.309 N 
ATOM     20  C   UNL     1     -15.524   0.947  29.445  0.00  0.00    +0.244 C 
ATOM     28  H   UNL     1     -17.012   2.416  29.294  0.00  0.00    +0.149 HD
BRANCH  20  21
ATOM      8  N   UNL     1     -13.667   2.991  32.716  0.00  0.00    -0.263 NA
ATOM     21  C   UNL     1     -14.881   1.657  30.581  0.00  0.00    +0.040 A 
ATOM     22  C   UNL     1     -14.180   2.837  30.359  0.00  0.00    +0.033 A 
ATOM     23  C   UNL     1     -14.975   1.143  31.869  0.00  0.00    +0.033 A 
ATOM     24  C   UNL     1     -13.596   3.460  31.450  0.00  0.00    +0.111 A 
ATOM     25  C   UNL     1     -14.356   1.842  32.894  0.00  0.00    +0.111 A 
ENDBRANCH  20  21
ENDBRANCH  19   7
ENDBRANCH  14  19
TORSDOF 6
ENDMDL
MODEL 6
REMARK VINA RESULT:      -6.2     26.793     28.278
REMARK  Name = 75536792
REMARK  6 active torsions:
REMARK  status: ('A' for Active; 'I' for Inactive)
REMARK    1  A    between atoms: O_4  and  C_11
REMARK    2  A    between atoms: N_6  and  C_9
REMARK    3  A    between atoms: N_6  and  C_10
REMARK    4  A    between atoms: N_7  and  C_19
REMARK    5  A    between atoms: C_14  and  C_19
REMARK    6  A    between atoms: C_20  and  C_21
REMARK                            x       y       z     vdW  Elec       q    Type
REMARK                         _______ _______ _______ _____ _____    ______ ____
ROOT
ATOM      3  O   UNL     1      14.140  10.371  21.985  0.00  0.00    -0.371 OA
ATOM     10  C   UNL     1      12.008  11.098  22.742  0.00  0.00    +0.111 C 
ATOM     11  C   UNL     1      11.908   9.651  22.294  0.00  0.00    +0.164 C 
ATOM     14  C   UNL     1      13.367   9.220  22.365  0.00  0.00    +0.165 C 
ATOM     15  C   UNL     1      13.296  11.534  22.063  0.00  0.00    +0.181 C 
ENDROOT
BRANCH  11   4
ATOM      4  O   UNL     1      11.086   8.872  23.142  0.00  0.00    -0.388 OA
ATOM     27  H   UNL     1      10.395   9.449  23.512  0.00  0.00    +0.210 HD
ENDBRANCH  11   4
BRANCH  10   6
ATOM      6  N   UNL     1      10.863  11.908  22.359  0.00  0.00    -0.306 NA
ATOM     26  H   UNL     1      10.085  11.310  22.082  0.00  0.00    +0.123 HD
BRANCH   6   9
ATOM      1  F   UNL     1      12.474  14.654  25.662  0.00  0.00    -0.206 F 
ATOM      2  F   UNL     1      10.708  15.401  26.687  0.00  0.00    -0.206 F 
ATOM      9  C   UNL     1      10.455  12.779  23.459  0.00  0.00    +0.054 C 
ATOM     12  C   UNL     1      10.931  14.213  23.191  0.00  0.00    +0.024 C 
ATOM     13  C   UNL     1      11.021  12.246  24.781  0.00  0.00    +0.024 C 
ATOM     16  C   UNL     1      10.585  15.140  24.355  0.00  0.00    +0.077 C 
ATOM     17  C   UNL     1      10.676  13.172  25.946  0.00  0.00    +0.077 C 
ATOM     18  C   UNL     1      11.117  14.600  25.672  0.00  0.00    +0.249 C 
ENDBRANCH   6   9
ENDBRANCH  10   6
BRANCH  14  19
ATOM     19  C   UNL     1      13.694   8.056  21.446  0.00  0.00    +0.138 C 
BRANCH  19   7
ATOM      5  O   UNL     1      12.029   6.788  19.481  0.00  0.00    -0.270 OA
ATOM      7  N   UNL     1      13.561   8.428  20.067  0.00  0.00    -0.309 N 
ATOM     20  C   UNL     1      12.726   7.754  19.181  0.00  0.00    +0.244 C 
ATOM     28  H   UNL     1      14.161   9.177  19.738  0.00  0.00    +0.149 HD
BRANCH  20  21
ATOM      8  N   UNL     1      12.712   9.177  15.145  0.00  0.00    -0.263 NA
ATOM     21  C   UNL     1      12.720   8.247  17.780  0.00  0.00    +0.040 A 
ATOM     22  C   UNL     1      13.906   8.302  17.056  0.00  0.00    +0.033 A 
ATOM     23  C   UNL     1      11.531   8.656  17.189  0.00  0.00    +0.033 A 
ATOM     24  C   UNL     1      13.848   8.772  15.753  0.00  0.00    +0.111 A 
ATOM     25  C   UNL     1      11.579   9.109  15.880  0.00  0.00    +0.111 A 
ENDBRANCH  20  21
ENDBRANCH  19   7
ENDBRANCH  14  19
TORSDOF 6
ENDMDL
MODEL 7
REMARK VINA RESULT:      -6.2      1.476      2.074
REMARK  Name = 75536792
REMARK  6 active torsions:
REMARK  status: ('A' for Active; 'I' for Inactive)
REMARK    1  A    between atoms: O_4  and  C_11
REMARK    2  A    between atoms: N_6  and  C_9
REMARK    3  A    between atoms: N_6  and  C_10
REMARK    4  A    between atoms: N_7  and  C_19
REMARK    5  A    between atoms: C_14  and  C_19
REMARK    6  A    between atoms: C_20  and  C_21
REMARK                            x       y       z     vdW  Elec       q    Type
REMARK                         _______ _______ _______ _____ _____    ______ ____
ROOT
ATOM      3  O   UNL     1      -1.475 -11.793  13.997  0.00  0.00    -0.371 OA
ATOM     10  C   UNL     1      -3.402 -11.228  15.267  0.00  0.00    +0.111 C 
ATOM     11  C   UNL     1      -3.621 -10.813  13.823  0.00  0.00    +0.164 C 
ATOM     14  C   UNL     1      -2.600 -11.688  13.108  0.00  0.00    +0.165 C 
ATOM     15  C   UNL     1      -1.890 -11.377  15.311  0.00  0.00    +0.181 C 
ENDROOT
BRANCH  11   4
ATOM      4  O   UNL     1      -4.939 -11.067  13.376  0.00  0.00    -0.388 OA
ATOM     27  H   UNL     1      -4.941 -11.045  12.404  0.00  0.00    +0.210 HD
ENDBRANCH  11   4
BRANCH  10   6
ATOM      6  N   UNL     1      -3.904 -10.265  16.233  0.00  0.00    -0.306 NA
ATOM     26  H   UNL     1      -4.183  -9.405  15.762  0.00  0.00    +0.123 HD
BRANCH   6   9
ATOM      1  F   UNL     1      -6.377  -9.780  20.067  0.00  0.00    -0.206 F 
ATOM      2  F   UNL     1      -7.882 -11.346  19.970  0.00  0.00    -0.206 F 
ATOM      9  C   UNL     1      -5.036 -10.818  16.975  0.00  0.00    +0.054 C 
ATOM     12  C   UNL     1      -6.127  -9.751  17.131  0.00  0.00    +0.024 C 
ATOM     13  C   UNL     1      -4.562 -11.331  18.340  0.00  0.00    +0.024 C 
ATOM     16  C   UNL     1      -7.297 -10.273  17.964  0.00  0.00    +0.077 C 
ATOM     17  C   UNL     1      -5.731 -11.853  19.173  0.00  0.00    +0.077 C 
ATOM     18  C   UNL     1      -6.829 -10.810  19.306  0.00  0.00    +0.249 C 
ENDBRANCH   6   9
ENDBRANCH  10   6
BRANCH  14  19
ATOM     19  C   UNL     1      -2.150 -11.118  11.775  0.00  0.00    +0.138 C 
BRANCH  19   7
ATOM      5  O   UNL     1      -2.396  -8.764  10.150  0.00  0.00    -0.270 OA
ATOM      7  N   UNL     1      -3.272 -10.753  10.959  0.00  0.00    -0.309 N 
ATOM     20  C   UNL     1      -3.305  -9.588  10.200  0.00  0.00    +0.244 C 
ATOM     28  H   UNL     1      -4.085 -11.358  11.008  0.00  0.00    +0.149 HD
BRANCH  20  21
ATOM      8  N   UNL     1      -6.897  -8.881   7.982  0.00  0.00    -0.263 NA
ATOM     21  C   UNL     1      -4.551  -9.342   9.429  0.00  0.00    +0.040 A 
ATOM     22  C   UNL     1      -5.509  -8.459   9.915  0.00  0.00    +0.033 A 
ATOM     23  C   UNL     1      -4.765  -9.994   8.221  0.00  0.00    +0.033 A 
ATOM     24  C   UNL     1      -6.655  -8.266   9.160  0.00  0.00    +0.111 A 
ATOM     25  C   UNL     1      -5.944  -9.732   7.541  0.00  0.00    +0.111 A 
ENDBRANCH  20  21
ENDBRANCH  19   7
ENDBRANCH  14  19
TORSDOF 6
ENDMDL
MODEL 8
REMARK VINA RESULT:      -6.1      4.430      7.750
REMARK  Name = 75536792
REMARK  6 active torsions:
REMARK  status: ('A' for Active; 'I' for Inactive)
REMARK    1  A    between atoms: O_4  and  C_11
REMARK    2  A    between atoms: N_6  and  C_9
REMARK    3  A    between atoms: N_6  and  C_10
REMARK    4  A    between atoms: N_7  and  C_19
REMARK    5  A    between atoms: C_14  and  C_19
REMARK    6  A    between atoms: C_20  and  C_21
REMARK                            x       y       z     vdW  Elec       q    Type
REMARK                         _______ _______ _______ _____ _____    ______ ____
ROOT
ATOM      3  O   UNL     1      -6.882 -13.072  18.359  0.00  0.00    -0.371 OA
ATOM     10  C   UNL     1      -5.341 -11.266  18.259  0.00  0.00    +0.111 C 
ATOM     11  C   UNL     1      -6.643 -10.773  18.864  0.00  0.00    +0.164 C 
ATOM     14  C   UNL     1      -7.265 -12.083  19.329  0.00  0.00    +0.165 C 
ATOM     15  C   UNL     1      -5.792 -12.549  17.579  0.00  0.00    +0.181 C 
ENDROOT
BRANCH  11   4
ATOM      4  O   UNL     1      -6.441  -9.874  19.937  0.00  0.00    -0.388 OA
ATOM     27  H   UNL     1      -6.235 -10.391  20.734  0.00  0.00    +0.210 HD
ENDBRANCH  11   4
BRANCH  10   6
ATOM      6  N   UNL     1      -4.730 -10.321  17.339  0.00  0.00    -0.306 NA
ATOM     26  H   UNL     1      -4.088  -9.707  17.839  0.00  0.00    +0.123 HD
BRANCH   6   9
ATOM      1  F   UNL     1      -1.928  -9.699  13.759  0.00  0.00    -0.206 F 
ATOM      2  F   UNL     1      -1.594 -11.690  12.951  0.00  0.00    -0.206 F 
ATOM      9  C   UNL     1      -4.019 -11.024  16.272  0.00  0.00    +0.054 C 
ATOM     12  C   UNL     1      -2.507 -10.811  16.426  0.00  0.00    +0.024 C 
ATOM     13  C   UNL     1      -4.512 -10.530  14.907  0.00  0.00    +0.024 C 
ATOM     16  C   UNL     1      -1.735 -11.473  15.286  0.00  0.00    +0.077 C 
ATOM     17  C   UNL     1      -3.741 -11.191  13.766  0.00  0.00    +0.077 C 
ATOM     18  C   UNL     1      -2.241 -11.010  13.930  0.00  0.00    +0.249 C 
ENDBRANCH   6   9
ENDBRANCH  10   6
BRANCH  14  19
ATOM     19  C   UNL     1      -8.779 -12.024  19.433  0.00  0.00    +0.138 C 
BRANCH  19   7
ATOM      5  O   UNL     1     -10.783 -10.086  20.118  0.00  0.00    -0.270 OA
ATOM      7  N   UNL     1      -9.321 -11.012  18.573  0.00  0.00    -0.309 N 
ATOM     20  C   UNL     1     -10.294 -10.110  18.991  0.00  0.00    +0.244 C 
ATOM     28  H   UNL     1      -9.009 -11.020  17.608  0.00  0.00    +0.149 HD
BRANCH  20  21
ATOM      8  N   UNL     1     -11.667  -7.311  16.058  0.00  0.00    -0.263 NA
ATOM     21  C   UNL     1     -10.771  -9.140  17.972  0.00  0.00    +0.040 A 
ATOM     22  C   UNL     1      -9.891  -8.210  17.429  0.00  0.00    +0.033 A 
ATOM     23  C   UNL     1     -12.098  -9.156  17.560  0.00  0.00    +0.033 A 
ATOM     24  C   UNL     1     -10.385  -7.325  16.484  0.00  0.00    +0.111 A 
ATOM     25  C   UNL     1     -12.494  -8.229  16.608  0.00  0.00    +0.111 A 
ENDBRANCH  20  21
ENDBRANCH  19   7
ENDBRANCH  14  19
TORSDOF 6
ENDMDL
MODEL 9
REMARK VINA RESULT:      -6.1      4.425      7.313
REMARK  Name = 75536792
REMARK  6 active torsions:
REMARK  status: ('A' for Active; 'I' for Inactive)
REMARK    1  A    between atoms: O_4  and  C_11
REMARK    2  A    between atoms: N_6  and  C_9
REMARK    3  A    between atoms: N_6  and  C_10
REMARK    4  A    between atoms: N_7  and  C_19
REMARK    5  A    between atoms: C_14  and  C_19
REMARK    6  A    between atoms: C_20  and  C_21
REMARK                            x       y       z     vdW  Elec       q    Type
REMARK                         _______ _______ _______ _____ _____    ______ ____
ROOT
ATOM      3  O   UNL     1      -6.512 -10.986  19.945  0.00  0.00    -0.371 OA
ATOM     10  C   UNL     1      -4.945 -10.836  18.167  0.00  0.00    +0.111 C 
ATOM     11  C   UNL     1      -6.346 -10.678  17.606  0.00  0.00    +0.164 C 
ATOM     14  C   UNL     1      -7.118 -10.271  18.854  0.00  0.00    +0.165 C 
ATOM     15  C   UNL     1      -5.231 -11.477  19.515  0.00  0.00    +0.181 C 
ENDROOT
BRANCH  11   4
ATOM      4  O   UNL     1      -6.422  -9.691  16.594  0.00  0.00    -0.388 OA
ATOM     27  H   UNL     1      -6.892 -10.071  15.832  0.00  0.00    +0.210 HD
ENDBRANCH  11   4
BRANCH  10   6
ATOM      6  N   UNL     1      -4.069 -11.641  17.330  0.00  0.00    -0.306 NA
ATOM     26  H   UNL     1      -4.575 -12.444  16.961  0.00  0.00    +0.123 HD
BRANCH   6   9
ATOM      1  F   UNL     1      -1.432 -11.861  13.582  0.00  0.00    -0.206 F 
ATOM      2  F   UNL     1      -1.420  -9.840  12.781  0.00  0.00    -0.206 F 
ATOM      9  C   UNL     1      -3.526 -10.843  16.232  0.00  0.00    +0.054 C 
ATOM     12  C   UNL     1      -4.031 -11.393  14.891  0.00  0.00    +0.024 C 
ATOM     13  C   UNL     1      -1.994 -10.850  16.293  0.00  0.00    +0.024 C 
ATOM     16  C   UNL     1      -3.427 -10.628  13.715  0.00  0.00    +0.077 C 
ATOM     17  C   UNL     1      -1.389 -10.085  15.117  0.00  0.00    +0.077 C 
ATOM     18  C   UNL     1      -1.909 -10.605  13.787  0.00  0.00    +0.249 C 
ENDBRANCH   6   9
ENDBRANCH  10   6
BRANCH  14  19
ATOM     19  C   UNL     1      -8.597 -10.605  18.780  0.00  0.00    +0.138 C 
BRANCH  19   7
ATOM      5  O   UNL     1      -9.467 -10.604  16.044  0.00  0.00    -0.270 OA
ATOM      7  N   UNL     1      -9.332  -9.568  18.115  0.00  0.00    -0.309 N 
ATOM     20  C   UNL     1      -9.714  -9.652  16.780  0.00  0.00    +0.244 C 
ATOM     28  H   UNL     1      -9.510  -8.723  18.648  0.00  0.00    +0.149 HD
BRANCH  20  21
ATOM      8  N   UNL     1     -11.825  -6.281  15.198  0.00  0.00    -0.263 NA
ATOM     21  C   UNL     1     -10.448  -8.483  16.231  0.00  0.00    +0.040 A 
ATOM     22  C   UNL     1     -11.051  -8.561  14.981  0.00  0.00    +0.033 A 
ATOM     23  C   UNL     1     -10.532  -7.305  16.965  0.00  0.00    +0.033 A 
ATOM     24  C   UNL     1     -11.722  -7.442  14.514  0.00  0.00    +0.111 A 
ATOM     25  C   UNL     1     -11.226  -6.242  16.409  0.00  0.00    +0.111 A 
ENDBRANCH  20  21
ENDBRANCH  19   7
ENDBRANCH  14  19
TORSDOF 6
ENDMDL
MODEL 10
REMARK VINA RESULT:      -5.9     20.968     22.955
REMARK  Name = 75536792
REMARK  6 active torsions:
REMARK  status: ('A' for Active; 'I' for Inactive)
REMARK    1  A    between atoms: O_4  and  C_11
REMARK    2  A    between atoms: N_6  and  C_9
REMARK    3  A    between atoms: N_6  and  C_10
REMARK    4  A    between atoms: N_7  and  C_19
REMARK    5  A    between atoms: C_14  and  C_19
REMARK    6  A    between atoms: C_20  and  C_21
REMARK                            x       y       z     vdW  Elec       q    Type
REMARK                         _______ _______ _______ _____ _____    ______ ____
ROOT
ATOM      3  O   UNL     1     -17.483   1.525  23.649  0.00  0.00    -0.371 OA
ATOM     10  C   UNL     1     -16.399   3.632  23.470  0.00  0.00    +0.111 C 
ATOM     11  C   UNL     1     -16.498   3.249  24.935  0.00  0.00    +0.164 C 
ATOM     14  C   UNL     1     -16.695   1.743  24.832  0.00  0.00    +0.165 C 
ATOM     15  C   UNL     1     -17.446   2.721  22.850  0.00  0.00    +0.181 C 
ENDROOT
BRANCH  11   4
ATOM      4  O   UNL     1     -15.332   3.580  25.666  0.00  0.00    -0.388 OA
ATOM     27  H   UNL     1     -14.641   3.842  25.034  0.00  0.00    +0.210 HD
ENDBRANCH  11   4
BRANCH  10   6
ATOM      6  N   UNL     1     -16.652   5.041  23.217  0.00  0.00    -0.306 NA
ATOM     26  H   UNL     1     -17.193   5.445  23.980  0.00  0.00    +0.123 HD
BRANCH   6   9
ATOM      1  F   UNL     1     -13.893   6.954  20.090  0.00  0.00    -0.206 F 
ATOM      2  F   UNL     1     -12.229   7.768  21.228  0.00  0.00    -0.206 F 
ATOM      9  C   UNL     1     -15.396   5.771  23.054  0.00  0.00    +0.054 C 
ATOM     12  C   UNL     1     -15.671   7.147  22.432  0.00  0.00    +0.024 C 
ATOM     13  C   UNL     1     -14.430   4.954  22.187  0.00  0.00    +0.024 C 
ATOM     16  C   UNL     1     -14.372   7.911  22.180  0.00  0.00    +0.077 C 
ATOM     17  C   UNL     1     -13.131   5.717  21.934  0.00  0.00    +0.077 C 
ATOM     18  C   UNL     1     -13.399   7.093  21.348  0.00  0.00    +0.249 C 
ENDBRANCH   6   9
ENDBRANCH  10   6
BRANCH  14  19
ATOM     19  C   UNL     1     -17.403   1.147  26.037  0.00  0.00    +0.138 C 
BRANCH  19   7
ATOM      5  O   UNL     1     -17.715   2.539  28.528  0.00  0.00    -0.270 OA
ATOM      7  N   UNL     1     -16.529   1.077  27.172  0.00  0.00    -0.309 N 
ATOM     20  C   UNL     1     -16.759   1.789  28.345  0.00  0.00    +0.244 C 
ATOM     28  H   UNL     1     -15.683   0.527  27.062  0.00  0.00    +0.149 HD
BRANCH  20  21
ATOM      8  N   UNL     1     -13.843   1.328  31.444  0.00  0.00    -0.263 NA
ATOM     21  C   UNL     1     -15.746   1.629  29.420  0.00  0.00    +0.040 A 
ATOM     22  C   UNL     1     -15.704   0.459  30.170  0.00  0.00    +0.033 A 
ATOM     23  C   UNL     1     -14.838   2.648  29.681  0.00  0.00    +0.033 A 
ATOM     24  C   UNL     1     -14.742   0.359  31.162  0.00  0.00    +0.111 A 
ATOM     25  C   UNL     1     -13.914   2.451  30.695  0.00  0.00    +0.111 A 
ENDBRANCH  20  21
ENDBRANCH  19   7
ENDBRANCH  14  19
TORSDOF 6
ENDMDL
