MODEL 1
REMARK VINA RESULT:      -8.0      0.000      0.000
REMARK  Name = 26743990
REMARK  7 active torsions:
REMARK  status: ('A' for Active; 'I' for Inactive)
REMARK    1  A    between atoms: O_1  and  C_11
REMARK    2  A    between atoms: N_4  and  C_13
REMARK    3  A    between atoms: N_7  and  C_21
REMARK    4  A    between atoms: C_9  and  C_14
REMARK    5  A    between atoms: C_13  and  C_15
REMARK    6  A    between atoms: C_18  and  C_22
REMARK    7  A    between atoms: C_25  and  C_28
REMARK                            x       y       z     vdW  Elec       q    Type
REMARK                         _______ _______ _______ _____ _____    ______ ____
ROOT
ATOM      4  N   UNL     1      13.161   7.998  20.557  0.00  0.00    -0.285 NA
ATOM      9  C   UNL     1      11.854   8.650  20.339  0.00  0.00    +0.149 C 
ATOM     10  C   UNL     1      10.820   7.653  20.894  0.00  0.00    +0.061 C 
ATOM     11  C   UNL     1      11.637   6.455  21.360  0.00  0.00    +0.130 C 
ATOM     12  C   UNL     1      12.913   6.558  20.546  0.00  0.00    +0.116 C 
ENDROOT
BRANCH   9  14
ATOM      2  O   UNL     1      12.218  11.065  20.266  0.00  0.00    -0.336 OA
ATOM      5  N   UNL     1      11.310  10.335  22.178  0.00  0.00    -0.190 NA
ATOM      6  N   UNL     1      12.037  12.199  21.069  0.00  0.00    -0.056 NA
ATOM     14  C   UNL     1      11.765  10.012  20.994  0.00  0.00    +0.245 A 
ATOM     18  C   UNL     1      11.497  11.686  22.179  0.00  0.00    +0.204 A 
BRANCH  18  22
ATOM      8  N   UNL     1      10.486  12.630  25.630  0.00  0.00    -0.263 NA
ATOM     22  C   UNL     1      11.134  12.497  23.305  0.00  0.00    +0.041 A 
ATOM     23  C   UNL     1      11.069  13.882  23.200  0.00  0.00    +0.014 A 
ATOM     24  C   UNL     1      10.836  11.925  24.531  0.00  0.00    +0.122 A 
ATOM     26  C   UNL     1      10.713  14.642  24.309  0.00  0.00    +0.020 A 
ATOM     27  C   UNL     1      10.434  13.974  25.491  0.00  0.00    +0.111 A 
ENDBRANCH  18  22
ENDBRANCH   9  14
BRANCH  11   1
ATOM      1  O   UNL     1      10.947   5.246  21.105  0.00  0.00    -0.390 OA
ATOM     29  H   UNL     1      11.515   4.517  21.404  0.00  0.00    +0.210 HD
ENDBRANCH  11   1
BRANCH   4  13
ATOM     13  C   UNL     1      14.168   8.389  19.579  0.00  0.00    +0.120 C 
BRANCH  13  15
ATOM     15  C   UNL     1      15.450   7.619  19.754  0.00  0.00    -0.033 A 
ATOM     16  C   UNL     1      16.235   7.824  20.890  0.00  0.00    +0.007 A 
ATOM     17  C   UNL     1      15.853   6.702  18.784  0.00  0.00    +0.007 A 
ATOM     19  C   UNL     1      17.423   7.111  21.053  0.00  0.00    +0.023 A 
ATOM     20  C   UNL     1      17.040   5.990  18.948  0.00  0.00    +0.023 A 
ATOM     21  C   UNL     1      17.825   6.194  20.082  0.00  0.00    +0.033 A 
BRANCH  21   7
ATOM      3  O   UNL     1      20.642   7.164  20.519  0.00  0.00    -0.276 OA
ATOM      7  N   UNL     1      19.014   5.481  20.246  0.00  0.00    -0.286 N 
ATOM     25  C   UNL     1      20.305   5.987  20.446  0.00  0.00    +0.214 C 
ATOM     28  C   UNL     1      21.324   4.882  20.577  0.00  0.00    +0.109 C 
ATOM     30  H   UNL     1      18.920   4.468  20.214  0.00  0.00    +0.155 HD
ENDBRANCH  21   7
ENDBRANCH  13  15
ENDBRANCH   4  13
TORSDOF 6
ENDMDL
MODEL 2
REMARK VINA RESULT:      -7.2     24.859     27.784
REMARK  Name = 26743990
REMARK  7 active torsions:
REMARK  status: ('A' for Active; 'I' for Inactive)
REMARK    1  A    between atoms: O_1  and  C_11
REMARK    2  A    between atoms: N_4  and  C_13
REMARK    3  A    between atoms: N_7  and  C_21
REMARK    4  A    between atoms: C_9  and  C_14
REMARK    5  A    between atoms: C_13  and  C_15
REMARK    6  A    between atoms: C_18  and  C_22
REMARK    7  A    between atoms: C_25  and  C_28
REMARK                            x       y       z     vdW  Elec       q    Type
REMARK                         _______ _______ _______ _____ _____    ______ ____
ROOT
ATOM      4  N   UNL     1     -11.747   9.757  20.403  0.00  0.00    -0.285 NA
ATOM      9  C   UNL     1     -12.312   8.631  19.632  0.00  0.00    +0.149 C 
ATOM     10  C   UNL     1     -11.217   8.267  18.610  0.00  0.00    +0.061 C 
ATOM     11  C   UNL     1     -10.099   9.271  18.855  0.00  0.00    +0.130 C 
ATOM     12  C   UNL     1     -10.809  10.439  19.515  0.00  0.00    +0.116 C 
ENDROOT
BRANCH   9  14
ATOM      2  O   UNL     1     -11.696   6.661  20.940  0.00  0.00    -0.336 OA
ATOM      5  N   UNL     1     -13.893   7.096  20.921  0.00  0.00    -0.190 NA
ATOM      6  N   UNL     1     -12.297   5.665  21.720  0.00  0.00    -0.056 NA
ATOM     14  C   UNL     1     -12.705   7.462  20.509  0.00  0.00    +0.245 A 
ATOM     18  C   UNL     1     -13.592   5.990  21.661  0.00  0.00    +0.204 A 
BRANCH  18  22
ATOM      8  N   UNL     1     -16.815   4.243  22.283  0.00  0.00    -0.263 NA
ATOM     22  C   UNL     1     -14.609   5.231  22.330  0.00  0.00    +0.041 A 
ATOM     23  C   UNL     1     -14.414   4.752  23.621  0.00  0.00    +0.014 A 
ATOM     24  C   UNL     1     -15.816   4.951  21.710  0.00  0.00    +0.122 A 
ATOM     26  C   UNL     1     -15.418   4.020  24.243  0.00  0.00    +0.020 A 
ATOM     27  C   UNL     1     -16.589   3.794  23.539  0.00  0.00    +0.111 A 
ENDBRANCH  18  22
ENDBRANCH   9  14
BRANCH  11   1
ATOM      1  O   UNL     1      -9.487   9.649  17.637  0.00  0.00    -0.390 OA
ATOM     29  H   UNL     1      -9.846   9.075  16.939  0.00  0.00    +0.210 HD
ENDBRANCH  11   1
BRANCH   4  13
ATOM     13  C   UNL     1     -12.764  10.661  20.925  0.00  0.00    +0.120 C 
BRANCH  13  15
ATOM     15  C   UNL     1     -12.771  10.689  22.430  0.00  0.00    -0.033 A 
ATOM     16  C   UNL     1     -11.797  11.413  23.118  0.00  0.00    +0.007 A 
ATOM     17  C   UNL     1     -13.750   9.991  23.137  0.00  0.00    +0.007 A 
ATOM     19  C   UNL     1     -11.803  11.439  24.513  0.00  0.00    +0.023 A 
ATOM     20  C   UNL     1     -13.756  10.017  24.531  0.00  0.00    +0.023 A 
ATOM     21  C   UNL     1     -12.783  10.741  25.219  0.00  0.00    +0.033 A 
BRANCH  21   7
ATOM      3  O   UNL     1     -10.981   9.375  27.208  0.00  0.00    -0.276 OA
ATOM      7  N   UNL     1     -12.789  10.767  26.615  0.00  0.00    -0.286 N 
ATOM     25  C   UNL     1     -11.922  10.107  27.495  0.00  0.00    +0.214 C 
ATOM     28  C   UNL     1     -12.265  10.394  28.936  0.00  0.00    +0.109 C 
ATOM     30  H   UNL     1     -13.518  11.340  27.035  0.00  0.00    +0.155 HD
ENDBRANCH  21   7
ENDBRANCH  13  15
ENDBRANCH   4  13
TORSDOF 6
ENDMDL
MODEL 3
REMARK VINA RESULT:      -7.1     25.791     28.781
REMARK  Name = 26743990
REMARK  7 active torsions:
REMARK  status: ('A' for Active; 'I' for Inactive)
REMARK    1  A    between atoms: O_1  and  C_11
REMARK    2  A    between atoms: N_4  and  C_13
REMARK    3  A    between atoms: N_7  and  C_21
REMARK    4  A    between atoms: C_9  and  C_14
REMARK    5  A    between atoms: C_13  and  C_15
REMARK    6  A    between atoms: C_18  and  C_22
REMARK    7  A    between atoms: C_25  and  C_28
REMARK                            x       y       z     vdW  Elec       q    Type
REMARK                         _______ _______ _______ _____ _____    ______ ____
ROOT
ATOM      4  N   UNL     1      -2.959 -10.521  13.792  0.00  0.00    -0.285 NA
ATOM      9  C   UNL     1      -3.358 -11.367  14.935  0.00  0.00    +0.149 C 
ATOM     10  C   UNL     1      -2.387 -10.980  16.067  0.00  0.00    +0.061 C 
ATOM     11  C   UNL     1      -1.455  -9.945  15.452  0.00  0.00    +0.130 C 
ATOM     12  C   UNL     1      -1.537 -10.234  13.964  0.00  0.00    +0.116 C 
ENDROOT
BRANCH   9  14
ATOM      2  O   UNL     1      -5.465 -12.285  15.764  0.00  0.00    -0.336 OA
ATOM      5  N   UNL     1      -5.545 -10.098  15.290  0.00  0.00    -0.190 NA
ATOM      6  N   UNL     1      -6.772 -11.872  16.053  0.00  0.00    -0.056 NA
ATOM     14  C   UNL     1      -4.810 -11.182  15.321  0.00  0.00    +0.245 A 
ATOM     18  C   UNL     1      -6.740 -10.572  15.748  0.00  0.00    +0.204 A 
BRANCH  18  22
ATOM      8  N   UNL     1      -9.823  -8.679  14.886  0.00  0.00    -0.263 NA
ATOM     22  C   UNL     1      -7.884  -9.718  15.890  0.00  0.00    +0.041 A 
ATOM     23  C   UNL     1      -8.179  -9.111  17.105  0.00  0.00    +0.014 A 
ATOM     24  C   UNL     1      -8.730  -9.473  14.820  0.00  0.00    +0.122 A 
ATOM     26  C   UNL     1      -9.295  -8.288  17.212  0.00  0.00    +0.020 A 
ATOM     27  C   UNL     1     -10.078  -8.106  16.084  0.00  0.00    +0.111 A 
ENDBRANCH  18  22
ENDBRANCH   9  14
BRANCH  11   1
ATOM      1  O   UNL     1      -0.138 -10.100  15.945  0.00  0.00    -0.390 OA
ATOM     29  H   UNL     1       0.444 -10.250  15.180  0.00  0.00    +0.210 HD
ENDBRANCH  11   1
BRANCH   4  13
ATOM     13  C   UNL     1      -3.244 -11.132  12.500  0.00  0.00    +0.120 C 
BRANCH  13  15
ATOM     15  C   UNL     1      -4.013 -10.204  11.598  0.00  0.00    -0.033 A 
ATOM     16  C   UNL     1      -3.455  -9.786  10.389  0.00  0.00    +0.007 A 
ATOM     17  C   UNL     1      -5.283  -9.763  11.968  0.00  0.00    +0.007 A 
ATOM     19  C   UNL     1      -4.167  -8.927   9.553  0.00  0.00    +0.023 A 
ATOM     20  C   UNL     1      -5.995  -8.904  11.133  0.00  0.00    +0.023 A 
ATOM     21  C   UNL     1      -5.437  -8.486   9.925  0.00  0.00    +0.033 A 
BRANCH  21   7
ATOM      3  O   UNL     1      -8.273  -8.639   8.921  0.00  0.00    -0.276 OA
ATOM      7  N   UNL     1      -6.150  -7.626   9.088  0.00  0.00    -0.286 N 
ATOM     25  C   UNL     1      -7.475  -7.747   8.649  0.00  0.00    +0.214 C 
ATOM     28  C   UNL     1      -7.873  -6.603   7.750  0.00  0.00    +0.109 C 
ATOM     30  H   UNL     1      -5.633  -6.812   8.760  0.00  0.00    +0.155 HD
ENDBRANCH  21   7
ENDBRANCH  13  15
ENDBRANCH   4  13
TORSDOF 6
ENDMDL
MODEL 4
REMARK VINA RESULT:      -7.1      3.368      4.759
REMARK  Name = 26743990
REMARK  7 active torsions:
REMARK  status: ('A' for Active; 'I' for Inactive)
REMARK    1  A    between atoms: O_1  and  C_11
REMARK    2  A    between atoms: N_4  and  C_13
REMARK    3  A    between atoms: N_7  and  C_21
REMARK    4  A    between atoms: C_9  and  C_14
REMARK    5  A    between atoms: C_13  and  C_15
REMARK    6  A    between atoms: C_18  and  C_22
REMARK    7  A    between atoms: C_25  and  C_28
REMARK                            x       y       z     vdW  Elec       q    Type
REMARK                         _______ _______ _______ _____ _____    ______ ____
ROOT
ATOM      4  N   UNL     1      13.043   7.451  20.497  0.00  0.00    -0.285 NA
ATOM      9  C   UNL     1      12.273   8.352  19.615  0.00  0.00    +0.149 C 
ATOM     10  C   UNL     1      10.939   8.577  20.351  0.00  0.00    +0.061 C 
ATOM     11  C   UNL     1      11.035   7.727  21.612  0.00  0.00    +0.130 C 
ATOM     12  C   UNL     1      12.063   6.671  21.249  0.00  0.00    +0.116 C 
ENDROOT
BRANCH   9  14
ATOM      2  O   UNL     1      12.514  10.766  19.911  0.00  0.00    -0.336 OA
ATOM      5  N   UNL     1      14.055   9.852  18.568  0.00  0.00    -0.190 NA
ATOM      6  N   UNL     1      13.340  11.817  19.495  0.00  0.00    -0.056 NA
ATOM     14  C   UNL     1      13.004   9.645  19.321  0.00  0.00    +0.245 A 
ATOM     18  C   UNL     1      14.224  11.199  18.706  0.00  0.00    +0.204 A 
BRANCH  18  22
ATOM      8  N   UNL     1      16.151  12.903  16.021  0.00  0.00    -0.263 NA
ATOM     22  C   UNL     1      15.287  11.897  18.043  0.00  0.00    +0.041 A 
ATOM     23  C   UNL     1      16.449  12.245  18.722  0.00  0.00    +0.014 A 
ATOM     24  C   UNL     1      15.188  12.246  16.706  0.00  0.00    +0.122 A 
ATOM     26  C   UNL     1      17.463  12.922  18.052  0.00  0.00    +0.020 A 
ATOM     27  C   UNL     1      17.267  13.225  16.715  0.00  0.00    +0.111 A 
ENDBRANCH  18  22
ENDBRANCH   9  14
BRANCH  11   1
ATOM      1  O   UNL     1       9.781   7.153  21.927  0.00  0.00    -0.390 OA
ATOM     29  H   UNL     1       9.592   7.359  22.859  0.00  0.00    +0.210 HD
ENDBRANCH  11   1
BRANCH   4  13
ATOM     13  C   UNL     1      13.980   6.603  19.772  0.00  0.00    +0.120 C 
BRANCH  13  15
ATOM     15  C   UNL     1      15.408   6.891  20.152  0.00  0.00    -0.033 A 
ATOM     16  C   UNL     1      16.448   6.204  19.525  0.00  0.00    +0.007 A 
ATOM     17  C   UNL     1      15.691   7.845  21.129  0.00  0.00    +0.007 A 
ATOM     19  C   UNL     1      17.771   6.471  19.877  0.00  0.00    +0.023 A 
ATOM     20  C   UNL     1      17.013   8.112  21.481  0.00  0.00    +0.023 A 
ATOM     21  C   UNL     1      18.054   7.426  20.855  0.00  0.00    +0.033 A 
BRANCH  21   7
ATOM      3  O   UNL     1      19.763   6.274  23.050  0.00  0.00    -0.276 OA
ATOM      7  N   UNL     1      19.378   7.693  21.207  0.00  0.00    -0.286 N 
ATOM     25  C   UNL     1      20.127   7.125  22.245  0.00  0.00    +0.214 C 
ATOM     28  C   UNL     1      21.527   7.685  22.295  0.00  0.00    +0.109 C 
ATOM     30  H   UNL     1      19.848   8.389  20.632  0.00  0.00    +0.155 HD
ENDBRANCH  21   7
ENDBRANCH  13  15
ENDBRANCH   4  13
TORSDOF 6
ENDMDL
MODEL 5
REMARK VINA RESULT:      -7.1     26.745     29.574
REMARK  Name = 26743990
REMARK  7 active torsions:
REMARK  status: ('A' for Active; 'I' for Inactive)
REMARK    1  A    between atoms: O_1  and  C_11
REMARK    2  A    between atoms: N_4  and  C_13
REMARK    3  A    between atoms: N_7  and  C_21
REMARK    4  A    between atoms: C_9  and  C_14
REMARK    5  A    between atoms: C_13  and  C_15
REMARK    6  A    between atoms: C_18  and  C_22
REMARK    7  A    between atoms: C_25  and  C_28
REMARK                            x       y       z     vdW  Elec       q    Type
REMARK                         _______ _______ _______ _____ _____    ______ ____
ROOT
ATOM      4  N   UNL     1     -13.658   6.930  33.578  0.00  0.00    -0.285 NA
ATOM      9  C   UNL     1     -13.595   8.404  33.505  0.00  0.00    +0.149 C 
ATOM     10  C   UNL     1     -12.891   8.832  34.807  0.00  0.00    +0.061 C 
ATOM     11  C   UNL     1     -12.640   7.535  35.564  0.00  0.00    +0.130 C 
ATOM     12  C   UNL     1     -13.680   6.586  34.997  0.00  0.00    +0.116 C 
ENDROOT
BRANCH   9  14
ATOM      2  O   UNL     1     -11.559   8.600  32.168  0.00  0.00    -0.336 OA
ATOM      5  N   UNL     1     -13.351   9.581  31.252  0.00  0.00    -0.190 NA
ATOM      6  N   UNL     1     -11.123   9.152  30.957  0.00  0.00    -0.056 NA
ATOM     14  C   UNL     1     -12.880   8.897  32.265  0.00  0.00    +0.245 A 
ATOM     18  C   UNL     1     -12.236   9.713  30.476  0.00  0.00    +0.204 A 
BRANCH  18  22
ATOM      8  N   UNL     1     -13.408  11.950  27.746  0.00  0.00    -0.263 NA
ATOM     22  C   UNL     1     -12.269  10.412  29.223  0.00  0.00    +0.041 A 
ATOM     23  C   UNL     1     -11.250  10.257  28.290  0.00  0.00    +0.014 A 
ATOM     24  C   UNL     1     -13.316  11.263  28.907  0.00  0.00    +0.122 A 
ATOM     26  C   UNL     1     -11.310  10.948  27.084  0.00  0.00    +0.020 A 
ATOM     27  C   UNL     1     -12.399  11.774  26.862  0.00  0.00    +0.111 A 
ENDBRANCH  18  22
ENDBRANCH   9  14
BRANCH  11   1
ATOM      1  O   UNL     1     -12.807   7.726  36.956  0.00  0.00    -0.390 OA
ATOM     29  H   UNL     1     -13.081   6.874  37.337  0.00  0.00    +0.210 HD
ENDBRANCH  11   1
BRANCH   4  13
ATOM     13  C   UNL     1     -14.796   6.369  32.860  0.00  0.00    +0.120 C 
BRANCH  13  15
ATOM     15  C   UNL     1     -14.431   5.102  32.134  0.00  0.00    -0.033 A 
ATOM     16  C   UNL     1     -13.289   4.391  32.504  0.00  0.00    +0.007 A 
ATOM     17  C   UNL     1     -15.235   4.638  31.093  0.00  0.00    +0.007 A 
ATOM     19  C   UNL     1     -12.951   3.217  31.831  0.00  0.00    +0.023 A 
ATOM     20  C   UNL     1     -14.897   3.464  30.421  0.00  0.00    +0.023 A 
ATOM     21  C   UNL     1     -13.755   2.753  30.790  0.00  0.00    +0.033 A 
BRANCH  21   7
ATOM      3  O   UNL     1     -14.710  -0.075  31.193  0.00  0.00    -0.276 OA
ATOM      7  N   UNL     1     -13.417   1.578  30.117  0.00  0.00    -0.286 N 
ATOM     25  C   UNL     1     -13.893   0.281  30.349  0.00  0.00    +0.214 C 
ATOM     28  C   UNL     1     -13.277  -0.718  29.402  0.00  0.00    +0.109 C 
ATOM     30  H   UNL     1     -12.738   1.687  29.367  0.00  0.00    +0.155 HD
ENDBRANCH  21   7
ENDBRANCH  13  15
ENDBRANCH   4  13
TORSDOF 6
ENDMDL
MODEL 6
REMARK VINA RESULT:      -6.9     26.219     29.045
REMARK  Name = 26743990
REMARK  7 active torsions:
REMARK  status: ('A' for Active; 'I' for Inactive)
REMARK    1  A    between atoms: O_1  and  C_11
REMARK    2  A    between atoms: N_4  and  C_13
REMARK    3  A    between atoms: N_7  and  C_21
REMARK    4  A    between atoms: C_9  and  C_14
REMARK    5  A    between atoms: C_13  and  C_15
REMARK    6  A    between atoms: C_18  and  C_22
REMARK    7  A    between atoms: C_25  and  C_28
REMARK                            x       y       z     vdW  Elec       q    Type
REMARK                         _______ _______ _______ _____ _____    ______ ____
ROOT
ATOM      4  N   UNL     1      -3.702 -10.745  14.371  0.00  0.00    -0.285 NA
ATOM      9  C   UNL     1      -4.005 -11.296  15.708  0.00  0.00    +0.149 C 
ATOM     10  C   UNL     1      -2.767 -10.961  16.560  0.00  0.00    +0.061 C 
ATOM     11  C   UNL     1      -1.806 -10.265  15.606  0.00  0.00    +0.130 C 
ATOM     12  C   UNL     1      -2.247 -10.756  14.239  0.00  0.00    +0.116 C 
ENDROOT
BRANCH   9  14
ATOM      2  O   UNL     1      -5.644  -9.492  15.886  0.00  0.00    -0.336 OA
ATOM      5  N   UNL     1      -6.115 -11.283  17.146  0.00  0.00    -0.190 NA
ATOM      6  N   UNL     1      -6.840  -9.196  16.552  0.00  0.00    -0.056 NA
ATOM     14  C   UNL     1      -5.286 -10.738  16.292  0.00  0.00    +0.245 A 
ATOM     18  C   UNL     1      -7.052 -10.299  17.274  0.00  0.00    +0.204 A 
BRANCH  18  22
ATOM      8  N   UNL     1      -9.170 -11.450  20.106  0.00  0.00    -0.263 NA
ATOM     22  C   UNL     1      -8.191 -10.452  18.134  0.00  0.00    +0.041 A 
ATOM     23  C   UNL     1      -9.384  -9.790  17.867  0.00  0.00    +0.014 A 
ATOM     24  C   UNL     1      -8.136 -11.263  19.256  0.00  0.00    +0.122 A 
ATOM     26  C   UNL     1     -10.471  -9.957  18.719  0.00  0.00    +0.020 A 
ATOM     27  C   UNL     1     -10.315 -10.790  19.814  0.00  0.00    +0.111 A 
ENDBRANCH  18  22
ENDBRANCH   9  14
BRANCH  11   1
ATOM      1  O   UNL     1      -0.468 -10.627  15.887  0.00  0.00    -0.390 OA
ATOM     29  H   UNL     1      -0.046  -9.869  16.326  0.00  0.00    +0.210 HD
ENDBRANCH  11   1
BRANCH   4  13
ATOM     13  C   UNL     1      -4.356 -11.471  13.290  0.00  0.00    +0.120 C 
BRANCH  13  15
ATOM     15  C   UNL     1      -4.885 -10.543  12.230  0.00  0.00    -0.033 A 
ATOM     16  C   UNL     1      -5.886  -9.624  12.544  0.00  0.00    +0.007 A 
ATOM     17  C   UNL     1      -4.373 -10.600  10.933  0.00  0.00    +0.007 A 
ATOM     19  C   UNL     1      -6.376  -8.763  11.562  0.00  0.00    +0.023 A 
ATOM     20  C   UNL     1      -4.863  -9.739   9.952  0.00  0.00    +0.023 A 
ATOM     21  C   UNL     1      -5.864  -8.821  10.266  0.00  0.00    +0.033 A 
BRANCH  21   7
ATOM      3  O   UNL     1      -8.607  -8.610   9.042  0.00  0.00    -0.276 OA
ATOM      7  N   UNL     1      -6.354  -7.959   9.283  0.00  0.00    -0.286 N 
ATOM     25  C   UNL     1      -7.647  -7.906   8.747  0.00  0.00    +0.214 C 
ATOM     28  C   UNL     1      -7.774  -6.828   7.699  0.00  0.00    +0.109 C 
ATOM     30  H   UNL     1      -5.680  -7.290   8.916  0.00  0.00    +0.155 HD
ENDBRANCH  21   7
ENDBRANCH  13  15
ENDBRANCH   4  13
TORSDOF 6
ENDMDL
MODEL 7
REMARK VINA RESULT:      -6.9      2.217      8.553
REMARK  Name = 26743990
REMARK  7 active torsions:
REMARK  status: ('A' for Active; 'I' for Inactive)
REMARK    1  A    between atoms: O_1  and  C_11
REMARK    2  A    between atoms: N_4  and  C_13
REMARK    3  A    between atoms: N_7  and  C_21
REMARK    4  A    between atoms: C_9  and  C_14
REMARK    5  A    between atoms: C_13  and  C_15
REMARK    6  A    between atoms: C_18  and  C_22
REMARK    7  A    between atoms: C_25  and  C_28
REMARK                            x       y       z     vdW  Elec       q    Type
REMARK                         _______ _______ _______ _____ _____    ______ ____
ROOT
ATOM      4  N   UNL     1      14.520   8.793  19.553  0.00  0.00    -0.285 NA
ATOM      9  C   UNL     1      14.751   8.293  20.923  0.00  0.00    +0.149 C 
ATOM     10  C   UNL     1      13.940   6.985  21.005  0.00  0.00    +0.061 C 
ATOM     11  C   UNL     1      13.255   6.860  19.651  0.00  0.00    +0.130 C 
ATOM     12  C   UNL     1      13.213   8.289  19.141  0.00  0.00    +0.116 C 
ENDROOT
BRANCH   9  14
ATOM      2  O   UNL     1      16.903   9.182  21.664  0.00  0.00    -0.336 OA
ATOM      5  N   UNL     1      16.945   7.005  21.143  0.00  0.00    -0.190 NA
ATOM      6  N   UNL     1      18.219   8.756  21.879  0.00  0.00    -0.056 NA
ATOM     14  C   UNL     1      16.219   8.091  21.232  0.00  0.00    +0.245 A 
ATOM     18  C   UNL     1      18.164   7.462  21.550  0.00  0.00    +0.204 A 
BRANCH  18  22
ATOM      8  N   UNL     1      21.142   5.701  22.912  0.00  0.00    -0.263 NA
ATOM     22  C   UNL     1      19.308   6.599  21.618  0.00  0.00    +0.041 A 
ATOM     23  C   UNL     1      19.702   5.843  20.520  0.00  0.00    +0.014 A 
ATOM     24  C   UNL     1      20.055   6.493  22.781  0.00  0.00    +0.122 A 
ATOM     26  C   UNL     1      20.816   5.016  20.616  0.00  0.00    +0.020 A 
ATOM     27  C   UNL     1      21.495   4.980  21.822  0.00  0.00    +0.111 A 
ENDBRANCH  18  22
ENDBRANCH   9  14
BRANCH  11   1
ATOM      1  O   UNL     1      11.957   6.314  19.793  0.00  0.00    -0.390 OA
ATOM     29  H   UNL     1      12.057   5.357  19.930  0.00  0.00    +0.210 HD
ENDBRANCH  11   1
BRANCH   4  13
ATOM     13  C   UNL     1      14.606  10.244  19.451  0.00  0.00    +0.120 C 
BRANCH  13  15
ATOM     15  C   UNL     1      13.817  10.930  20.534  0.00  0.00    -0.033 A 
ATOM     16  C   UNL     1      14.481  11.623  21.547  0.00  0.00    +0.007 A 
ATOM     17  C   UNL     1      12.423  10.875  20.525  0.00  0.00    +0.007 A 
ATOM     19  C   UNL     1      13.751  12.259  22.551  0.00  0.00    +0.023 A 
ATOM     20  C   UNL     1      11.694  11.511  21.528  0.00  0.00    +0.023 A 
ATOM     21  C   UNL     1      12.357  12.203  22.541  0.00  0.00    +0.033 A 
BRANCH  21   7
ATOM      3  O   UNL     1      11.843  11.394  25.396  0.00  0.00    -0.276 OA
ATOM      7  N   UNL     1      11.626  12.839  23.546  0.00  0.00    -0.286 N 
ATOM     25  C   UNL     1      11.417  12.414  24.864  0.00  0.00    +0.214 C 
ATOM     28  C   UNL     1      10.565  13.389  25.638  0.00  0.00    +0.109 C 
ATOM     30  H   UNL     1      11.194  13.721  23.277  0.00  0.00    +0.155 HD
ENDBRANCH  21   7
ENDBRANCH  13  15
ENDBRANCH   4  13
TORSDOF 6
ENDMDL
MODEL 8
REMARK VINA RESULT:      -6.9     30.081     31.689
REMARK  Name = 26743990
REMARK  7 active torsions:
REMARK  status: ('A' for Active; 'I' for Inactive)
REMARK    1  A    between atoms: O_1  and  C_11
REMARK    2  A    between atoms: N_4  and  C_13
REMARK    3  A    between atoms: N_7  and  C_21
REMARK    4  A    between atoms: C_9  and  C_14
REMARK    5  A    between atoms: C_13  and  C_15
REMARK    6  A    between atoms: C_18  and  C_22
REMARK    7  A    between atoms: C_25  and  C_28
REMARK                            x       y       z     vdW  Elec       q    Type
REMARK                         _______ _______ _______ _____ _____    ______ ____
ROOT
ATOM      4  N   UNL     1     -14.676   6.173  33.434  0.00  0.00    -0.285 NA
ATOM      9  C   UNL     1     -15.986   6.785  33.134  0.00  0.00    +0.149 C 
ATOM     10  C   UNL     1     -15.729   8.303  33.176  0.00  0.00    +0.061 C 
ATOM     11  C   UNL     1     -14.260   8.445  33.550  0.00  0.00    +0.130 C 
ATOM     12  C   UNL     1     -13.945   7.137  34.253  0.00  0.00    +0.116 C 
ENDROOT
BRANCH   9  14
ATOM      2  O   UNL     1     -17.869   6.597  31.587  0.00  0.00    -0.336 OA
ATOM      5  N   UNL     1     -15.967   5.690  30.828  0.00  0.00    -0.190 NA
ATOM      6  N   UNL     1     -18.163   6.081  30.319  0.00  0.00    -0.056 NA
ATOM     14  C   UNL     1     -16.557   6.324  31.810  0.00  0.00    +0.245 A 
ATOM     18  C   UNL     1     -16.992   5.563  29.936  0.00  0.00    +0.204 A 
BRANCH  18  22
ATOM      8  N   UNL     1     -17.197   4.902  26.283  0.00  0.00    -0.263 NA
ATOM     22  C   UNL     1     -16.813   4.913  28.670  0.00  0.00    +0.041 A 
ATOM     23  C   UNL     1     -16.116   3.714  28.571  0.00  0.00    +0.014 A 
ATOM     24  C   UNL     1     -17.329   5.462  27.506  0.00  0.00    +0.122 A 
ATOM     26  C   UNL     1     -15.960   3.108  27.329  0.00  0.00    +0.020 A 
ATOM     27  C   UNL     1     -16.513   3.736  26.226  0.00  0.00    +0.111 A 
ENDBRANCH  18  22
ENDBRANCH   9  14
BRANCH  11   1
ATOM      1  O   UNL     1     -14.063   9.558  34.401  0.00  0.00    -0.390 OA
ATOM     29  H   UNL     1     -14.922   9.775  34.801  0.00  0.00    +0.210 HD
ENDBRANCH  11   1
BRANCH   4  13
ATOM     13  C   UNL     1     -14.786   4.873  34.083  0.00  0.00    +0.120 C 
BRANCH  13  15
ATOM     15  C   UNL     1     -14.391   3.750  33.161  0.00  0.00    -0.033 A 
ATOM     16  C   UNL     1     -14.953   2.484  33.325  0.00  0.00    +0.007 A 
ATOM     17  C   UNL     1     -13.465   3.975  32.143  0.00  0.00    +0.007 A 
ATOM     19  C   UNL     1     -14.588   1.443  32.471  0.00  0.00    +0.023 A 
ATOM     20  C   UNL     1     -13.100   2.935  31.290  0.00  0.00    +0.023 A 
ATOM     21  C   UNL     1     -13.661   1.669  31.453  0.00  0.00    +0.033 A 
BRANCH  21   7
ATOM      3  O   UNL     1     -15.303   0.085  29.488  0.00  0.00    -0.276 OA
ATOM      7  N   UNL     1     -13.296   0.628  30.599  0.00  0.00    -0.286 N 
ATOM     25  C   UNL     1     -14.106  -0.079  29.701  0.00  0.00    +0.214 C 
ATOM     28  C   UNL     1     -13.327  -1.136  28.957  0.00  0.00    +0.109 C 
ATOM     30  H   UNL     1     -12.316   0.354  30.641  0.00  0.00    +0.155 HD
ENDBRANCH  21   7
ENDBRANCH  13  15
ENDBRANCH   4  13
TORSDOF 6
ENDMDL
MODEL 9
REMARK VINA RESULT:      -6.9     14.987     17.121
REMARK  Name = 26743990
REMARK  7 active torsions:
REMARK  status: ('A' for Active; 'I' for Inactive)
REMARK    1  A    between atoms: O_1  and  C_11
REMARK    2  A    between atoms: N_4  and  C_13
REMARK    3  A    between atoms: N_7  and  C_21
REMARK    4  A    between atoms: C_9  and  C_14
REMARK    5  A    between atoms: C_13  and  C_15
REMARK    6  A    between atoms: C_18  and  C_22
REMARK    7  A    between atoms: C_25  and  C_28
REMARK                            x       y       z     vdW  Elec       q    Type
REMARK                         _______ _______ _______ _____ _____    ______ ____
ROOT
ATOM      4  N   UNL     1      10.344   5.659   6.157  0.00  0.00    -0.285 NA
ATOM      9  C   UNL     1      10.114   6.816   7.046  0.00  0.00    +0.149 C 
ATOM     10  C   UNL     1       9.959   6.206   8.452  0.00  0.00    +0.061 C 
ATOM     11  C   UNL     1      10.072   4.701   8.245  0.00  0.00    +0.130 C 
ATOM     12  C   UNL     1       9.689   4.515   6.788  0.00  0.00    +0.116 C 
ENDROOT
BRANCH   9  14
ATOM      2  O   UNL     1      10.888   9.125   7.247  0.00  0.00    -0.336 OA
ATOM      5  N   UNL     1      12.491   7.670   6.674  0.00  0.00    -0.190 NA
ATOM      6  N   UNL     1      12.064   9.874   7.114  0.00  0.00    -0.056 NA
ATOM     14  C   UNL     1      11.227   7.839   6.971  0.00  0.00    +0.245 A 
ATOM     18  C   UNL     1      12.963   8.946   6.775  0.00  0.00    +0.204 A 
BRANCH  18  22
ATOM      8  N   UNL     1      16.558   8.503   5.931  0.00  0.00    -0.263 NA
ATOM     22  C   UNL     1      14.342   9.261   6.531  0.00  0.00    +0.041 A 
ATOM     23  C   UNL     1      14.810  10.565   6.643  0.00  0.00    +0.014 A 
ATOM     24  C   UNL     1      15.248   8.275   6.174  0.00  0.00    +0.122 A 
ATOM     26  C   UNL     1      16.152  10.840   6.401  0.00  0.00    +0.020 A 
ATOM     27  C   UNL     1      16.977   9.784   6.051  0.00  0.00    +0.111 A 
ENDBRANCH  18  22
ENDBRANCH   9  14
BRANCH  11   1
ATOM      1  O   UNL     1       9.194   4.008   9.111  0.00  0.00    -0.390 OA
ATOM     29  H   UNL     1       8.798   3.279   8.603  0.00  0.00    +0.210 HD
ENDBRANCH  11   1
BRANCH   4  13
ATOM     13  C   UNL     1       9.871   5.879   4.796  0.00  0.00    +0.120 C 
BRANCH  13  15
ATOM     15  C   UNL     1      10.947   5.609   3.778  0.00  0.00    -0.033 A 
ATOM     16  C   UNL     1      10.996   4.376   3.127  0.00  0.00    +0.007 A 
ATOM     17  C   UNL     1      11.894   6.591   3.485  0.00  0.00    +0.007 A 
ATOM     19  C   UNL     1      11.993   4.126   2.184  0.00  0.00    +0.023 A 
ATOM     20  C   UNL     1      12.889   6.340   2.543  0.00  0.00    +0.023 A 
ATOM     21  C   UNL     1      12.939   5.108   1.891  0.00  0.00    +0.033 A 
BRANCH  21   7
ATOM      3  O   UNL     1      15.217   3.139   1.930  0.00  0.00    -0.276 OA
ATOM      7  N   UNL     1      13.937   4.858   0.948  0.00  0.00    -0.286 N 
ATOM     25  C   UNL     1      14.979   3.925   1.018  0.00  0.00    +0.214 C 
ATOM     28  C   UNL     1      15.850   3.966  -0.213  0.00  0.00    +0.109 C 
ATOM     30  H   UNL     1      13.893   5.430   0.107  0.00  0.00    +0.155 HD
ENDBRANCH  21   7
ENDBRANCH  13  15
ENDBRANCH   4  13
TORSDOF 6
ENDMDL
MODEL 10
REMARK VINA RESULT:      -6.8      4.602      8.710
REMARK  Name = 26743990
REMARK  7 active torsions:
REMARK  status: ('A' for Active; 'I' for Inactive)
REMARK    1  A    between atoms: O_1  and  C_11
REMARK    2  A    between atoms: N_4  and  C_13
REMARK    3  A    between atoms: N_7  and  C_21
REMARK    4  A    between atoms: C_9  and  C_14
REMARK    5  A    between atoms: C_13  and  C_15
REMARK    6  A    between atoms: C_18  and  C_22
REMARK    7  A    between atoms: C_25  and  C_28
REMARK                            x       y       z     vdW  Elec       q    Type
REMARK                         _______ _______ _______ _____ _____    ______ ____
ROOT
ATOM      4  N   UNL     1      13.972   9.391  18.324  0.00  0.00    -0.285 NA
ATOM      9  C   UNL     1      14.115   8.700  19.622  0.00  0.00    +0.149 C 
ATOM     10  C   UNL     1      12.775   7.970  19.829  0.00  0.00    +0.061 C 
ATOM     11  C   UNL     1      11.929   8.347  18.620  0.00  0.00    +0.130 C 
ATOM     12  C   UNL     1      12.545   9.652  18.149  0.00  0.00    +0.116 C 
ENDROOT
BRANCH   9  14
ATOM      2  O   UNL     1      15.266   6.706  18.805  0.00  0.00    -0.336 OA
ATOM      5  N   UNL     1      16.381   7.816  20.398  0.00  0.00    -0.190 NA
ATOM      6  N   UNL     1      16.453   5.993  19.017  0.00  0.00    -0.056 NA
ATOM     14  C   UNL     1      15.303   7.763  19.657  0.00  0.00    +0.245 A 
ATOM     18  C   UNL     1      17.056   6.710  19.970  0.00  0.00    +0.204 A 
BRANCH  18  22
ATOM      8  N   UNL     1      20.018   6.672  22.218  0.00  0.00    -0.263 NA
ATOM     22  C   UNL     1      18.333   6.349  20.514  0.00  0.00    +0.041 A 
ATOM     23  C   UNL     1      19.117   5.369  19.915  0.00  0.00    +0.014 A 
ATOM     24  C   UNL     1      18.824   6.965  21.654  0.00  0.00    +0.122 A 
ATOM     26  C   UNL     1      20.351   5.041  20.466  0.00  0.00    +0.020 A 
ATOM     27  C   UNL     1      20.752   5.715  21.607  0.00  0.00    +0.111 A 
ENDBRANCH  18  22
ENDBRANCH   9  14
BRANCH  11   1
ATOM      1  O   UNL     1      10.572   8.509  18.986  0.00  0.00    -0.390 OA
ATOM     29  H   UNL     1      10.511   9.311  19.533  0.00  0.00    +0.210 HD
ENDBRANCH  11   1
BRANCH   4  13
ATOM     13  C   UNL     1      14.768  10.608  18.231  0.00  0.00    +0.120 C 
BRANCH  13  15
ATOM     15  C   UNL     1      14.732  11.197  16.847  0.00  0.00    -0.033 A 
ATOM     16  C   UNL     1      15.078  10.413  15.746  0.00  0.00    +0.007 A 
ATOM     17  C   UNL     1      14.351  12.527  16.663  0.00  0.00    +0.007 A 
ATOM     19  C   UNL     1      15.044  10.959  14.463  0.00  0.00    +0.023 A 
ATOM     20  C   UNL     1      14.318  13.072  15.381  0.00  0.00    +0.023 A 
ATOM     21  C   UNL     1      14.664  12.289  14.281  0.00  0.00    +0.033 A 
BRANCH  21   7
ATOM      3  O   UNL     1      12.634  11.981  12.078  0.00  0.00    -0.276 OA
ATOM      7  N   UNL     1      14.630  12.835  12.996  0.00  0.00    -0.286 N 
ATOM     25  C   UNL     1      13.656  12.656  12.006  0.00  0.00    +0.214 C 
ATOM     28  C   UNL     1      13.990  13.421  10.749  0.00  0.00    +0.109 C 
ATOM     30  H   UNL     1      15.417  13.436  12.760  0.00  0.00    +0.155 HD
ENDBRANCH  21   7
ENDBRANCH  13  15
ENDBRANCH   4  13
TORSDOF 6
ENDMDL
