MODEL 1
REMARK VINA RESULT:      -7.0      0.000      0.000
REMARK  Name = 11883280
REMARK  5 active torsions:
REMARK  status: ('A' for Active; 'I' for Inactive)
REMARK    1  A    between atoms: O_3  and  C_12
REMARK    2  A    between atoms: O_3  and  C_16
REMARK    3  A    between atoms: N_6  and  C_11
REMARK    4  A    between atoms: N_7  and  C_18
REMARK    5  A    between atoms: C_16  and  C_17
REMARK                            x       y       z     vdW  Elec       q    Type
REMARK                         _______ _______ _______ _____ _____    ______ ____
ROOT
ATOM      4  O   UNL     1      17.780   9.233  21.067  0.00  0.00    -0.252 OA
ATOM      6  N   UNL     1      18.371   7.168  21.923  0.00  0.00    -0.292 N 
ATOM      7  N   UNL     1      16.144   7.644  21.620  0.00  0.00    -0.269 N 
ATOM     15  C   UNL     1      17.448   8.129  21.492  0.00  0.00    +0.304 C 
ATOM     28  H   UNL     1      18.022   6.253  22.192  0.00  0.00    +0.151 HD
ATOM     29  H   UNL     1      16.065   6.792  22.166  0.00  0.00    +0.156 HD
ENDROOT
BRANCH   7  18
ATOM     18  C   UNL     1      14.936   8.303  21.295  0.00  0.00    +0.042 A 
ATOM     19  C   UNL     1      14.390   8.227  20.013  0.00  0.00    +0.003 A 
ATOM     20  C   UNL     1      14.321   9.028  22.308  0.00  0.00    +0.024 A 
ATOM     21  C   UNL     1      13.177   8.908  19.746  0.00  0.00    -0.016 A 
ATOM     22  C   UNL     1      15.006   7.495  18.984  0.00  0.00    +0.010 A 
ATOM     23  C   UNL     1      13.130   9.698  22.046  0.00  0.00    +0.002 A 
ATOM     24  C   UNL     1      12.561   9.639  20.775  0.00  0.00    +0.008 A 
ATOM     25  C   UNL     1      12.619   8.838  18.460  0.00  0.00    +0.008 A 
ATOM     26  C   UNL     1      14.436   7.437  17.712  0.00  0.00    +0.001 A 
ATOM     27  C   UNL     1      13.245   8.107  17.450  0.00  0.00    +0.001 A 
ENDBRANCH   7  18
BRANCH   6  11
ATOM      1  O   UNL     1      20.829   5.328  22.516  0.00  0.00    -0.369 OA
ATOM      2  O   UNL     1      21.711   7.390  20.425  0.00  0.00    -0.369 OA
ATOM      9  C   UNL     1      20.431   6.774  20.679  0.00  0.00    +0.172 C 
ATOM     10  C   UNL     1      20.707   5.340  21.084  0.00  0.00    +0.180 C 
ATOM     11  C   UNL     1      19.798   7.382  21.910  0.00  0.00    +0.131 C 
ATOM     12  C   UNL     1      22.027   5.059  20.406  0.00  0.00    +0.176 C 
ATOM     13  C   UNL     1      20.481   6.621  23.033  0.00  0.00    +0.185 C 
ATOM     14  C   UNL     1      22.735   6.390  20.521  0.00  0.00    +0.194 C 
BRANCH  12   3
ATOM      3  O   UNL     1      22.758   4.016  21.011  0.00  0.00    -0.362 OA
BRANCH   3  16
ATOM     16  C   UNL     1      24.157   4.130  20.760  0.00  0.00    +0.255 C 
BRANCH  16  17
ATOM      5  O   UNL     1      24.994   1.863  20.733  0.00  0.00    -0.274 OA
ATOM      8  N   UNL     1      24.691   2.959  18.733  0.00  0.00    -0.327 N 
ATOM     17  C   UNL     1      24.658   2.863  20.108  0.00  0.00    +0.236 C 
ATOM     30  H   UNL     1      24.406   3.799  18.241  0.00  0.00    +0.145 HD
ATOM     31  H   UNL     1      25.007   2.181  18.164  0.00  0.00    +0.145 HD
ENDBRANCH  16  17
ENDBRANCH   3  16
ENDBRANCH  12   3
ENDBRANCH   6  11
TORSDOF 5
ENDMDL
MODEL 2
REMARK VINA RESULT:      -6.9     17.318     20.119
REMARK  Name = 11883280
REMARK  5 active torsions:
REMARK  status: ('A' for Active; 'I' for Inactive)
REMARK    1  A    between atoms: O_3  and  C_12
REMARK    2  A    between atoms: O_3  and  C_16
REMARK    3  A    between atoms: N_6  and  C_11
REMARK    4  A    between atoms: N_7  and  C_18
REMARK    5  A    between atoms: C_16  and  C_17
REMARK                            x       y       z     vdW  Elec       q    Type
REMARK                         _______ _______ _______ _____ _____    ______ ____
ROOT
ATOM      4  O   UNL     1      12.391   6.660   4.070  0.00  0.00    -0.252 OA
ATOM      6  N   UNL     1      11.765   4.800   2.849  0.00  0.00    -0.292 N 
ATOM      7  N   UNL     1      10.341   5.590   4.468  0.00  0.00    -0.269 N 
ATOM     15  C   UNL     1      11.570   5.778   3.832  0.00  0.00    +0.304 C 
ATOM     28  H   UNL     1      11.009   4.149   2.662  0.00  0.00    +0.151 HD
ATOM     29  H   UNL     1       9.895   4.701   4.267  0.00  0.00    +0.156 HD
ENDROOT
BRANCH   7  18
ATOM     18  C   UNL     1       9.776   6.361   5.511  0.00  0.00    +0.042 A 
ATOM     19  C   UNL     1       9.628   5.841   6.799  0.00  0.00    +0.003 A 
ATOM     20  C   UNL     1       9.376   7.653   5.195  0.00  0.00    +0.024 A 
ATOM     21  C   UNL     1       9.056   6.659   7.803  0.00  0.00    -0.016 A 
ATOM     22  C   UNL     1      10.031   4.536   7.125  0.00  0.00    +0.010 A 
ATOM     23  C   UNL     1       8.814   8.457   6.182  0.00  0.00    +0.002 A 
ATOM     24  C   UNL     1       8.654   7.966   7.477  0.00  0.00    +0.008 A 
ATOM     25  C   UNL     1       8.902   6.148   9.101  0.00  0.00    +0.008 A 
ATOM     26  C   UNL     1       9.870   4.044   8.421  0.00  0.00    +0.001 A 
ATOM     27  C   UNL     1       9.307   4.849   9.408  0.00  0.00    +0.001 A 
ENDBRANCH   7  18
BRANCH   6  11
ATOM      1  O   UNL     1      12.506   3.186   0.274  0.00  0.00    -0.369 OA
ATOM      2  O   UNL     1      14.037   5.841   0.165  0.00  0.00    -0.369 OA
ATOM      9  C   UNL     1      12.755   5.500   0.732  0.00  0.00    +0.172 C 
ATOM     10  C   UNL     1      12.118   4.487  -0.198  0.00  0.00    +0.180 C 
ATOM     11  C   UNL     1      12.946   4.735   2.022  0.00  0.00    +0.131 C 
ATOM     12  C   UNL     1      12.759   4.816  -1.525  0.00  0.00    +0.176 C 
ATOM     13  C   UNL     1      13.196   3.322   1.526  0.00  0.00    +0.185 C 
ATOM     14  C   UNL     1      14.162   5.203  -1.115  0.00  0.00    +0.194 C 
BRANCH  12   3
ATOM      3  O   UNL     1      12.751   3.740  -2.436  0.00  0.00    -0.362 OA
BRANCH   3  16
ATOM     16  C   UNL     1      11.460   3.532  -3.005  0.00  0.00    +0.255 C 
BRANCH  16  17
ATOM      5  O   UNL     1       9.845   1.738  -2.898  0.00  0.00    -0.274 OA
ATOM      8  N   UNL     1      11.974   1.365  -2.109  0.00  0.00    -0.327 N 
ATOM     17  C   UNL     1      10.984   2.136  -2.678  0.00  0.00    +0.236 C 
ATOM     30  H   UNL     1      12.909   1.720  -1.939  0.00  0.00    +0.145 HD
ATOM     31  H   UNL     1      11.795   0.404  -1.838  0.00  0.00    +0.145 HD
ENDBRANCH  16  17
ENDBRANCH   3  16
ENDBRANCH  12   3
ENDBRANCH   6  11
TORSDOF 5
ENDMDL
MODEL 3
REMARK VINA RESULT:      -6.9      2.956      9.566
REMARK  Name = 11883280
REMARK  5 active torsions:
REMARK  status: ('A' for Active; 'I' for Inactive)
REMARK    1  A    between atoms: O_3  and  C_12
REMARK    2  A    between atoms: O_3  and  C_16
REMARK    3  A    between atoms: N_6  and  C_11
REMARK    4  A    between atoms: N_7  and  C_18
REMARK    5  A    between atoms: C_16  and  C_17
REMARK                            x       y       z     vdW  Elec       q    Type
REMARK                         _______ _______ _______ _____ _____    ______ ____
ROOT
ATOM      4  O   UNL     1      19.058   6.498  22.258  0.00  0.00    -0.252 OA
ATOM      6  N   UNL     1      17.788   6.587  20.330  0.00  0.00    -0.292 N 
ATOM      7  N   UNL     1      19.924   5.751  20.209  0.00  0.00    -0.269 N 
ATOM     15  C   UNL     1      18.951   6.293  21.053  0.00  0.00    +0.304 C 
ATOM     28  H   UNL     1      17.750   6.321  19.350  0.00  0.00    +0.151 HD
ATOM     29  H   UNL     1      19.718   5.838  19.220  0.00  0.00    +0.156 HD
ENDROOT
BRANCH   7  18
ATOM     18  C   UNL     1      21.229   5.324  20.551  0.00  0.00    +0.042 A 
ATOM     19  C   UNL     1      22.309   6.208  20.531  0.00  0.00    +0.003 A 
ATOM     20  C   UNL     1      21.384   3.990  20.904  0.00  0.00    +0.024 A 
ATOM     21  C   UNL     1      23.593   5.725  20.882  0.00  0.00    -0.016 A 
ATOM     22  C   UNL     1      22.159   7.559  20.175  0.00  0.00    +0.010 A 
ATOM     23  C   UNL     1      22.645   3.515  21.249  0.00  0.00    +0.002 A 
ATOM     24  C   UNL     1      23.743   4.374  21.239  0.00  0.00    +0.008 A 
ATOM     25  C   UNL     1      24.687   6.605  20.866  0.00  0.00    +0.008 A 
ATOM     26  C   UNL     1      23.258   8.419  20.164  0.00  0.00    +0.001 A 
ATOM     27  C   UNL     1      24.519   7.943  20.509  0.00  0.00    +0.001 A 
ENDBRANCH   7  18
BRANCH   6  11
ATOM      1  O   UNL     1      15.704   8.718  19.381  0.00  0.00    -0.369 OA
ATOM      2  O   UNL     1      14.238   6.762  21.230  0.00  0.00    -0.369 OA
ATOM      9  C   UNL     1      15.349   6.574  20.330  0.00  0.00    +0.172 C 
ATOM     10  C   UNL     1      15.086   7.448  19.120  0.00  0.00    +0.180 C 
ATOM     11  C   UNL     1      16.607   7.159  20.931  0.00  0.00    +0.131 C 
ATOM     12  C   UNL     1      13.579   7.548  19.113  0.00  0.00    +0.176 C 
ATOM     13  C   UNL     1      16.472   8.633  20.591  0.00  0.00    +0.185 C 
ATOM     14  C   UNL     1      13.255   7.587  20.589  0.00  0.00    +0.194 C 
BRANCH  12   3
ATOM      3  O   UNL     1      13.095   8.685  18.433  0.00  0.00    -0.362 OA
BRANCH   3  16
ATOM     16  C   UNL     1      12.350   8.334  17.270  0.00  0.00    +0.255 C 
BRANCH  16  17
ATOM      5  O   UNL     1      10.416   8.571  18.699  0.00  0.00    -0.274 OA
ATOM      8  N   UNL     1      10.100   8.318  16.434  0.00  0.00    -0.327 N 
ATOM     17  C   UNL     1      10.873   8.422  17.570  0.00  0.00    +0.236 C 
ATOM     30  H   UNL     1      10.504   8.196  15.511  0.00  0.00    +0.145 HD
ATOM     31  H   UNL     1       9.087   8.361  16.486  0.00  0.00    +0.145 HD
ENDBRANCH  16  17
ENDBRANCH   3  16
ENDBRANCH  12   3
ENDBRANCH   6  11
TORSDOF 5
ENDMDL
MODEL 4
REMARK VINA RESULT:      -6.8      1.762      2.977
REMARK  Name = 11883280
REMARK  5 active torsions:
REMARK  status: ('A' for Active; 'I' for Inactive)
REMARK    1  A    between atoms: O_3  and  C_12
REMARK    2  A    between atoms: O_3  and  C_16
REMARK    3  A    between atoms: N_6  and  C_11
REMARK    4  A    between atoms: N_7  and  C_18
REMARK    5  A    between atoms: C_16  and  C_17
REMARK                            x       y       z     vdW  Elec       q    Type
REMARK                         _______ _______ _______ _____ _____    ______ ____
ROOT
ATOM      4  O   UNL     1      15.978   6.145  20.223  0.00  0.00    -0.252 OA
ATOM      6  N   UNL     1      17.591   7.619  20.974  0.00  0.00    -0.292 N 
ATOM      7  N   UNL     1      15.730   8.459  19.922  0.00  0.00    -0.269 N 
ATOM     15  C   UNL     1      16.378   7.298  20.352  0.00  0.00    +0.304 C 
ATOM     28  H   UNL     1      17.818   8.600  21.108  0.00  0.00    +0.151 HD
ATOM     29  H   UNL     1      16.304   9.294  19.946  0.00  0.00    +0.156 HD
ENDROOT
BRANCH   7  18
ATOM     18  C   UNL     1      14.488   8.562  19.253  0.00  0.00    +0.042 A 
ATOM     19  C   UNL     1      13.280   8.510  19.952  0.00  0.00    +0.003 A 
ATOM     20  C   UNL     1      14.526   8.717  17.873  0.00  0.00    +0.024 A 
ATOM     21  C   UNL     1      12.068   8.620  19.229  0.00  0.00    -0.016 A 
ATOM     22  C   UNL     1      13.235   8.355  21.347  0.00  0.00    +0.010 A 
ATOM     23  C   UNL     1      13.335   8.824  17.162  0.00  0.00    +0.002 A 
ATOM     24  C   UNL     1      12.114   8.776  17.833  0.00  0.00    +0.008 A 
ATOM     25  C   UNL     1      10.848   8.569  19.921  0.00  0.00    +0.008 A 
ATOM     26  C   UNL     1      12.013   8.307  22.019  0.00  0.00    +0.001 A 
ATOM     27  C   UNL     1      10.822   8.414  21.307  0.00  0.00    +0.001 A 
ENDBRANCH   7  18
BRANCH   6  11
ATOM      1  O   UNL     1      20.529   6.769  20.318  0.00  0.00    -0.369 OA
ATOM      2  O   UNL     1      20.078   6.279  23.311  0.00  0.00    -0.369 OA
ATOM      9  C   UNL     1      19.529   7.263  22.412  0.00  0.00    +0.172 C 
ATOM     10  C   UNL     1      20.637   7.647  21.451  0.00  0.00    +0.180 C 
ATOM     11  C   UNL     1      18.484   6.628  21.523  0.00  0.00    +0.131 C 
ATOM     12  C   UNL     1      21.881   7.367  22.261  0.00  0.00    +0.176 C 
ATOM     13  C   UNL     1      19.331   5.986  20.437  0.00  0.00    +0.185 C 
ATOM     14  C   UNL     1      21.481   6.138  23.045  0.00  0.00    +0.194 C 
BRANCH  12   3
ATOM      3  O   UNL     1      23.027   7.144  21.471  0.00  0.00    -0.362 OA
BRANCH   3  16
ATOM     16  C   UNL     1      23.668   5.913  21.797  0.00  0.00    +0.255 C 
BRANCH  16  17
ATOM      5  O   UNL     1      24.960   4.907  20.020  0.00  0.00    -0.274 OA
ATOM      8  N   UNL     1      22.680   4.596  20.049  0.00  0.00    -0.327 N 
ATOM     17  C   UNL     1      23.866   5.099  20.541  0.00  0.00    +0.236 C 
ATOM     30  H   UNL     1      21.788   4.770  20.501  0.00  0.00    +0.145 HD
ATOM     31  H   UNL     1      22.663   4.029  19.208  0.00  0.00    +0.145 HD
ENDBRANCH  16  17
ENDBRANCH   3  16
ENDBRANCH  12   3
ENDBRANCH   6  11
TORSDOF 5
ENDMDL
MODEL 5
REMARK VINA RESULT:      -6.7     16.281     19.858
REMARK  Name = 11883280
REMARK  5 active torsions:
REMARK  status: ('A' for Active; 'I' for Inactive)
REMARK    1  A    between atoms: O_3  and  C_12
REMARK    2  A    between atoms: O_3  and  C_16
REMARK    3  A    between atoms: N_6  and  C_11
REMARK    4  A    between atoms: N_7  and  C_18
REMARK    5  A    between atoms: C_16  and  C_17
REMARK                            x       y       z     vdW  Elec       q    Type
REMARK                         _______ _______ _______ _____ _____    ______ ____
ROOT
ATOM      4  O   UNL     1       7.660  10.827   3.614  0.00  0.00    -0.252 OA
ATOM      6  N   UNL     1       7.384   8.928   4.903  0.00  0.00    -0.292 N 
ATOM      7  N   UNL     1       5.522   9.956   4.036  0.00  0.00    -0.269 N 
ATOM     15  C   UNL     1       6.916   9.995   4.126  0.00  0.00    +0.304 C 
ATOM     28  H   UNL     1       6.712   8.241   5.232  0.00  0.00    +0.151 HD
ATOM     29  H   UNL     1       5.077   9.312   4.681  0.00  0.00    +0.156 HD
ENDROOT
BRANCH   7  18
ATOM     18  C   UNL     1       4.670  10.851   3.346  0.00  0.00    +0.042 A 
ATOM     19  C   UNL     1       4.242  10.586   2.044  0.00  0.00    +0.003 A 
ATOM     20  C   UNL     1       4.283  12.000   4.022  0.00  0.00    +0.024 A 
ATOM     21  C   UNL     1       3.390  11.518   1.403  0.00  0.00    -0.016 A 
ATOM     22  C   UNL     1       4.630   9.425   1.355  0.00  0.00    +0.010 A 
ATOM     23  C   UNL     1       3.446  12.917   3.393  0.00  0.00    +0.002 A 
ATOM     24  C   UNL     1       3.002  12.679   2.093  0.00  0.00    +0.008 A 
ATOM     25  C   UNL     1       2.954  11.263   0.094  0.00  0.00    +0.008 A 
ATOM     26  C   UNL     1       4.186   9.187   0.054  0.00  0.00    +0.001 A 
ATOM     27  C   UNL     1       3.349  10.104  -0.576  0.00  0.00    +0.001 A 
ENDBRANCH   7  18
BRANCH   6  11
ATOM      1  O   UNL     1       8.954   7.904   7.407  0.00  0.00    -0.369 OA
ATOM      2  O   UNL     1      10.534   7.052   4.922  0.00  0.00    -0.369 OA
ATOM      9  C   UNL     1       9.120   7.231   5.139  0.00  0.00    +0.172 C 
ATOM     10  C   UNL     1       8.828   6.758   6.549  0.00  0.00    +0.180 C 
ATOM     11  C   UNL     1       8.783   8.704   5.175  0.00  0.00    +0.131 C 
ATOM     12  C   UNL     1       9.930   5.754   6.789  0.00  0.00    +0.176 C 
ATOM     13  C   UNL     1       9.135   9.081   6.604  0.00  0.00    +0.185 C 
ATOM     14  C   UNL     1      11.097   6.379   6.058  0.00  0.00    +0.194 C 
BRANCH  12   3
ATOM      3  O   UNL     1      10.212   5.545   8.155  0.00  0.00    -0.362 OA
BRANCH   3  16
ATOM     16  C   UNL     1       9.308   4.618   8.751  0.00  0.00    +0.255 C 
BRANCH  16  17
ATOM      5  O   UNL     1      10.498   4.799  10.846  0.00  0.00    -0.274 OA
ATOM      8  N   UNL     1       8.205   4.617  10.883  0.00  0.00    -0.327 N 
ATOM     17  C   UNL     1       9.429   4.689  10.254  0.00  0.00    +0.236 C 
ATOM     30  H   UNL     1       7.335   4.526  10.369  0.00  0.00    +0.145 HD
ATOM     31  H   UNL     1       8.136   4.653  11.894  0.00  0.00    +0.145 HD
ENDBRANCH  16  17
ENDBRANCH   3  16
ENDBRANCH  12   3
ENDBRANCH   6  11
TORSDOF 5
ENDMDL
MODEL 6
REMARK VINA RESULT:      -6.7      1.105      2.259
REMARK  Name = 11883280
REMARK  5 active torsions:
REMARK  status: ('A' for Active; 'I' for Inactive)
REMARK    1  A    between atoms: O_3  and  C_12
REMARK    2  A    between atoms: O_3  and  C_16
REMARK    3  A    between atoms: N_6  and  C_11
REMARK    4  A    between atoms: N_7  and  C_18
REMARK    5  A    between atoms: C_16  and  C_17
REMARK                            x       y       z     vdW  Elec       q    Type
REMARK                         _______ _______ _______ _____ _____    ______ ____
ROOT
ATOM      4  O   UNL     1      17.424   8.626  20.530  0.00  0.00    -0.252 OA
ATOM      6  N   UNL     1      18.208   7.090  22.069  0.00  0.00    -0.292 N 
ATOM      7  N   UNL     1      15.952   7.180  21.648  0.00  0.00    -0.269 N 
ATOM     15  C   UNL     1      17.199   7.724  21.332  0.00  0.00    +0.304 C 
ATOM     28  H   UNL     1      17.952   6.303  22.657  0.00  0.00    +0.151 HD
ATOM     29  H   UNL     1      15.949   6.582  22.467  0.00  0.00    +0.156 HD
ENDROOT
BRANCH   7  18
ATOM     18  C   UNL     1      14.689   7.543  21.124  0.00  0.00    +0.042 A 
ATOM     19  C   UNL     1      14.033   8.701  21.545  0.00  0.00    +0.003 A 
ATOM     20  C   UNL     1      14.133   6.695  20.175  0.00  0.00    +0.024 A 
ATOM     21  C   UNL     1      12.771   9.013  20.985  0.00  0.00    -0.016 A 
ATOM     22  C   UNL     1      14.590   9.563  22.504  0.00  0.00    +0.010 A 
ATOM     23  C   UNL     1      12.892   7.001  19.624  0.00  0.00    +0.002 A 
ATOM     24  C   UNL     1      12.215   8.151  20.025  0.00  0.00    +0.008 A 
ATOM     25  C   UNL     1      12.103  10.176  21.401  0.00  0.00    +0.008 A 
ATOM     26  C   UNL     1      13.912  10.715  22.906  0.00  0.00    +0.001 A 
ATOM     27  C   UNL     1      12.671  11.021  22.356  0.00  0.00    +0.001 A 
ENDBRANCH   7  18
BRANCH   6  11
ATOM      1  O   UNL     1      20.863   5.552  22.673  0.00  0.00    -0.369 OA
ATOM      2  O   UNL     1      21.433   7.496  20.371  0.00  0.00    -0.369 OA
ATOM      9  C   UNL     1      20.235   6.786  20.747  0.00  0.00    +0.172 C 
ATOM     10  C   UNL     1      20.672   5.426  21.254  0.00  0.00    +0.180 C 
ATOM     11  C   UNL     1      19.604   7.436  21.957  0.00  0.00    +0.131 C 
ATOM     12  C   UNL     1      21.979   5.213  20.528  0.00  0.00    +0.176 C 
ATOM     13  C   UNL     1      20.413   6.847  23.099  0.00  0.00    +0.185 C 
ATOM     14  C   UNL     1      22.555   6.610  20.492  0.00  0.00    +0.194 C 
BRANCH  12   3
ATOM      3  O   UNL     1      22.839   4.302  21.175  0.00  0.00    -0.362 OA
BRANCH   3  16
ATOM     16  C   UNL     1      24.078   4.156  20.485  0.00  0.00    +0.255 C 
BRANCH  16  17
ATOM      5  O   UNL     1      25.630   2.306  20.583  0.00  0.00    -0.274 OA
ATOM      8  N   UNL     1      23.391   1.864  20.290  0.00  0.00    -0.327 N 
ATOM     17  C   UNL     1      24.474   2.699  20.461  0.00  0.00    +0.236 C 
ATOM     30  H   UNL     1      22.444   2.217  20.193  0.00  0.00    +0.145 HD
ATOM     31  H   UNL     1      23.509   0.857  20.255  0.00  0.00    +0.145 HD
ENDBRANCH  16  17
ENDBRANCH   3  16
ENDBRANCH  12   3
ENDBRANCH   6  11
TORSDOF 5
ENDMDL
MODEL 7
REMARK VINA RESULT:      -6.6     35.131     36.400
REMARK  Name = 11883280
REMARK  5 active torsions:
REMARK  status: ('A' for Active; 'I' for Inactive)
REMARK    1  A    between atoms: O_3  and  C_12
REMARK    2  A    between atoms: O_3  and  C_16
REMARK    3  A    between atoms: N_6  and  C_11
REMARK    4  A    between atoms: N_7  and  C_18
REMARK    5  A    between atoms: C_16  and  C_17
REMARK                            x       y       z     vdW  Elec       q    Type
REMARK                         _______ _______ _______ _____ _____    ______ ____
ROOT
ATOM      4  O   UNL     1     -17.456   2.973  28.154  0.00  0.00    -0.252 OA
ATOM      6  N   UNL     1     -15.994   3.775  26.553  0.00  0.00    -0.292 N 
ATOM      7  N   UNL     1     -15.137   2.707  28.397  0.00  0.00    -0.269 N 
ATOM     15  C   UNL     1     -16.305   3.128  27.756  0.00  0.00    +0.304 C 
ATOM     28  H   UNL     1     -15.023   3.800  26.257  0.00  0.00    +0.151 HD
ATOM     29  H   UNL     1     -14.283   3.094  28.012  0.00  0.00    +0.156 HD
ENDROOT
BRANCH   7  18
ATOM     18  C   UNL     1     -15.022   2.020  29.629  0.00  0.00    +0.042 A 
ATOM     19  C   UNL     1     -14.845   2.708  30.830  0.00  0.00    +0.003 A 
ATOM     20  C   UNL     1     -15.093   0.634  29.585  0.00  0.00    +0.024 A 
ATOM     21  C   UNL     1     -14.737   1.967  32.032  0.00  0.00    -0.016 A 
ATOM     22  C   UNL     1     -14.774   4.110  30.881  0.00  0.00    +0.010 A 
ATOM     23  C   UNL     1     -14.986  -0.095  30.766  0.00  0.00    +0.002 A 
ATOM     24  C   UNL     1     -14.810   0.565  31.981  0.00  0.00    +0.008 A 
ATOM     25  C   UNL     1     -14.559   2.649  33.246  0.00  0.00    +0.008 A 
ATOM     26  C   UNL     1     -14.597   4.771  32.097  0.00  0.00    +0.001 A 
ATOM     27  C   UNL     1     -14.490   4.042  33.277  0.00  0.00    +0.001 A 
ENDBRANCH   7  18
BRANCH   6  11
ATOM      1  O   UNL     1     -16.238   3.976  23.442  0.00  0.00    -0.369 OA
ATOM      2  O   UNL     1     -19.080   3.762  24.573  0.00  0.00    -0.369 OA
ATOM      9  C   UNL     1     -17.824   3.226  25.037  0.00  0.00    +0.172 C 
ATOM     10  C   UNL     1     -17.031   2.834  23.807  0.00  0.00    +0.180 C 
ATOM     11  C   UNL     1     -16.995   4.321  25.668  0.00  0.00    +0.131 C 
ATOM     12  C   UNL     1     -18.117   2.559  22.794  0.00  0.00    +0.176 C 
ATOM     13  C   UNL     1     -16.360   4.983  24.458  0.00  0.00    +0.185 C 
ATOM     14  C   UNL     1     -19.155   3.600  23.149  0.00  0.00    +0.194 C 
BRANCH  12   3
ATOM      3  O   UNL     1     -17.683   2.678  21.458  0.00  0.00    -0.362 OA
BRANCH   3  16
ATOM     16  C   UNL     1     -18.521   3.547  20.700  0.00  0.00    +0.255 C 
BRANCH  16  17
ATOM      5  O   UNL     1     -17.965   4.843  18.737  0.00  0.00    -0.274 OA
ATOM      8  N   UNL     1     -16.516   4.855  20.525  0.00  0.00    -0.327 N 
ATOM     17  C   UNL     1     -17.666   4.473  19.868  0.00  0.00    +0.236 C 
ATOM     30  H   UNL     1     -16.294   4.535  21.461  0.00  0.00    +0.145 HD
ATOM     31  H   UNL     1     -15.848   5.478  20.084  0.00  0.00    +0.145 HD
ENDBRANCH  16  17
ENDBRANCH   3  16
ENDBRANCH  12   3
ENDBRANCH   6  11
TORSDOF 5
ENDMDL
MODEL 8
REMARK VINA RESULT:      -6.6     30.329     33.488
REMARK  Name = 11883280
REMARK  5 active torsions:
REMARK  status: ('A' for Active; 'I' for Inactive)
REMARK    1  A    between atoms: O_3  and  C_12
REMARK    2  A    between atoms: O_3  and  C_16
REMARK    3  A    between atoms: N_6  and  C_11
REMARK    4  A    between atoms: N_7  and  C_18
REMARK    5  A    between atoms: C_16  and  C_17
REMARK                            x       y       z     vdW  Elec       q    Type
REMARK                         _______ _______ _______ _____ _____    ______ ____
ROOT
ATOM      4  O   UNL     1      -9.169 -10.857  16.503  0.00  0.00    -0.252 OA
ATOM      6  N   UNL     1      -9.842  -8.654  16.695  0.00  0.00    -0.292 N 
ATOM      7  N   UNL     1      -7.901  -9.312  17.733  0.00  0.00    -0.269 N 
ATOM     15  C   UNL     1      -8.975  -9.726  16.941  0.00  0.00    +0.304 C 
ATOM     28  H   UNL     1      -9.575  -7.733  17.031  0.00  0.00    +0.151 HD
ATOM     29  H   UNL     1      -8.017  -8.395  18.152  0.00  0.00    +0.156 HD
ENDROOT
BRANCH   7  18
ATOM     18  C   UNL     1      -6.815 -10.089  18.200  0.00  0.00    +0.042 A 
ATOM     19  C   UNL     1      -5.729 -10.386  17.375  0.00  0.00    +0.003 A 
ATOM     20  C   UNL     1      -6.881 -10.542  19.511  0.00  0.00    +0.024 A 
ATOM     21  C   UNL     1      -4.670 -11.169  17.896  0.00  0.00    -0.016 A 
ATOM     22  C   UNL     1      -5.655  -9.931  16.048  0.00  0.00    +0.010 A 
ATOM     23  C   UNL     1      -5.841 -11.311  20.024  0.00  0.00    +0.002 A 
ATOM     24  C   UNL     1      -4.743 -11.623  19.224  0.00  0.00    +0.008 A 
ATOM     25  C   UNL     1      -3.572 -11.474  17.076  0.00  0.00    +0.008 A 
ATOM     26  C   UNL     1      -4.556 -10.244  15.247  0.00  0.00    +0.001 A 
ATOM     27  C   UNL     1      -3.517 -11.014  15.760  0.00  0.00    +0.001 A 
ENDBRANCH   7  18
BRANCH   6  11
ATOM      1  O   UNL     1     -12.315  -6.794  16.238  0.00  0.00    -0.369 OA
ATOM      2  O   UNL     1     -11.899  -8.415  13.669  0.00  0.00    -0.369 OA
ATOM      9  C   UNL     1     -10.963  -7.930  14.654  0.00  0.00    +0.172 C 
ATOM     10  C   UNL     1     -11.463  -6.571  15.102  0.00  0.00    +0.180 C 
ATOM     11  C   UNL     1     -11.043  -8.775  15.905  0.00  0.00    +0.131 C 
ATOM     12  C   UNL     1     -12.245  -6.099  13.899  0.00  0.00    +0.176 C 
ATOM     13  C   UNL     1     -12.240  -8.175  16.624  0.00  0.00    +0.185 C 
ATOM     14  C   UNL     1     -12.858  -7.385  13.393  0.00  0.00    +0.194 C 
BRANCH  12   3
ATOM      3  O   UNL     1     -13.222  -5.131  14.209  0.00  0.00    -0.362 OA
BRANCH   3  16
ATOM     16  C   UNL     1     -14.449  -5.374  13.525  0.00  0.00    +0.255 C 
BRANCH  16  17
ATOM      5  O   UNL     1     -14.557  -2.990  13.140  0.00  0.00    -0.274 OA
ATOM      8  N   UNL     1     -15.658  -4.401  11.693  0.00  0.00    -0.327 N 
ATOM     17  C   UNL     1     -14.875  -4.123  12.793  0.00  0.00    +0.236 C 
ATOM     30  H   UNL     1     -15.906  -5.348  11.429  0.00  0.00    +0.145 HD
ATOM     31  H   UNL     1     -16.016  -3.654  11.107  0.00  0.00    +0.145 HD
ENDBRANCH  16  17
ENDBRANCH   3  16
ENDBRANCH  12   3
ENDBRANCH   6  11
TORSDOF 5
ENDMDL
MODEL 9
REMARK VINA RESULT:      -6.6     22.088     26.474
REMARK  Name = 11883280
REMARK  5 active torsions:
REMARK  status: ('A' for Active; 'I' for Inactive)
REMARK    1  A    between atoms: O_3  and  C_12
REMARK    2  A    between atoms: O_3  and  C_16
REMARK    3  A    between atoms: N_6  and  C_11
REMARK    4  A    between atoms: N_7  and  C_18
REMARK    5  A    between atoms: C_16  and  C_17
REMARK                            x       y       z     vdW  Elec       q    Type
REMARK                         _______ _______ _______ _____ _____    ______ ____
ROOT
ATOM      4  O   UNL     1      -1.594  11.058  39.402  0.00  0.00    -0.252 OA
ATOM      6  N   UNL     1      -1.661  11.072  37.092  0.00  0.00    -0.292 N 
ATOM      7  N   UNL     1      -2.544   9.272  38.213  0.00  0.00    -0.269 N 
ATOM     15  C   UNL     1      -1.908  10.509  38.350  0.00  0.00    +0.304 C 
ATOM     28  H   UNL     1      -2.016  10.591  36.271  0.00  0.00    +0.151 HD
ATOM     29  H   UNL     1      -2.545   8.903  37.268  0.00  0.00    +0.156 HD
ENDROOT
BRANCH   7  18
ATOM     18  C   UNL     1      -2.961   8.392  39.239  0.00  0.00    +0.042 A 
ATOM     19  C   UNL     1      -2.237   7.237  39.542  0.00  0.00    +0.003 A 
ATOM     20  C   UNL     1      -4.120   8.728  39.926  0.00  0.00    +0.024 A 
ATOM     21  C   UNL     1      -2.703   6.394  40.580  0.00  0.00    -0.016 A 
ATOM     22  C   UNL     1      -1.064   6.892  38.852  0.00  0.00    +0.010 A 
ATOM     23  C   UNL     1      -4.578   7.899  40.945  0.00  0.00    +0.002 A 
ATOM     24  C   UNL     1      -3.876   6.740  41.271  0.00  0.00    +0.008 A 
ATOM     25  C   UNL     1      -1.983   5.230  40.894  0.00  0.00    +0.008 A 
ATOM     26  C   UNL     1      -0.362   5.731  39.178  0.00  0.00    +0.001 A 
ATOM     27  C   UNL     1      -0.820   4.902  40.197  0.00  0.00    +0.001 A 
ENDBRANCH   7  18
BRANCH   6  11
ATOM      1  O   UNL     1       0.714  12.051  35.307  0.00  0.00    -0.369 OA
ATOM      2  O   UNL     1      -1.197  14.421  35.672  0.00  0.00    -0.369 OA
ATOM      9  C   UNL     1      -1.438  13.000  35.614  0.00  0.00    +0.172 C 
ATOM     10  C   UNL     1      -0.474  12.431  34.592  0.00  0.00    +0.180 C 
ATOM     11  C   UNL     1      -1.014  12.349  36.911  0.00  0.00    +0.131 C 
ATOM     12  C   UNL     1      -0.228  13.614  33.685  0.00  0.00    +0.176 C 
ATOM     13  C   UNL     1       0.483  12.188  36.717  0.00  0.00    +0.185 C 
ATOM     14  C   UNL     1      -0.244  14.771  34.658  0.00  0.00    +0.194 C 
BRANCH  12   3
ATOM      3  O   UNL     1       0.988  13.534  32.976  0.00  0.00    -0.362 OA
BRANCH   3  16
ATOM     16  C   UNL     1       1.035  14.458  31.891  0.00  0.00    +0.255 C 
BRANCH  16  17
ATOM      5  O   UNL     1       2.244  14.299  29.805  0.00  0.00    -0.274 OA
ATOM      8  N   UNL     1       1.129  12.445  30.588  0.00  0.00    -0.327 N 
ATOM     17  C   UNL     1       1.542  13.758  30.653  0.00  0.00    +0.236 C 
ATOM     30  H   UNL     1       0.549  12.022  31.304  0.00  0.00    +0.145 HD
ATOM     31  H   UNL     1       1.397  11.853  29.808  0.00  0.00    +0.145 HD
ENDBRANCH  16  17
ENDBRANCH   3  16
ENDBRANCH  12   3
ENDBRANCH   6  11
TORSDOF 5
ENDMDL
MODEL 10
REMARK VINA RESULT:      -6.6     31.959     33.874
REMARK  Name = 11883280
REMARK  5 active torsions:
REMARK  status: ('A' for Active; 'I' for Inactive)
REMARK    1  A    between atoms: O_3  and  C_12
REMARK    2  A    between atoms: O_3  and  C_16
REMARK    3  A    between atoms: N_6  and  C_11
REMARK    4  A    between atoms: N_7  and  C_18
REMARK    5  A    between atoms: C_16  and  C_17
REMARK                            x       y       z     vdW  Elec       q    Type
REMARK                         _______ _______ _______ _____ _____    ______ ____
ROOT
ATOM      4  O   UNL     1     -13.334   8.299  33.534  0.00  0.00    -0.252 OA
ATOM      6  N   UNL     1     -13.014   6.405  32.249  0.00  0.00    -0.292 N 
ATOM      7  N   UNL     1     -11.628   8.208  31.925  0.00  0.00    -0.269 N 
ATOM     15  C   UNL     1     -12.711   7.711  32.656  0.00  0.00    +0.304 C 
ATOM     28  H   UNL     1     -12.407   5.960  31.568  0.00  0.00    +0.151 HD
ATOM     29  H   UNL     1     -11.374   7.649  31.118  0.00  0.00    +0.156 HD
ENDROOT
BRANCH   7  18
ATOM     18  C   UNL     1     -11.019   9.480  32.034  0.00  0.00    +0.042 A 
ATOM     19  C   UNL     1     -11.262  10.484  31.094  0.00  0.00    +0.003 A 
ATOM     20  C   UNL     1     -10.170   9.682  33.114  0.00  0.00    +0.024 A 
ATOM     21  C   UNL     1     -10.624  11.737  31.254  0.00  0.00    -0.016 A 
ATOM     22  C   UNL     1     -12.120  10.285  29.999  0.00  0.00    +0.010 A 
ATOM     23  C   UNL     1      -9.542  10.914  33.271  0.00  0.00    +0.002 A 
ATOM     24  C   UNL     1      -9.767  11.935  32.349  0.00  0.00    +0.008 A 
ATOM     25  C   UNL     1     -10.861  12.754  30.315  0.00  0.00    +0.008 A 
ATOM     26  C   UNL     1     -12.344  11.307  29.076  0.00  0.00    +0.001 A 
ATOM     27  C   UNL     1     -11.716  12.539  29.234  0.00  0.00    +0.001 A 
ENDBRANCH   7  18
BRANCH   6  11
ATOM      1  O   UNL     1     -15.090   4.390  31.060  0.00  0.00    -0.369 OA
ATOM      2  O   UNL     1     -14.529   3.531  33.950  0.00  0.00    -0.369 OA
ATOM      9  C   UNL     1     -13.694   4.175  32.965  0.00  0.00    +0.172 C 
ATOM     10  C   UNL     1     -14.052   3.570  31.622  0.00  0.00    +0.180 C 
ATOM     11  C   UNL     1     -14.086   5.628  32.824  0.00  0.00    +0.131 C 
ATOM     12  C   UNL     1     -14.564   2.203  32.008  0.00  0.00    +0.176 C 
ATOM     13  C   UNL     1     -15.277   5.551  31.885  0.00  0.00    +0.185 C 
ATOM     14  C   UNL     1     -15.275   2.484  33.312  0.00  0.00    +0.194 C 
BRANCH  12   3
ATOM      3  O   UNL     1     -15.425   1.634  31.047  0.00  0.00    -0.362 OA
BRANCH   3  16
ATOM     16  C   UNL     1     -14.712   1.151  29.911  0.00  0.00    +0.255 C 
BRANCH  16  17
ATOM      5  O   UNL     1     -13.191  -0.726  29.876  0.00  0.00    -0.274 OA
ATOM      8  N   UNL     1     -15.319  -1.036  30.693  0.00  0.00    -0.327 N 
ATOM     17  C   UNL     1     -14.302  -0.284  30.144  0.00  0.00    +0.236 C 
ATOM     30  H   UNL     1     -16.230  -0.644  30.906  0.00  0.00    +0.145 HD
ATOM     31  H   UNL     1     -15.184  -2.019  30.904  0.00  0.00    +0.145 HD
ENDBRANCH  16  17
ENDBRANCH   3  16
ENDBRANCH  12   3
ENDBRANCH   6  11
TORSDOF 5
ENDMDL
