MODEL 1
REMARK VINA RESULT:      -7.6      0.000      0.000
REMARK  Name = 45784210
REMARK  4 active torsions:
REMARK  status: ('A' for Active; 'I' for Inactive)
REMARK    1  A    between atoms: N_1  and  C_9
REMARK    2  A    between atoms: C_4  and  C_8
REMARK    3  A    between atoms: C_9  and  C_10
REMARK    4  A    between atoms: C_17  and  C_21
REMARK                            x       y       z     vdW  Elec       q    Type
REMARK                         _______ _______ _______ _____ _____    ______ ____
ROOT
ATOM      1  N   UNL     1      12.059   4.083   1.625  0.00  0.00    -0.297 NA
ATOM      4  C   UNL     1      10.421   5.009   3.025  0.00  0.00    +0.070 C 
ATOM      5  C   UNL     1      11.207   6.138   2.337  0.00  0.00    +0.028 C 
ATOM      6  C   UNL     1      11.283   3.755   2.823  0.00  0.00    +0.096 C 
ATOM      7  C   UNL     1      12.474   5.474   1.814  0.00  0.00    +0.085 C 
ENDROOT
BRANCH   4   8
ATOM      2  N   UNL     1      10.229   4.289   5.422  0.00  0.00    -0.342 N 
ATOM      3  N   UNL     1       9.627   6.384   4.991  0.00  0.00    -0.232 NA
ATOM      8  C   UNL     1      10.081   5.263   4.475  0.00  0.00    +0.113 A 
ATOM     11  C   UNL     1       9.846   4.815   6.629  0.00  0.00    +0.066 A 
ATOM     12  C   UNL     1       9.474   6.124   6.333  0.00  0.00    +0.089 A 
ATOM     13  C   UNL     1       9.793   4.275   7.915  0.00  0.00    +0.031 A 
ATOM     14  C   UNL     1       9.021   6.958   7.370  0.00  0.00    +0.030 A 
ATOM     17  C   UNL     1       9.340   5.119   8.934  0.00  0.00    -0.048 A 
ATOM     18  C   UNL     1       8.960   6.437   8.668  0.00  0.00    +0.005 A 
ATOM     21  C   UNL     1       9.262   4.599  10.332  0.00  0.00    +0.044 C 
ATOM     23  H   UNL     1      10.563   3.346   5.265  0.00  0.00    +0.167 HD
ENDBRANCH   4   8
BRANCH   1   9
ATOM      9  C   UNL     1      13.189   3.188   1.434  0.00  0.00    +0.119 C 
BRANCH   9  10
ATOM     10  C   UNL     1      14.090   3.652   0.320  0.00  0.00    -0.033 A 
ATOM     15  C   UNL     1      13.583   3.799  -0.972  0.00  0.00    +0.005 A 
ATOM     16  C   UNL     1      15.431   3.934   0.579  0.00  0.00    +0.005 A 
ATOM     19  C   UNL     1      14.417   4.228  -2.004  0.00  0.00    +0.000 A 
ATOM     20  C   UNL     1      16.266   4.364  -0.452  0.00  0.00    +0.000 A 
ATOM     22  C   UNL     1      15.758   4.511  -1.745  0.00  0.00    +0.000 A 
ENDBRANCH   9  10
ENDBRANCH   1   9
TORSDOF 3
ENDMDL
MODEL 2
REMARK VINA RESULT:      -7.2     16.290     19.824
REMARK  Name = 45784210
REMARK  4 active torsions:
REMARK  status: ('A' for Active; 'I' for Inactive)
REMARK    1  A    between atoms: N_1  and  C_9
REMARK    2  A    between atoms: C_4  and  C_8
REMARK    3  A    between atoms: C_9  and  C_10
REMARK    4  A    between atoms: C_17  and  C_21
REMARK                            x       y       z     vdW  Elec       q    Type
REMARK                         _______ _______ _______ _____ _____    ______ ____
ROOT
ATOM      1  N   UNL     1      11.600   9.745  21.135  0.00  0.00    -0.297 NA
ATOM      4  C   UNL     1      13.494   9.245  19.844  0.00  0.00    +0.070 C 
ATOM      5  C   UNL     1      12.242   8.652  19.173  0.00  0.00    +0.028 C 
ATOM      6  C   UNL     1      13.048   9.575  21.275  0.00  0.00    +0.096 C 
ATOM      7  C   UNL     1      11.175   8.652  20.260  0.00  0.00    +0.085 C 
ENDROOT
BRANCH   4   8
ATOM      2  N   UNL     1      15.783   8.578  20.625  0.00  0.00    -0.342 N 
ATOM      3  N   UNL     1      14.914   7.332  19.003  0.00  0.00    -0.232 NA
ATOM      8  C   UNL     1      14.719   8.362  19.796  0.00  0.00    +0.113 A 
ATOM     11  C   UNL     1      16.730   7.624  20.349  0.00  0.00    +0.066 A 
ATOM     12  C   UNL     1      16.163   6.859  19.333  0.00  0.00    +0.089 A 
ATOM     13  C   UNL     1      17.994   7.372  20.884  0.00  0.00    +0.031 A 
ATOM     14  C   UNL     1      16.886   5.774  18.808  0.00  0.00    +0.030 A 
ATOM     17  C   UNL     1      18.699   6.289  20.350  0.00  0.00    -0.048 A 
ATOM     18  C   UNL     1      18.157   5.503  19.330  0.00  0.00    +0.005 A 
ATOM     21  C   UNL     1      20.058   5.969  20.882  0.00  0.00    +0.044 C 
ATOM     23  H   UNL     1      15.863   9.309  21.320  0.00  0.00    +0.167 HD
ENDBRANCH   4   8
BRANCH   1   9
ATOM      9  C   UNL     1      10.913   9.729  22.417  0.00  0.00    +0.119 C 
BRANCH   9  10
ATOM     10  C   UNL     1      10.950  11.075  23.090  0.00  0.00    -0.033 A 
ATOM     15  C   UNL     1      10.933  12.239  22.322  0.00  0.00    +0.005 A 
ATOM     16  C   UNL     1      11.002  11.157  24.481  0.00  0.00    +0.005 A 
ATOM     19  C   UNL     1      10.968  13.487  22.945  0.00  0.00    +0.000 A 
ATOM     20  C   UNL     1      11.037  12.405  25.105  0.00  0.00    +0.000 A 
ATOM     22  C   UNL     1      11.020  13.570  24.337  0.00  0.00    +0.000 A 
ENDBRANCH   9  10
ENDBRANCH   1   9
TORSDOF 3
ENDMDL
MODEL 3
REMARK VINA RESULT:      -6.9      5.368      5.971
REMARK  Name = 45784210
REMARK  4 active torsions:
REMARK  status: ('A' for Active; 'I' for Inactive)
REMARK    1  A    between atoms: N_1  and  C_9
REMARK    2  A    between atoms: C_4  and  C_8
REMARK    3  A    between atoms: C_9  and  C_10
REMARK    4  A    between atoms: C_17  and  C_21
REMARK                            x       y       z     vdW  Elec       q    Type
REMARK                         _______ _______ _______ _____ _____    ______ ____
ROOT
ATOM      1  N   UNL     1      16.208   8.710   5.202  0.00  0.00    -0.297 NA
ATOM      4  C   UNL     1      14.147   7.592   5.142  0.00  0.00    +0.070 C 
ATOM      5  C   UNL     1      14.106   8.801   4.190  0.00  0.00    +0.028 C 
ATOM      6  C   UNL     1      15.371   7.842   6.033  0.00  0.00    +0.096 C 
ATOM      7  C   UNL     1      15.281   9.674   4.611  0.00  0.00    +0.085 C 
ENDROOT
BRANCH   4   8
ATOM      2  N   UNL     1      12.760   6.308   6.792  0.00  0.00    -0.342 N 
ATOM      3  N   UNL     1      11.790   8.097   5.900  0.00  0.00    -0.232 NA
ATOM      8  C   UNL     1      12.879   7.362   5.931  0.00  0.00    +0.113 A 
ATOM     11  C   UNL     1      11.510   6.366   7.355  0.00  0.00    +0.066 A 
ATOM     12  C   UNL     1      10.924   7.491   6.781  0.00  0.00    +0.089 A 
ATOM     13  C   UNL     1      10.862   5.555   8.287  0.00  0.00    +0.031 A 
ATOM     14  C   UNL     1       9.614   7.844   7.148  0.00  0.00    +0.030 A 
ATOM     17  C   UNL     1       9.559   5.921   8.641  0.00  0.00    -0.048 A 
ATOM     18  C   UNL     1       8.944   7.044   8.082  0.00  0.00    +0.005 A 
ATOM     21  C   UNL     1       8.812   5.093   9.635  0.00  0.00    +0.044 C 
ATOM     23  H   UNL     1      13.465   5.608   6.985  0.00  0.00    +0.167 HD
ENDBRANCH   4   8
BRANCH   1   9
ATOM      9  C   UNL     1      17.267   9.354   5.964  0.00  0.00    +0.119 C 
BRANCH   9  10
ATOM     10  C   UNL     1      18.590   8.660   5.783  0.00  0.00    -0.033 A 
ATOM     15  C   UNL     1      18.897   8.048   4.568  0.00  0.00    +0.005 A 
ATOM     16  C   UNL     1      19.509   8.626   6.832  0.00  0.00    +0.005 A 
ATOM     19  C   UNL     1      20.123   7.404   4.400  0.00  0.00    +0.000 A 
ATOM     20  C   UNL     1      20.736   7.983   6.665  0.00  0.00    +0.000 A 
ATOM     22  C   UNL     1      21.042   7.371   5.448  0.00  0.00    +0.000 A 
ENDBRANCH   9  10
ENDBRANCH   1   9
TORSDOF 3
ENDMDL
MODEL 4
REMARK VINA RESULT:      -6.9     22.054     25.445
REMARK  Name = 45784210
REMARK  4 active torsions:
REMARK  status: ('A' for Active; 'I' for Inactive)
REMARK    1  A    between atoms: N_1  and  C_9
REMARK    2  A    between atoms: C_4  and  C_8
REMARK    3  A    between atoms: C_9  and  C_10
REMARK    4  A    between atoms: C_17  and  C_21
REMARK                            x       y       z     vdW  Elec       q    Type
REMARK                         _______ _______ _______ _____ _____    ______ ____
ROOT
ATOM      1  N   UNL     1      -2.139 -10.959  13.796  0.00  0.00    -0.297 NA
ATOM      4  C   UNL     1      -3.263 -10.234  15.723  0.00  0.00    +0.070 C 
ATOM      5  C   UNL     1      -1.862 -10.744  16.105  0.00  0.00    +0.028 C 
ATOM      6  C   UNL     1      -3.500 -10.773  14.306  0.00  0.00    +0.096 C 
ATOM      7  C   UNL     1      -1.400 -11.561  14.905  0.00  0.00    +0.085 C 
ENDROOT
BRANCH   4   8
ATOM      2  N   UNL     1      -5.571  -9.976  16.674  0.00  0.00    -0.342 N 
ATOM      3  N   UNL     1      -4.308 -11.543  17.615  0.00  0.00    -0.232 NA
ATOM      8  C   UNL     1      -4.362 -10.611  16.689  0.00  0.00    +0.113 A 
ATOM     11  C   UNL     1      -6.351 -10.533  17.655  0.00  0.00    +0.066 A 
ATOM     12  C   UNL     1      -5.540 -11.509  18.228  0.00  0.00    +0.089 A 
ATOM     13  C   UNL     1      -7.656 -10.276  18.077  0.00  0.00    +0.031 A 
ATOM     14  C   UNL     1      -6.043 -12.283  19.287  0.00  0.00    +0.030 A 
ATOM     17  C   UNL     1      -8.141 -11.056  19.132  0.00  0.00    -0.048 A 
ATOM     18  C   UNL     1      -7.350 -12.042  19.728  0.00  0.00    +0.005 A 
ATOM     21  C   UNL     1      -9.531 -10.829  19.629  0.00  0.00    +0.044 C 
ATOM     23  H   UNL     1      -5.847  -9.227  16.051  0.00  0.00    +0.167 HD
ENDBRANCH   4   8
BRANCH   1   9
ATOM      9  C   UNL     1      -2.104 -11.779  12.596  0.00  0.00    +0.119 C 
BRANCH   9  10
ATOM     10  C   UNL     1      -2.796 -11.110  11.439  0.00  0.00    -0.033 A 
ATOM     15  C   UNL     1      -3.743 -11.811  10.692  0.00  0.00    +0.005 A 
ATOM     16  C   UNL     1      -2.489  -9.790  11.112  0.00  0.00    +0.005 A 
ATOM     19  C   UNL     1      -4.385 -11.192   9.619  0.00  0.00    +0.000 A 
ATOM     20  C   UNL     1      -3.130  -9.169  10.040  0.00  0.00    +0.000 A 
ATOM     22  C   UNL     1      -4.079  -9.870   9.293  0.00  0.00    +0.000 A 
ENDBRANCH   9  10
ENDBRANCH   1   9
TORSDOF 3
ENDMDL
MODEL 5
REMARK VINA RESULT:      -6.8     28.925     33.610
REMARK  Name = 45784210
REMARK  4 active torsions:
REMARK  status: ('A' for Active; 'I' for Inactive)
REMARK    1  A    between atoms: N_1  and  C_9
REMARK    2  A    between atoms: C_4  and  C_8
REMARK    3  A    between atoms: C_9  and  C_10
REMARK    4  A    between atoms: C_17  and  C_21
REMARK                            x       y       z     vdW  Elec       q    Type
REMARK                         _______ _______ _______ _____ _____    ______ ____
ROOT
ATOM      1  N   UNL     1     -14.992   5.991  22.014  0.00  0.00    -0.297 NA
ATOM      4  C   UNL     1     -15.768   4.045  23.068  0.00  0.00    +0.070 C 
ATOM      5  C   UNL     1     -16.964   4.849  22.528  0.00  0.00    +0.028 C 
ATOM      6  C   UNL     1     -14.594   5.032  23.048  0.00  0.00    +0.096 C 
ATOM      7  C   UNL     1     -16.411   6.244  22.261  0.00  0.00    +0.085 C 
ENDROOT
BRANCH   4   8
ATOM      2  N   UNL     1     -15.781   4.123  25.577  0.00  0.00    -0.342 N 
ATOM      3  N   UNL     1     -16.379   2.186  24.667  0.00  0.00    -0.232 NA
ATOM      8  C   UNL     1     -15.986   3.417  24.425  0.00  0.00    +0.113 A 
ATOM     11  C   UNL     1     -16.059   3.294  26.633  0.00  0.00    +0.066 A 
ATOM     12  C   UNL     1     -16.430   2.090  26.039  0.00  0.00    +0.089 A 
ATOM     13  C   UNL     1     -16.020   3.487  28.015  0.00  0.00    +0.031 A 
ATOM     14  C   UNL     1     -16.785   1.004  26.857  0.00  0.00    +0.030 A 
ATOM     17  C   UNL     1     -16.377   2.395  28.813  0.00  0.00    -0.048 A 
ATOM     18  C   UNL     1     -16.753   1.174  28.246  0.00  0.00    +0.005 A 
ATOM     21  C   UNL     1     -16.355   2.539  30.300  0.00  0.00    +0.044 C 
ATOM     23  H   UNL     1     -15.479   5.087  25.643  0.00  0.00    +0.167 HD
ENDBRANCH   4   8
BRANCH   1   9
ATOM      9  C   UNL     1     -14.197   7.208  22.050  0.00  0.00    +0.119 C 
BRANCH   9  10
ATOM     10  C   UNL     1     -13.407   7.400  20.783  0.00  0.00    -0.033 A 
ATOM     15  C   UNL     1     -12.030   7.179  20.779  0.00  0.00    +0.005 A 
ATOM     16  C   UNL     1     -14.052   7.800  19.613  0.00  0.00    +0.005 A 
ATOM     19  C   UNL     1     -11.297   7.357  19.606  0.00  0.00    +0.000 A 
ATOM     20  C   UNL     1     -13.320   7.977  18.438  0.00  0.00    +0.000 A 
ATOM     22  C   UNL     1     -11.942   7.756  18.435  0.00  0.00    +0.000 A 
ENDBRANCH   9  10
ENDBRANCH   1   9
TORSDOF 3
ENDMDL
MODEL 6
REMARK VINA RESULT:      -6.8     27.149     31.982
REMARK  Name = 45784210
REMARK  4 active torsions:
REMARK  status: ('A' for Active; 'I' for Inactive)
REMARK    1  A    between atoms: N_1  and  C_9
REMARK    2  A    between atoms: C_4  and  C_8
REMARK    3  A    between atoms: C_9  and  C_10
REMARK    4  A    between atoms: C_17  and  C_21
REMARK                            x       y       z     vdW  Elec       q    Type
REMARK                         _______ _______ _______ _____ _____    ______ ____
ROOT
ATOM      1  N   UNL     1     -13.220   6.947  20.846  0.00  0.00    -0.297 NA
ATOM      4  C   UNL     1     -14.823   5.417  21.614  0.00  0.00    +0.070 C 
ATOM      5  C   UNL     1     -15.527   6.688  21.108  0.00  0.00    +0.028 C 
ATOM      6  C   UNL     1     -13.353   5.825  21.778  0.00  0.00    +0.096 C 
ATOM      7  C   UNL     1     -14.431   7.745  21.041  0.00  0.00    +0.085 C 
ENDROOT
BRANCH   4   8
ATOM      2  N   UNL     1     -15.477   3.470  23.056  0.00  0.00    -0.342 N 
ATOM      3  N   UNL     1     -15.913   5.482  23.893  0.00  0.00    -0.232 NA
ATOM      8  C   UNL     1     -15.413   4.822  22.871  0.00  0.00    +0.113 A 
ATOM     11  C   UNL     1     -16.056   3.240  24.278  0.00  0.00    +0.066 A 
ATOM     12  C   UNL     1     -16.320   4.511  24.780  0.00  0.00    +0.089 A 
ATOM     13  C   UNL     1     -16.363   2.065  24.966  0.00  0.00    +0.031 A 
ATOM     14  C   UNL     1     -16.925   4.638  26.042  0.00  0.00    +0.030 A 
ATOM     17  C   UNL     1     -16.965   2.209  26.221  0.00  0.00    -0.048 A 
ATOM     18  C   UNL     1     -17.242   3.472  26.751  0.00  0.00    +0.005 A 
ATOM     21  C   UNL     1     -17.317   0.989  27.006  0.00  0.00    +0.044 C 
ATOM     23  H   UNL     1     -15.154   2.760  22.410  0.00  0.00    +0.167 HD
ENDBRANCH   4   8
BRANCH   1   9
ATOM      9  C   UNL     1     -12.007   7.717  21.073  0.00  0.00    +0.119 C 
BRANCH   9  10
ATOM     10  C   UNL     1     -11.367   8.148  19.781  0.00  0.00    -0.033 A 
ATOM     15  C   UNL     1     -10.719   9.381  19.700  0.00  0.00    +0.005 A 
ATOM     16  C   UNL     1     -11.423   7.315  18.664  0.00  0.00    +0.005 A 
ATOM     19  C   UNL     1     -10.126   9.781  18.502  0.00  0.00    +0.000 A 
ATOM     20  C   UNL     1     -10.829   7.714  17.465  0.00  0.00    +0.000 A 
ATOM     22  C   UNL     1     -10.181   8.947  17.385  0.00  0.00    +0.000 A 
ENDBRANCH   9  10
ENDBRANCH   1   9
TORSDOF 3
ENDMDL
MODEL 7
REMARK VINA RESULT:      -6.6     24.789     28.756
REMARK  Name = 45784210
REMARK  4 active torsions:
REMARK  status: ('A' for Active; 'I' for Inactive)
REMARK    1  A    between atoms: N_1  and  C_9
REMARK    2  A    between atoms: C_4  and  C_8
REMARK    3  A    between atoms: C_9  and  C_10
REMARK    4  A    between atoms: C_17  and  C_21
REMARK                            x       y       z     vdW  Elec       q    Type
REMARK                         _______ _______ _______ _____ _____    ______ ____
ROOT
ATOM      1  N   UNL     1      -5.016 -11.333  17.585  0.00  0.00    -0.297 NA
ATOM      4  C   UNL     1      -6.772 -10.621  18.968  0.00  0.00    +0.070 C 
ATOM      5  C   UNL     1      -5.670 -11.269  19.826  0.00  0.00    +0.028 C 
ATOM      6  C   UNL     1      -6.455 -11.060  17.532  0.00  0.00    +0.096 C 
ATOM      7  C   UNL     1      -4.816 -12.056  18.841  0.00  0.00    +0.085 C 
ENDROOT
BRANCH   4   8
ATOM      2  N   UNL     1      -9.199 -10.052  19.251  0.00  0.00    -0.342 N 
ATOM      3  N   UNL     1      -8.601 -12.088  19.911  0.00  0.00    -0.232 NA
ATOM      8  C   UNL     1      -8.184 -10.955  19.389  0.00  0.00    +0.113 A 
ATOM     11  C   UNL     1     -10.349 -10.639  19.714  0.00  0.00    +0.066 A 
ATOM     12  C   UNL     1      -9.949 -11.909  20.120  0.00  0.00    +0.089 A 
ATOM     13  C   UNL     1     -11.664 -10.183  19.810  0.00  0.00    +0.031 A 
ATOM     14  C   UNL     1     -10.904 -12.790  20.656  0.00  0.00    +0.030 A 
ATOM     17  C   UNL     1     -12.602 -11.072  20.345  0.00  0.00    -0.048 A 
ATOM     18  C   UNL     1     -12.230 -12.353  20.762  0.00  0.00    +0.005 A 
ATOM     21  C   UNL     1     -14.027 -10.642  20.473  0.00  0.00    +0.044 C 
ATOM     23  H   UNL     1      -9.122  -9.116  18.874  0.00  0.00    +0.167 HD
ENDBRANCH   4   8
BRANCH   1   9
ATOM      9  C   UNL     1      -4.552 -12.088  16.431  0.00  0.00    +0.119 C 
BRANCH   9  10
ATOM     10  C   UNL     1      -3.453 -11.368  15.696  0.00  0.00    -0.033 A 
ATOM     15  C   UNL     1      -2.346 -10.885  16.395  0.00  0.00    +0.005 A 
ATOM     16  C   UNL     1      -3.542 -11.183  14.317  0.00  0.00    +0.005 A 
ATOM     19  C   UNL     1      -1.327 -10.218  15.715  0.00  0.00    +0.000 A 
ATOM     20  C   UNL     1      -2.523 -10.516  13.635  0.00  0.00    +0.000 A 
ATOM     22  C   UNL     1      -1.416 -10.033  14.335  0.00  0.00    +0.000 A 
ENDBRANCH   9  10
ENDBRANCH   1   9
TORSDOF 3
ENDMDL
MODEL 8
REMARK VINA RESULT:      -6.5     24.156     28.100
REMARK  Name = 45784210
REMARK  4 active torsions:
REMARK  status: ('A' for Active; 'I' for Inactive)
REMARK    1  A    between atoms: N_1  and  C_9
REMARK    2  A    between atoms: C_4  and  C_8
REMARK    3  A    between atoms: C_9  and  C_10
REMARK    4  A    between atoms: C_17  and  C_21
REMARK                            x       y       z     vdW  Elec       q    Type
REMARK                         _______ _______ _______ _____ _____    ______ ____
ROOT
ATOM      1  N   UNL     1      -4.683 -11.481  17.495  0.00  0.00    -0.297 NA
ATOM      4  C   UNL     1      -6.413 -10.515  18.750  0.00  0.00    +0.070 C 
ATOM      5  C   UNL     1      -5.681 -11.564  19.606  0.00  0.00    +0.028 C 
ATOM      6  C   UNL     1      -5.972 -10.812  17.310  0.00  0.00    +0.096 C 
ATOM      7  C   UNL     1      -4.895 -12.407  18.609  0.00  0.00    +0.085 C 
ENDROOT
BRANCH   4   8
ATOM      2  N   UNL     1      -8.715  -9.781  18.070  0.00  0.00    -0.342 N 
ATOM      3  N   UNL     1      -8.612 -11.131  19.832  0.00  0.00    -0.232 NA
ATOM      8  C   UNL     1      -7.915 -10.498  18.914  0.00  0.00    +0.113 A 
ATOM     11  C   UNL     1     -10.015  -9.961  18.469  0.00  0.00    +0.066 A 
ATOM     12  C   UNL     1      -9.924 -10.808  19.570  0.00  0.00    +0.089 A 
ATOM     13  C   UNL     1     -11.225  -9.472  17.976  0.00  0.00    +0.031 A 
ATOM     14  C   UNL     1     -11.100 -11.200  20.232  0.00  0.00    +0.030 A 
ATOM     17  C   UNL     1     -12.386  -9.873  18.646  0.00  0.00    -0.048 A 
ATOM     18  C   UNL     1     -12.327 -10.721  19.755  0.00  0.00    +0.005 A 
ATOM     21  C   UNL     1     -13.713  -9.383  18.166  0.00  0.00    +0.044 C 
ATOM     23  H   UNL     1      -8.407  -9.216  17.289  0.00  0.00    +0.167 HD
ENDBRANCH   4   8
BRANCH   1   9
ATOM      9  C   UNL     1      -4.231 -12.159  16.290  0.00  0.00    +0.119 C 
BRANCH   9  10
ATOM     10  C   UNL     1      -3.195 -11.356  15.551  0.00  0.00    -0.033 A 
ATOM     15  C   UNL     1      -3.304 -11.175  14.172  0.00  0.00    +0.005 A 
ATOM     16  C   UNL     1      -2.123 -10.794  16.244  0.00  0.00    +0.005 A 
ATOM     19  C   UNL     1      -2.344 -10.432  13.486  0.00  0.00    +0.000 A 
ATOM     20  C   UNL     1      -1.162 -10.049  15.560  0.00  0.00    +0.000 A 
ATOM     22  C   UNL     1      -1.273  -9.868  14.180  0.00  0.00    +0.000 A 
ENDBRANCH   9  10
ENDBRANCH   1   9
TORSDOF 3
ENDMDL
MODEL 9
REMARK VINA RESULT:      -6.5     22.863     26.417
REMARK  Name = 45784210
REMARK  4 active torsions:
REMARK  status: ('A' for Active; 'I' for Inactive)
REMARK    1  A    between atoms: N_1  and  C_9
REMARK    2  A    between atoms: C_4  and  C_8
REMARK    3  A    between atoms: C_9  and  C_10
REMARK    4  A    between atoms: C_17  and  C_21
REMARK                            x       y       z     vdW  Elec       q    Type
REMARK                         _______ _______ _______ _____ _____    ______ ____
ROOT
ATOM      1  N   UNL     1      -4.106 -10.724  14.837  0.00  0.00    -0.297 NA
ATOM      4  C   UNL     1      -5.413  -9.852  16.578  0.00  0.00    +0.070 C 
ATOM      5  C   UNL     1      -4.236 -10.648  17.168  0.00  0.00    +0.028 C 
ATOM      6  C   UNL     1      -5.477 -10.284  15.107  0.00  0.00    +0.096 C 
ATOM      7  C   UNL     1      -3.720 -11.501  16.016  0.00  0.00    +0.085 C 
ENDROOT
BRANCH   4   8
ATOM      2  N   UNL     1      -7.848  -9.349  16.922  0.00  0.00    -0.342 N 
ATOM      3  N   UNL     1      -6.956 -10.818  18.331  0.00  0.00    -0.232 NA
ATOM      8  C   UNL     1      -6.727 -10.031  17.302  0.00  0.00    +0.113 A 
ATOM     11  C   UNL     1      -8.869  -9.719  17.759  0.00  0.00    +0.066 A 
ATOM     12  C   UNL     1      -8.288 -10.637  18.629  0.00  0.00    +0.089 A 
ATOM     13  C   UNL     1     -10.211  -9.342  17.828  0.00  0.00    +0.031 A 
ATOM     14  C   UNL     1      -9.076 -11.223  19.634  0.00  0.00    +0.030 A 
ATOM     17  C   UNL     1     -10.981  -9.935  18.833  0.00  0.00    -0.048 A 
ATOM     18  C   UNL     1     -10.425 -10.859  19.722  0.00  0.00    +0.005 A 
ATOM     21  C   UNL     1     -12.425  -9.572  18.958  0.00  0.00    +0.044 C 
ATOM     23  H   UNL     1      -7.917  -8.688  16.158  0.00  0.00    +0.167 HD
ENDBRANCH   4   8
BRANCH   1   9
ATOM      9  C   UNL     1      -4.002 -11.494  13.608  0.00  0.00    +0.119 C 
BRANCH   9  10
ATOM     10  C   UNL     1      -3.482 -10.661  12.467  0.00  0.00    -0.033 A 
ATOM     15  C   UNL     1      -4.370 -10.116  11.540  0.00  0.00    +0.005 A 
ATOM     16  C   UNL     1      -2.112 -10.435  12.336  0.00  0.00    +0.005 A 
ATOM     19  C   UNL     1      -3.889  -9.344  10.482  0.00  0.00    +0.000 A 
ATOM     20  C   UNL     1      -1.629  -9.663  11.279  0.00  0.00    +0.000 A 
ATOM     22  C   UNL     1      -2.519  -9.117  10.352  0.00  0.00    +0.000 A 
ENDBRANCH   9  10
ENDBRANCH   1   9
TORSDOF 3
ENDMDL
MODEL 10
REMARK VINA RESULT:      -6.5     25.901     28.343
REMARK  Name = 45784210
REMARK  4 active torsions:
REMARK  status: ('A' for Active; 'I' for Inactive)
REMARK    1  A    between atoms: N_1  and  C_9
REMARK    2  A    between atoms: C_4  and  C_8
REMARK    3  A    between atoms: C_9  and  C_10
REMARK    4  A    between atoms: C_17  and  C_21
REMARK                            x       y       z     vdW  Elec       q    Type
REMARK                         _______ _______ _______ _____ _____    ______ ____
ROOT
ATOM      1  N   UNL     1     -11.854  -7.242  14.700  0.00  0.00    -0.297 NA
ATOM      4  C   UNL     1     -10.673  -8.269  16.447  0.00  0.00    +0.070 C 
ATOM      5  C   UNL     1     -10.820  -6.765  16.739  0.00  0.00    +0.028 C 
ATOM      6  C   UNL     1     -11.008  -8.410  14.956  0.00  0.00    +0.096 C 
ATOM      7  C   UNL     1     -11.197  -6.139  15.402  0.00  0.00    +0.085 C 
ENDROOT
BRANCH   4   8
ATOM      2  N   UNL     1      -8.273  -8.802  15.944  0.00  0.00    -0.342 N 
ATOM      3  N   UNL     1      -9.014  -9.464  17.931  0.00  0.00    -0.232 NA
ATOM      8  C   UNL     1      -9.329  -8.858  16.808  0.00  0.00    +0.113 A 
ATOM     11  C   UNL     1      -7.204  -9.413  16.547  0.00  0.00    +0.066 A 
ATOM     12  C   UNL     1      -7.692  -9.817  17.787  0.00  0.00    +0.089 A 
ATOM     13  C   UNL     1      -5.892  -9.639  16.129  0.00  0.00    +0.031 A 
ATOM     14  C   UNL     1      -6.834 -10.490  18.674  0.00  0.00    +0.030 A 
ATOM     17  C   UNL     1      -5.052 -10.308  17.025  0.00  0.00    -0.048 A 
ATOM     18  C   UNL     1      -5.513 -10.728  18.276  0.00  0.00    +0.005 A 
ATOM     21  C   UNL     1      -3.636 -10.580  16.635  0.00  0.00    +0.044 C 
ATOM     23  H   UNL     1      -8.275  -8.384  15.022  0.00  0.00    +0.167 HD
ENDBRANCH   4   8
BRANCH   1   9
ATOM      9  C   UNL     1     -12.017  -6.976  13.279  0.00  0.00    +0.119 C 
BRANCH   9  10
ATOM     10  C   UNL     1     -12.851  -5.748  13.031  0.00  0.00    -0.033 A 
ATOM     15  C   UNL     1     -12.293  -4.643  12.387  0.00  0.00    +0.005 A 
ATOM     16  C   UNL     1     -14.182  -5.714  13.446  0.00  0.00    +0.005 A 
ATOM     19  C   UNL     1     -13.066  -3.505  12.157  0.00  0.00    +0.000 A 
ATOM     20  C   UNL     1     -14.956  -4.576  13.217  0.00  0.00    +0.000 A 
ATOM     22  C   UNL     1     -14.397  -3.471  12.572  0.00  0.00    +0.000 A 
ENDBRANCH   9  10
ENDBRANCH   1   9
TORSDOF 3
ENDMDL
