MODEL 1
REMARK VINA RESULT:      -6.6      0.000      0.000
REMARK  Name = 51137893
REMARK  5 active torsions:
REMARK  status: ('A' for Active; 'I' for Inactive)
REMARK    1  A    between atoms: N_1  and  C_9
REMARK    2  A    between atoms: N_2  and  C_13
REMARK    3  A    between atoms: C_4  and  C_8
REMARK    4  A    between atoms: C_9  and  C_10
REMARK    5  A    between atoms: C_14  and  C_21
REMARK                            x       y       z     vdW  Elec       q    Type
REMARK                         _______ _______ _______ _____ _____    ______ ____
ROOT
ATOM      1  N   UNL     1      10.683   5.703   4.376  0.00  0.00    -0.297 NA
ATOM      4  C   UNL     1      11.923   4.820   2.592  0.00  0.00    +0.070 C 
ATOM      5  C   UNL     1      12.389   6.258   2.881  0.00  0.00    +0.028 C 
ATOM      6  C   UNL     1      10.578   4.693   3.321  0.00  0.00    +0.096 C 
ATOM      7  C   UNL     1      11.278   6.870   3.724  0.00  0.00    +0.085 C 
ENDROOT
BRANCH   4   8
ATOM      2  N   UNL     1      12.880   3.892   0.453  0.00  0.00    -0.330 N 
ATOM      3  N   UNL     1      10.793   4.649   0.350  0.00  0.00    -0.232 NA
ATOM      8  C   UNL     1      11.836   4.463   1.126  0.00  0.00    +0.115 A 
ATOM     11  C   UNL     1      12.484   3.697  -0.845  0.00  0.00    +0.069 A 
ATOM     12  C   UNL     1      11.178   4.177  -0.884  0.00  0.00    +0.089 A 
ATOM     13  C   UNL     1      14.173   3.555   1.006  0.00  0.00    +0.150 C 
ATOM     15  C   UNL     1      13.136   3.157  -1.955  0.00  0.00    +0.028 A 
ATOM     17  C   UNL     1      10.464   4.123  -2.094  0.00  0.00    +0.030 A 
ATOM     19  C   UNL     1      12.412   3.112  -3.150  0.00  0.00    +0.002 A 
ATOM     20  C   UNL     1      11.099   3.586  -3.220  0.00  0.00    +0.002 A 
ENDBRANCH   4   8
BRANCH   1   9
ATOM      9  C   UNL     1       9.396   6.005   4.985  0.00  0.00    +0.119 C 
BRANCH   9  10
ATOM     10  C   UNL     1       9.401   5.741   6.468  0.00  0.00    -0.030 A 
ATOM     14  C   UNL     1       9.008   6.725   7.374  0.00  0.00    -0.046 A 
ATOM     16  C   UNL     1       9.806   4.489   6.931  0.00  0.00    +0.005 A 
ATOM     18  C   UNL     1       9.019   6.459   8.742  0.00  0.00    +0.003 A 
ATOM     21  C   UNL     1       8.570   8.073   6.902  0.00  0.00    +0.044 C 
ATOM     22  C   UNL     1       9.819   4.222   8.300  0.00  0.00    +0.000 A 
ATOM     23  C   UNL     1       9.425   5.207   9.205  0.00  0.00    +0.000 A 
ENDBRANCH   9  10
ENDBRANCH   1   9
TORSDOF 3
ENDMDL
MODEL 2
REMARK VINA RESULT:      -6.4     23.725     27.536
REMARK  Name = 51137893
REMARK  5 active torsions:
REMARK  status: ('A' for Active; 'I' for Inactive)
REMARK    1  A    between atoms: N_1  and  C_9
REMARK    2  A    between atoms: N_2  and  C_13
REMARK    3  A    between atoms: C_4  and  C_8
REMARK    4  A    between atoms: C_9  and  C_10
REMARK    5  A    between atoms: C_14  and  C_21
REMARK                            x       y       z     vdW  Elec       q    Type
REMARK                         _______ _______ _______ _____ _____    ______ ____
ROOT
ATOM      1  N   UNL     1      -4.683 -10.483  14.417  0.00  0.00    -0.297 NA
ATOM      4  C   UNL     1      -5.889 -10.019  16.374  0.00  0.00    +0.070 C 
ATOM      5  C   UNL     1      -4.409 -10.251  16.724  0.00  0.00    +0.028 C 
ATOM      6  C   UNL     1      -6.043 -10.574  14.951  0.00  0.00    +0.096 C 
ATOM      7  C   UNL     1      -3.819 -10.945  15.504  0.00  0.00    +0.085 C 
ENDROOT
BRANCH   4   8
ATOM      2  N   UNL     1      -8.062 -10.011  17.651  0.00  0.00    -0.330 N 
ATOM      3  N   UNL     1      -6.720 -11.748  18.005  0.00  0.00    -0.232 NA
ATOM      8  C   UNL     1      -6.874 -10.619  17.351  0.00  0.00    +0.115 A 
ATOM     11  C   UNL     1      -8.717 -10.802  18.560  0.00  0.00    +0.069 A 
ATOM     12  C   UNL     1      -7.860 -11.879  18.764  0.00  0.00    +0.089 A 
ATOM     13  C   UNL     1      -8.544  -8.760  17.112  0.00  0.00    +0.150 C 
ATOM     15  C   UNL     1      -9.950 -10.671  19.201  0.00  0.00    +0.028 A 
ATOM     17  C   UNL     1      -8.238 -12.896  19.657  0.00  0.00    +0.030 A 
ATOM     19  C   UNL     1     -10.310 -11.691  20.087  0.00  0.00    +0.002 A 
ATOM     20  C   UNL     1      -9.470 -12.785  20.313  0.00  0.00    +0.002 A 
ENDBRANCH   4   8
BRANCH   1   9
ATOM      9  C   UNL     1      -4.510 -11.265  13.201  0.00  0.00    +0.119 C 
BRANCH   9  10
ATOM     10  C   UNL     1      -4.319 -10.388  11.992  0.00  0.00    -0.030 A 
ATOM     14  C   UNL     1      -3.048 -10.150  11.471  0.00  0.00    -0.046 A 
ATOM     16  C   UNL     1      -5.439  -9.811  11.391  0.00  0.00    +0.005 A 
ATOM     18  C   UNL     1      -2.895  -9.335  10.350  0.00  0.00    +0.003 A 
ATOM     21  C   UNL     1      -1.835 -10.757  12.097  0.00  0.00    +0.044 C 
ATOM     22  C   UNL     1      -5.285  -8.995  10.270  0.00  0.00    +0.000 A 
ATOM     23  C   UNL     1      -4.014  -8.758   9.750  0.00  0.00    +0.000 A 
ENDBRANCH   9  10
ENDBRANCH   1   9
TORSDOF 3
ENDMDL
MODEL 3
REMARK VINA RESULT:      -6.3     22.614     26.356
REMARK  Name = 51137893
REMARK  5 active torsions:
REMARK  status: ('A' for Active; 'I' for Inactive)
REMARK    1  A    between atoms: N_1  and  C_9
REMARK    2  A    between atoms: N_2  and  C_13
REMARK    3  A    between atoms: C_4  and  C_8
REMARK    4  A    between atoms: C_9  and  C_10
REMARK    5  A    between atoms: C_14  and  C_21
REMARK                            x       y       z     vdW  Elec       q    Type
REMARK                         _______ _______ _______ _____ _____    ______ ____
ROOT
ATOM      1  N   UNL     1      -2.110 -10.934  13.852  0.00  0.00    -0.297 NA
ATOM      4  C   UNL     1      -3.338 -10.260  15.733  0.00  0.00    +0.070 C 
ATOM      5  C   UNL     1      -1.917 -10.664  16.164  0.00  0.00    +0.028 C 
ATOM      6  C   UNL     1      -3.494 -10.837  14.319  0.00  0.00    +0.096 C 
ATOM      7  C   UNL     1      -1.363 -11.465  14.994  0.00  0.00    +0.085 C 
ENDROOT
BRANCH   4   8
ATOM      2  N   UNL     1      -5.755 -10.446  16.422  0.00  0.00    -0.330 N 
ATOM      3  N   UNL     1      -4.268 -11.352  17.802  0.00  0.00    -0.232 NA
ATOM      8  C   UNL     1      -4.436 -10.700  16.674  0.00  0.00    +0.115 A 
ATOM     11  C   UNL     1      -6.488 -10.970  17.456  0.00  0.00    +0.069 A 
ATOM     12  C   UNL     1      -5.536 -11.530  18.305  0.00  0.00    +0.089 A 
ATOM     13  C   UNL     1      -6.289  -9.750  15.273  0.00  0.00    +0.150 C 
ATOM     15  C   UNL     1      -7.859 -11.000  17.716  0.00  0.00    +0.028 A 
ATOM     17  C   UNL     1      -5.960 -12.163  19.486  0.00  0.00    +0.030 A 
ATOM     19  C   UNL     1      -8.262 -11.634  18.895  0.00  0.00    +0.002 A 
ATOM     20  C   UNL     1      -7.331 -12.206  19.766  0.00  0.00    +0.002 A 
ENDBRANCH   4   8
BRANCH   1   9
ATOM      9  C   UNL     1      -1.980 -11.770  12.668  0.00  0.00    +0.119 C 
BRANCH   9  10
ATOM     10  C   UNL     1      -2.706 -11.185  11.486  0.00  0.00    -0.030 A 
ATOM     14  C   UNL     1      -3.551 -11.969  10.703  0.00  0.00    -0.046 A 
ATOM     16  C   UNL     1      -2.525  -9.836  11.180  0.00  0.00    +0.005 A 
ATOM     18  C   UNL     1      -4.215 -11.407   9.613  0.00  0.00    +0.003 A 
ATOM     21  C   UNL     1      -3.762 -13.416  11.011  0.00  0.00    +0.044 C 
ATOM     22  C   UNL     1      -3.188  -9.273  10.089  0.00  0.00    +0.000 A 
ATOM     23  C   UNL     1      -4.033 -10.059   9.306  0.00  0.00    +0.000 A 
ENDBRANCH   9  10
ENDBRANCH   1   9
TORSDOF 3
ENDMDL
MODEL 4
REMARK VINA RESULT:      -6.1     25.220     29.117
REMARK  Name = 51137893
REMARK  5 active torsions:
REMARK  status: ('A' for Active; 'I' for Inactive)
REMARK    1  A    between atoms: N_1  and  C_9
REMARK    2  A    between atoms: N_2  and  C_13
REMARK    3  A    between atoms: C_4  and  C_8
REMARK    4  A    between atoms: C_9  and  C_10
REMARK    5  A    between atoms: C_14  and  C_21
REMARK                            x       y       z     vdW  Elec       q    Type
REMARK                         _______ _______ _______ _____ _____    ______ ____
ROOT
ATOM      1  N   UNL     1      -5.032 -11.123  17.653  0.00  0.00    -0.297 NA
ATOM      4  C   UNL     1      -6.982 -10.304  18.666  0.00  0.00    +0.070 C 
ATOM      5  C   UNL     1      -5.956 -10.676  19.750  0.00  0.00    +0.028 C 
ATOM      6  C   UNL     1      -6.466 -10.989  17.392  0.00  0.00    +0.096 C 
ATOM      7  C   UNL     1      -4.941 -11.566  19.045  0.00  0.00    +0.085 C 
ENDROOT
BRANCH   4   8
ATOM      2  N   UNL     1      -9.475 -10.031  18.416  0.00  0.00    -0.330 N 
ATOM      3  N   UNL     1      -8.795 -11.600  19.836  0.00  0.00    -0.232 NA
ATOM      8  C   UNL     1      -8.412 -10.668  18.993  0.00  0.00    +0.115 A 
ATOM     11  C   UNL     1     -10.621 -10.589  18.920  0.00  0.00    +0.069 A 
ATOM     12  C   UNL     1     -10.171 -11.566  19.804  0.00  0.00    +0.089 A 
ATOM     13  C   UNL     1      -9.408  -8.959  17.448  0.00  0.00    +0.150 C 
ATOM     15  C   UNL     1     -11.973 -10.332  18.686  0.00  0.00    +0.028 A 
ATOM     17  C   UNL     1     -11.110 -12.342  20.504  0.00  0.00    +0.030 A 
ATOM     19  C   UNL     1     -12.893 -11.113  19.392  0.00  0.00    +0.002 A 
ATOM     20  C   UNL     1     -12.472 -12.101  20.285  0.00  0.00    +0.002 A 
ENDBRANCH   4   8
BRANCH   1   9
ATOM      9  C   UNL     1      -4.385 -12.049  16.735  0.00  0.00    +0.119 C 
BRANCH   9  10
ATOM     10  C   UNL     1      -3.394 -11.352  15.841  0.00  0.00    -0.030 A 
ATOM     14  C   UNL     1      -3.645 -11.188  14.480  0.00  0.00    -0.046 A 
ATOM     16  C   UNL     1      -2.209 -10.864  16.395  0.00  0.00    +0.005 A 
ATOM     18  C   UNL     1      -2.714 -10.538  13.670  0.00  0.00    +0.003 A 
ATOM     21  C   UNL     1      -4.907 -11.700  13.864  0.00  0.00    +0.044 C 
ATOM     22  C   UNL     1      -1.277 -10.215  15.585  0.00  0.00    +0.000 A 
ATOM     23  C   UNL     1      -1.530 -10.052  14.224  0.00  0.00    +0.000 A 
ENDBRANCH   9  10
ENDBRANCH   1   9
TORSDOF 3
ENDMDL
MODEL 5
REMARK VINA RESULT:      -6.0     17.904     21.431
REMARK  Name = 51137893
REMARK  5 active torsions:
REMARK  status: ('A' for Active; 'I' for Inactive)
REMARK    1  A    between atoms: N_1  and  C_9
REMARK    2  A    between atoms: N_2  and  C_13
REMARK    3  A    between atoms: C_4  and  C_8
REMARK    4  A    between atoms: C_9  and  C_10
REMARK    5  A    between atoms: C_14  and  C_21
REMARK                            x       y       z     vdW  Elec       q    Type
REMARK                         _______ _______ _______ _____ _____    ______ ____
ROOT
ATOM      1  N   UNL     1      21.637   5.874  21.748  0.00  0.00    -0.297 NA
ATOM      4  C   UNL     1      19.812   6.861  20.652  0.00  0.00    +0.070 C 
ATOM      5  C   UNL     1      20.713   7.959  21.244  0.00  0.00    +0.028 C 
ATOM      6  C   UNL     1      20.258   5.571  21.357  0.00  0.00    +0.096 C 
ATOM      7  C   UNL     1      21.591   7.243  22.262  0.00  0.00    +0.085 C 
ENDROOT
BRANCH   4   8
ATOM      2  N   UNL     1      17.412   6.510  19.968  0.00  0.00    -0.330 N 
ATOM      3  N   UNL     1      17.760   7.925  21.647  0.00  0.00    -0.232 NA
ATOM      8  C   UNL     1      18.329   7.119  20.779  0.00  0.00    +0.115 A 
ATOM     11  C   UNL     1      16.168   6.954  20.336  0.00  0.00    +0.069 A 
ATOM     12  C   UNL     1      16.411   7.836  21.386  0.00  0.00    +0.089 A 
ATOM     13  C   UNL     1      17.698   5.569  18.909  0.00  0.00    +0.150 C 
ATOM     15  C   UNL     1      14.889   6.668  19.856  0.00  0.00    +0.028 A 
ATOM     17  C   UNL     1      15.327   8.479  22.006  0.00  0.00    +0.030 A 
ATOM     19  C   UNL     1      13.822   7.318  20.484  0.00  0.00    +0.002 A 
ATOM     20  C   UNL     1      14.034   8.207  21.540  0.00  0.00    +0.002 A 
ENDBRANCH   4   8
BRANCH   1   9
ATOM      9  C   UNL     1      22.155   4.931  22.728  0.00  0.00    +0.119 C 
BRANCH   9  10
ATOM     10  C   UNL     1      23.009   3.869  22.088  0.00  0.00    -0.030 A 
ATOM     14  C   UNL     1      23.213   2.639  22.712  0.00  0.00    -0.046 A 
ATOM     16  C   UNL     1      23.598   4.129  20.850  0.00  0.00    +0.005 A 
ATOM     18  C   UNL     1      24.007   1.669  22.100  0.00  0.00    +0.003 A 
ATOM     21  C   UNL     1      22.593   2.337  24.037  0.00  0.00    +0.044 C 
ATOM     22  C   UNL     1      24.393   3.159  20.238  0.00  0.00    +0.000 A 
ATOM     23  C   UNL     1      24.597   1.930  20.864  0.00  0.00    +0.000 A 
ENDBRANCH   9  10
ENDBRANCH   1   9
TORSDOF 3
ENDMDL
MODEL 6
REMARK VINA RESULT:      -5.9     24.157     27.282
REMARK  Name = 51137893
REMARK  5 active torsions:
REMARK  status: ('A' for Active; 'I' for Inactive)
REMARK    1  A    between atoms: N_1  and  C_9
REMARK    2  A    between atoms: N_2  and  C_13
REMARK    3  A    between atoms: C_4  and  C_8
REMARK    4  A    between atoms: C_9  and  C_10
REMARK    5  A    between atoms: C_14  and  C_21
REMARK                            x       y       z     vdW  Elec       q    Type
REMARK                         _______ _______ _______ _____ _____    ______ ____
ROOT
ATOM      1  N   UNL     1      -9.262  -9.396  16.988  0.00  0.00    -0.297 NA
ATOM      4  C   UNL     1      -7.557 -10.625  15.946  0.00  0.00    +0.070 C 
ATOM      5  C   UNL     1      -8.012 -11.354  17.223  0.00  0.00    +0.028 C 
ATOM      6  C   UNL     1      -8.122  -9.205  16.088  0.00  0.00    +0.096 C 
ATOM      7  C   UNL     1      -8.776 -10.308  18.023  0.00  0.00    +0.085 C 
ENDROOT
BRANCH   4   8
ATOM      2  N   UNL     1      -5.537 -10.610  14.440  0.00  0.00    -0.330 N 
ATOM      3  N   UNL     1      -5.134 -10.697  16.624  0.00  0.00    -0.232 NA
ATOM      8  C   UNL     1      -6.067 -10.645  15.700  0.00  0.00    +0.115 A 
ATOM     11  C   UNL     1      -4.171 -10.642  14.559  0.00  0.00    +0.069 A 
ATOM     12  C   UNL     1      -3.945 -10.695  15.932  0.00  0.00    +0.089 A 
ATOM     13  C   UNL     1      -6.279 -10.553  13.201  0.00  0.00    +0.150 C 
ATOM     15  C   UNL     1      -3.145 -10.628  13.613  0.00  0.00    +0.028 A 
ATOM     17  C   UNL     1      -2.623 -10.737  16.407  0.00  0.00    +0.030 A 
ATOM     19  C   UNL     1      -1.837 -10.671  14.104  0.00  0.00    +0.002 A 
ATOM     20  C   UNL     1      -1.578 -10.725  15.475  0.00  0.00    +0.002 A 
ENDBRANCH   4   8
BRANCH   1   9
ATOM      9  C   UNL     1      -9.749  -8.141  17.540  0.00  0.00    +0.119 C 
BRANCH   9  10
ATOM     10  C   UNL     1     -10.881  -7.571  16.726  0.00  0.00    -0.030 A 
ATOM     14  C   UNL     1     -12.164  -8.111  16.803  0.00  0.00    -0.046 A 
ATOM     16  C   UNL     1     -10.631  -6.485  15.886  0.00  0.00    +0.005 A 
ATOM     18  C   UNL     1     -13.197  -7.568  16.041  0.00  0.00    +0.003 A 
ATOM     21  C   UNL     1     -12.456  -9.273  17.695  0.00  0.00    +0.044 C 
ATOM     22  C   UNL     1     -11.664  -5.942  15.123  0.00  0.00    +0.000 A 
ATOM     23  C   UNL     1     -12.947  -6.483  15.201  0.00  0.00    +0.000 A 
ENDBRANCH   9  10
ENDBRANCH   1   9
TORSDOF 3
ENDMDL
MODEL 7
REMARK VINA RESULT:      -5.8     13.379     16.067
REMARK  Name = 51137893
REMARK  5 active torsions:
REMARK  status: ('A' for Active; 'I' for Inactive)
REMARK    1  A    between atoms: N_1  and  C_9
REMARK    2  A    between atoms: N_2  and  C_13
REMARK    3  A    between atoms: C_4  and  C_8
REMARK    4  A    between atoms: C_9  and  C_10
REMARK    5  A    between atoms: C_14  and  C_21
REMARK                            x       y       z     vdW  Elec       q    Type
REMARK                         _______ _______ _______ _____ _____    ______ ____
ROOT
ATOM      1  N   UNL     1      -2.303  11.000   5.857  0.00  0.00    -0.297 NA
ATOM      4  C   UNL     1      -1.460  12.096   7.752  0.00  0.00    +0.070 C 
ATOM      5  C   UNL     1      -2.011  13.134   6.759  0.00  0.00    +0.028 C 
ATOM      6  C   UNL     1      -1.325  10.806   6.930  0.00  0.00    +0.096 C 
ATOM      7  C   UNL     1      -2.129  12.390   5.435  0.00  0.00    +0.085 C 
ENDROOT
BRANCH   4   8
ATOM      2  N   UNL     1      -0.163  13.107   9.662  0.00  0.00    -0.330 N 
ATOM      3  N   UNL     1       1.038  12.311   7.970  0.00  0.00    -0.232 NA
ATOM      8  C   UNL     1      -0.175  12.495   8.439  0.00  0.00    +0.115 A 
ATOM     11  C   UNL     1       1.145  13.334  10.003  0.00  0.00    +0.069 A 
ATOM     12  C   UNL     1       1.876  12.828   8.931  0.00  0.00    +0.089 A 
ATOM     13  C   UNL     1      -1.320  13.456  10.455  0.00  0.00    +0.150 C 
ATOM     15  C   UNL     1       1.735  13.920  11.124  0.00  0.00    +0.028 A 
ATOM     17  C   UNL     1       3.279  12.903   8.962  0.00  0.00    +0.030 A 
ATOM     19  C   UNL     1       3.132  13.987  11.137  0.00  0.00    +0.002 A 
ATOM     20  C   UNL     1       3.892  13.487  10.077  0.00  0.00    +0.002 A 
ENDBRANCH   4   8
BRANCH   1   9
ATOM      9  C   UNL     1      -2.116  10.061   4.761  0.00  0.00    +0.119 C 
BRANCH   9  10
ATOM     10  C   UNL     1      -3.197   9.013   4.730  0.00  0.00    -0.030 A 
ATOM     14  C   UNL     1      -4.410   9.251   4.087  0.00  0.00    -0.046 A 
ATOM     16  C   UNL     1      -2.968   7.787   5.357  0.00  0.00    +0.005 A 
ATOM     18  C   UNL     1      -5.397   8.265   4.070  0.00  0.00    +0.003 A 
ATOM     21  C   UNL     1      -4.678  10.554   3.408  0.00  0.00    +0.044 C 
ATOM     22  C   UNL     1      -3.956   6.801   5.341  0.00  0.00    +0.000 A 
ATOM     23  C   UNL     1      -5.169   7.041   4.697  0.00  0.00    +0.000 A 
ENDBRANCH   9  10
ENDBRANCH   1   9
TORSDOF 3
ENDMDL
MODEL 8
REMARK VINA RESULT:      -5.8     22.475     26.342
REMARK  Name = 51137893
REMARK  5 active torsions:
REMARK  status: ('A' for Active; 'I' for Inactive)
REMARK    1  A    between atoms: N_1  and  C_9
REMARK    2  A    between atoms: N_2  and  C_13
REMARK    3  A    between atoms: C_4  and  C_8
REMARK    4  A    between atoms: C_9  and  C_10
REMARK    5  A    between atoms: C_14  and  C_21
REMARK                            x       y       z     vdW  Elec       q    Type
REMARK                         _______ _______ _______ _____ _____    ______ ____
ROOT
ATOM      1  N   UNL     1      16.922  -8.613  26.193  0.00  0.00    -0.297 NA
ATOM      4  C   UNL     1      18.026  -6.689  25.429  0.00  0.00    +0.070 C 
ATOM      5  C   UNL     1      18.181  -6.800  26.956  0.00  0.00    +0.028 C 
ATOM      6  C   UNL     1      16.886  -7.658  25.084  0.00  0.00    +0.096 C 
ATOM      7  C   UNL     1      17.111  -7.792  27.390  0.00  0.00    +0.085 C 
ENDROOT
BRANCH   4   8
ATOM      2  N   UNL     1      18.155  -4.903  23.656  0.00  0.00    -0.330 N 
ATOM      3  N   UNL     1      17.218  -4.310  25.582  0.00  0.00    -0.232 NA
ATOM      8  C   UNL     1      17.786  -5.289  24.915  0.00  0.00    +0.115 A 
ATOM     11  C   UNL     1      17.802  -3.587  23.502  0.00  0.00    +0.069 A 
ATOM     12  C   UNL     1      17.219  -3.240  24.717  0.00  0.00    +0.089 A 
ATOM     13  C   UNL     1      18.803  -5.729  22.663  0.00  0.00    +0.150 C 
ATOM     15  C   UNL     1      17.938  -2.697  22.435  0.00  0.00    +0.028 A 
ATOM     17  C   UNL     1      16.737  -1.932  24.898  0.00  0.00    +0.030 A 
ATOM     19  C   UNL     1      17.454  -1.400  22.632  0.00  0.00    +0.002 A 
ATOM     20  C   UNL     1      16.863  -1.022  23.841  0.00  0.00    +0.002 A 
ENDBRANCH   4   8
BRANCH   1   9
ATOM      9  C   UNL     1      15.718  -9.427  26.265  0.00  0.00    +0.119 C 
BRANCH   9  10
ATOM     10  C   UNL     1      15.867 -10.716  25.501  0.00  0.00    -0.030 A 
ATOM     14  C   UNL     1      14.823 -11.214  24.722  0.00  0.00    -0.046 A 
ATOM     16  C   UNL     1      17.072 -11.414  25.580  0.00  0.00    +0.005 A 
ATOM     18  C   UNL     1      14.983 -12.410  24.023  0.00  0.00    +0.003 A 
ATOM     21  C   UNL     1      13.523 -10.484  24.621  0.00  0.00    +0.044 C 
ATOM     22  C   UNL     1      17.231 -12.611  24.882  0.00  0.00    +0.000 A 
ATOM     23  C   UNL     1      16.187 -13.108  24.103  0.00  0.00    +0.000 A 
ENDBRANCH   9  10
ENDBRANCH   1   9
TORSDOF 3
ENDMDL
MODEL 9
REMARK VINA RESULT:      -5.8     28.439     32.368
REMARK  Name = 51137893
REMARK  5 active torsions:
REMARK  status: ('A' for Active; 'I' for Inactive)
REMARK    1  A    between atoms: N_1  and  C_9
REMARK    2  A    between atoms: N_2  and  C_13
REMARK    3  A    between atoms: C_4  and  C_8
REMARK    4  A    between atoms: C_9  and  C_10
REMARK    5  A    between atoms: C_14  and  C_21
REMARK                            x       y       z     vdW  Elec       q    Type
REMARK                         _______ _______ _______ _____ _____    ______ ____
ROOT
ATOM      1  N   UNL     1      -8.929 -11.320  18.866  0.00  0.00    -0.297 NA
ATOM      4  C   UNL     1     -10.867 -11.857  20.075  0.00  0.00    +0.070 C 
ATOM      5  C   UNL     1     -10.860 -12.628  18.743  0.00  0.00    +0.028 C 
ATOM      6  C   UNL     1      -9.810 -10.758  19.892  0.00  0.00    +0.096 C 
ATOM      7  C   UNL     1      -9.832 -11.913  17.878  0.00  0.00    +0.085 C 
ENDROOT
BRANCH   4   8
ATOM      2  N   UNL     1     -13.061 -12.013  21.305  0.00  0.00    -0.330 N 
ATOM      3  N   UNL     1     -12.723 -10.157  20.130  0.00  0.00    -0.232 NA
ATOM      8  C   UNL     1     -12.216 -11.315  20.488  0.00  0.00    +0.115 A 
ATOM     11  C   UNL     1     -14.189 -11.255  21.486  0.00  0.00    +0.069 A 
ATOM     12  C   UNL     1     -13.954 -10.101  20.743  0.00  0.00    +0.089 A 
ATOM     13  C   UNL     1     -12.815 -13.318  21.876  0.00  0.00    +0.150 C 
ATOM     15  C   UNL     1     -15.360 -11.472  22.213  0.00  0.00    +0.028 A 
ATOM     17  C   UNL     1     -14.933  -9.094  20.713  0.00  0.00    +0.030 A 
ATOM     19  C   UNL     1     -16.324 -10.459  22.172  0.00  0.00    +0.002 A 
ATOM     20  C   UNL     1     -16.116  -9.290  21.436  0.00  0.00    +0.002 A 
ENDBRANCH   4   8
BRANCH   1   9
ATOM      9  C   UNL     1      -8.048 -10.320  18.282  0.00  0.00    +0.119 C 
BRANCH   9  10
ATOM     10  C   UNL     1      -6.608 -10.758  18.309  0.00  0.00    -0.030 A 
ATOM     14  C   UNL     1      -5.737 -10.426  17.272  0.00  0.00    -0.046 A 
ATOM     16  C   UNL     1      -6.147 -11.504  19.395  0.00  0.00    +0.005 A 
ATOM     18  C   UNL     1      -4.406 -10.841  17.318  0.00  0.00    +0.003 A 
ATOM     21  C   UNL     1      -6.207  -9.628  16.100  0.00  0.00    +0.044 C 
ATOM     22  C   UNL     1      -4.816 -11.920  19.440  0.00  0.00    +0.000 A 
ATOM     23  C   UNL     1      -3.946 -11.587  18.402  0.00  0.00    +0.000 A 
ENDBRANCH   9  10
ENDBRANCH   1   9
TORSDOF 3
ENDMDL
MODEL 10
REMARK VINA RESULT:      -5.8     22.698     27.936
REMARK  Name = 51137893
REMARK  5 active torsions:
REMARK  status: ('A' for Active; 'I' for Inactive)
REMARK    1  A    between atoms: N_1  and  C_9
REMARK    2  A    between atoms: N_2  and  C_13
REMARK    3  A    between atoms: C_4  and  C_8
REMARK    4  A    between atoms: C_9  and  C_10
REMARK    5  A    between atoms: C_14  and  C_21
REMARK                            x       y       z     vdW  Elec       q    Type
REMARK                         _______ _______ _______ _____ _____    ______ ____
ROOT
ATOM      1  N   UNL     1      19.341  -2.829  26.488  0.00  0.00    -0.297 NA
ATOM      4  C   UNL     1      18.225  -2.744  28.550  0.00  0.00    +0.070 C 
ATOM      5  C   UNL     1      19.682  -3.188  28.771  0.00  0.00    +0.028 C 
ATOM      6  C   UNL     1      17.989  -2.922  27.043  0.00  0.00    +0.096 C 
ATOM      7  C   UNL     1      20.176  -3.617  27.396  0.00  0.00    +0.085 C 
ENDROOT
BRANCH   4   8
ATOM      2  N   UNL     1      16.537  -2.852  30.417  0.00  0.00    -0.330 N 
ATOM      3  N   UNL     1      16.849  -4.726  29.264  0.00  0.00    -0.232 NA
ATOM      8  C   UNL     1      17.205  -3.469  29.397  0.00  0.00    +0.115 A 
ATOM     11  C   UNL     1      15.692  -3.773  30.982  0.00  0.00    +0.069 A 
ATOM     12  C   UNL     1      15.905  -4.935  30.244  0.00  0.00    +0.089 A 
ATOM     13  C   UNL     1      16.690  -1.476  30.833  0.00  0.00    +0.150 C 
ATOM     15  C   UNL     1      14.788  -3.694  32.041  0.00  0.00    +0.028 A 
ATOM     17  C   UNL     1      15.182  -6.095  30.569  0.00  0.00    +0.030 A 
ATOM     19  C   UNL     1      14.077  -4.857  32.351  0.00  0.00    +0.002 A 
ATOM     20  C   UNL     1      14.268  -6.038  31.629  0.00  0.00    +0.002 A 
ENDBRANCH   4   8
BRANCH   1   9
ATOM      9  C   UNL     1      19.412  -3.307  25.116  0.00  0.00    +0.119 C 
BRANCH   9  10
ATOM     10  C   UNL     1      18.268  -2.792  24.283  0.00  0.00    -0.030 A 
ATOM     14  C   UNL     1      17.312  -3.662  23.762  0.00  0.00    -0.046 A 
ATOM     16  C   UNL     1      18.173  -1.422  24.037  0.00  0.00    +0.005 A 
ATOM     18  C   UNL     1      16.260  -3.164  22.993  0.00  0.00    +0.003 A 
ATOM     21  C   UNL     1      17.392  -5.133  24.012  0.00  0.00    +0.044 C 
ATOM     22  C   UNL     1      17.122  -0.924  23.267  0.00  0.00    +0.000 A 
ATOM     23  C   UNL     1      16.165  -1.794  22.747  0.00  0.00    +0.000 A 
ENDBRANCH   9  10
ENDBRANCH   1   9
TORSDOF 3
ENDMDL
