MODEL 1
REMARK VINA RESULT:      -7.6      0.000      0.000
REMARK  Name = 51137093
REMARK  6 active torsions:
REMARK  status: ('A' for Active; 'I' for Inactive)
REMARK    1  A    between atoms: O_1  and  C_25
REMARK    2  A    between atoms: N_3  and  C_11
REMARK    3  A    between atoms: C_6  and  C_10
REMARK    4  A    between atoms: C_11  and  C_12
REMARK    5  A    between atoms: C_19  and  C_24
REMARK    6  A    between atoms: C_23  and  C_25
REMARK                            x       y       z     vdW  Elec       q    Type
REMARK                         _______ _______ _______ _____ _____    ______ ____
ROOT
ATOM      3  N   UNL     1      10.817   5.796   4.098  0.00  0.00    -0.297 NA
ATOM      6  C   UNL     1      11.974   4.748   2.349  0.00  0.00    +0.070 C 
ATOM      7  C   UNL     1      12.513   6.176   2.539  0.00  0.00    +0.028 C 
ATOM      8  C   UNL     1      10.641   4.731   3.108  0.00  0.00    +0.096 C 
ATOM      9  C   UNL     1      11.451   6.891   3.365  0.00  0.00    +0.085 C 
ENDROOT
BRANCH   6  10
ATOM      4  N   UNL     1      10.851   4.811   0.104  0.00  0.00    -0.342 N 
ATOM      5  N   UNL     1      12.592   3.440   0.276  0.00  0.00    -0.232 NA
ATOM     10  C   UNL     1      11.836   4.308   0.909  0.00  0.00    +0.113 A 
ATOM     13  C   UNL     1      10.982   4.228  -1.131  0.00  0.00    +0.066 A 
ATOM     14  C   UNL     1      12.075   3.377  -0.997  0.00  0.00    +0.089 A 
ATOM     15  C   UNL     1      10.259   4.369  -2.316  0.00  0.00    +0.031 A 
ATOM     18  C   UNL     1      12.486   2.612  -2.103  0.00  0.00    +0.030 A 
ATOM     19  C   UNL     1      10.683   3.600  -3.405  0.00  0.00    -0.048 A 
ATOM     20  C   UNL     1      11.775   2.737  -3.303  0.00  0.00    +0.005 A 
ATOM     24  C   UNL     1       9.950   3.707  -4.703  0.00  0.00    +0.044 C 
ATOM     26  H   UNL     1      10.151   5.491   0.368  0.00  0.00    +0.167 HD
ENDBRANCH   6  10
BRANCH   3  11
ATOM     11  C   UNL     1       9.560   6.196   4.714  0.00  0.00    +0.119 C 
BRANCH  11  12
ATOM     12  C   UNL     1       9.505   5.820   6.171  0.00  0.00    -0.033 A 
ATOM     16  C   UNL     1       9.860   4.532   6.572  0.00  0.00    +0.006 A 
ATOM     17  C   UNL     1       9.097   6.759   7.119  0.00  0.00    +0.006 A 
ATOM     21  C   UNL     1       9.808   4.183   7.921  0.00  0.00    +0.015 A 
ATOM     22  C   UNL     1       9.046   6.411   8.468  0.00  0.00    +0.015 A 
ATOM     23  C   UNL     1       9.402   5.122   8.870  0.00  0.00    +0.059 A 
BRANCH  23  25
ATOM      2  O   UNL     1      10.315   4.426  10.968  0.00  0.00    -0.245 OA
ATOM     25  C   UNL     1       9.348   4.759  10.277  0.00  0.00    +0.337 C 
BRANCH  25   1
ATOM      1  O   UNL     1       8.086   4.825  10.783  0.00  0.00    -0.477 OA
ATOM     27  H   UNL     1       8.088   4.895  11.761  0.00  0.00    +0.295 HD
ENDBRANCH  25   1
ENDBRANCH  23  25
ENDBRANCH  11  12
ENDBRANCH   3  11
TORSDOF 5
ENDMDL
MODEL 2
REMARK VINA RESULT:      -7.3     17.952     20.758
REMARK  Name = 51137093
REMARK  6 active torsions:
REMARK  status: ('A' for Active; 'I' for Inactive)
REMARK    1  A    between atoms: O_1  and  C_25
REMARK    2  A    between atoms: N_3  and  C_11
REMARK    3  A    between atoms: C_6  and  C_10
REMARK    4  A    between atoms: C_11  and  C_12
REMARK    5  A    between atoms: C_19  and  C_24
REMARK    6  A    between atoms: C_23  and  C_25
REMARK                            x       y       z     vdW  Elec       q    Type
REMARK                         _______ _______ _______ _____ _____    ______ ____
ROOT
ATOM      3  N   UNL     1      14.362   7.182  20.463  0.00  0.00    -0.297 NA
ATOM      6  C   UNL     1      13.126   8.522  21.938  0.00  0.00    +0.070 C 
ATOM      7  C   UNL     1      12.216   7.430  21.351  0.00  0.00    +0.028 C 
ATOM      8  C   UNL     1      14.358   8.536  21.023  0.00  0.00    +0.096 C 
ATOM      9  C   UNL     1      12.964   6.908  20.131  0.00  0.00    +0.085 C 
ENDROOT
BRANCH   6  10
ATOM      4  N   UNL     1      11.976  10.313  23.269  0.00  0.00    -0.342 N 
ATOM      5  N   UNL     1      12.322  10.776  21.123  0.00  0.00    -0.232 NA
ATOM     10  C   UNL     1      12.479   9.882  22.073  0.00  0.00    +0.113 A 
ATOM     13  C   UNL     1      11.461  11.571  23.077  0.00  0.00    +0.066 A 
ATOM     14  C   UNL     1      11.690  11.836  21.730  0.00  0.00    +0.089 A 
ATOM     15  C   UNL     1      10.834  12.469  23.941  0.00  0.00    +0.031 A 
ATOM     18  C   UNL     1      11.274  13.067  21.195  0.00  0.00    +0.030 A 
ATOM     19  C   UNL     1      10.427  13.689  23.391  0.00  0.00    -0.048 A 
ATOM     20  C   UNL     1      10.642  13.985  22.043  0.00  0.00    +0.005 A 
ATOM     24  C   UNL     1       9.751  14.695  24.265  0.00  0.00    +0.044 C 
ATOM     26  H   UNL     1      11.982   9.801  24.141  0.00  0.00    +0.167 HD
ENDBRANCH   6  10
BRANCH   3  11
ATOM     11  C   UNL     1      15.241   7.060  19.310  0.00  0.00    +0.119 C 
BRANCH  11  12
ATOM     12  C   UNL     1      16.627   6.626  19.703  0.00  0.00    -0.033 A 
ATOM     16  C   UNL     1      17.241   7.187  20.824  0.00  0.00    +0.006 A 
ATOM     17  C   UNL     1      17.298   5.664  18.948  0.00  0.00    +0.006 A 
ATOM     21  C   UNL     1      18.526   6.785  21.188  0.00  0.00    +0.015 A 
ATOM     22  C   UNL     1      18.583   5.262  19.313  0.00  0.00    +0.015 A 
ATOM     23  C   UNL     1      19.197   5.822  20.434  0.00  0.00    +0.059 A 
BRANCH  23  25
ATOM      2  O   UNL     1      20.998   5.431  21.959  0.00  0.00    -0.245 OA
ATOM     25  C   UNL     1      20.536   5.403  20.814  0.00  0.00    +0.337 C 
BRANCH  25   1
ATOM      1  O   UNL     1      21.263   4.956  19.753  0.00  0.00    -0.477 OA
ATOM     27  H   UNL     1      20.741   4.354  19.181  0.00  0.00    +0.295 HD
ENDBRANCH  25   1
ENDBRANCH  23  25
ENDBRANCH  11  12
ENDBRANCH   3  11
TORSDOF 5
ENDMDL
MODEL 3
REMARK VINA RESULT:      -7.3     27.705     32.884
REMARK  Name = 51137093
REMARK  6 active torsions:
REMARK  status: ('A' for Active; 'I' for Inactive)
REMARK    1  A    between atoms: O_1  and  C_25
REMARK    2  A    between atoms: N_3  and  C_11
REMARK    3  A    between atoms: C_6  and  C_10
REMARK    4  A    between atoms: C_11  and  C_12
REMARK    5  A    between atoms: C_19  and  C_24
REMARK    6  A    between atoms: C_23  and  C_25
REMARK                            x       y       z     vdW  Elec       q    Type
REMARK                         _______ _______ _______ _____ _____    ______ ____
ROOT
ATOM      3  N   UNL     1     -14.781   6.324  21.647  0.00  0.00    -0.297 NA
ATOM      6  C   UNL     1     -15.572   4.312  22.556  0.00  0.00    +0.070 C 
ATOM      7  C   UNL     1     -16.749   5.109  21.967  0.00  0.00    +0.028 C 
ATOM      8  C   UNL     1     -14.429   5.331  22.664  0.00  0.00    +0.096 C 
ATOM      9  C   UNL     1     -16.222   6.528  21.802  0.00  0.00    +0.085 C 
ENDROOT
BRANCH   6  10
ATOM      4  N   UNL     1     -15.708   4.263  25.062  0.00  0.00    -0.342 N 
ATOM      5  N   UNL     1     -16.286   2.384  24.025  0.00  0.00    -0.232 NA
ATOM     10  C   UNL     1     -15.866   3.618  23.866  0.00  0.00    +0.113 A 
ATOM     13  C   UNL     1     -16.050   3.384  26.059  0.00  0.00    +0.066 A 
ATOM     14  C   UNL     1     -16.406   2.220  25.386  0.00  0.00    +0.089 A 
ATOM     15  C   UNL     1     -16.075   3.506  27.449  0.00  0.00    +0.031 A 
ATOM     18  C   UNL     1     -16.816   1.098  26.128  0.00  0.00    +0.030 A 
ATOM     19  C   UNL     1     -16.486   2.381  28.171  0.00  0.00    -0.048 A 
ATOM     20  C   UNL     1     -16.850   1.198  27.525  0.00  0.00    +0.005 A 
ATOM     24  C   UNL     1     -16.536   2.449  29.663  0.00  0.00    +0.044 C 
ATOM     26  H   UNL     1     -15.396   5.216  25.192  0.00  0.00    +0.167 HD
ENDBRANCH   6  10
BRANCH   3  11
ATOM     11  C   UNL     1     -14.028   7.561  21.792  0.00  0.00    +0.119 C 
BRANCH  11  12
ATOM     12  C   UNL     1     -13.094   7.788  20.634  0.00  0.00    -0.033 A 
ATOM     16  C   UNL     1     -11.733   7.990  20.865  0.00  0.00    +0.006 A 
ATOM     17  C   UNL     1     -13.589   7.797  19.329  0.00  0.00    +0.006 A 
ATOM     21  C   UNL     1     -10.868   8.202  19.791  0.00  0.00    +0.015 A 
ATOM     22  C   UNL     1     -12.724   8.008  18.256  0.00  0.00    +0.015 A 
ATOM     23  C   UNL     1     -11.362   8.210  18.487  0.00  0.00    +0.059 A 
BRANCH  23  25
ATOM      2  O   UNL     1     -10.573   7.922  16.247  0.00  0.00    -0.245 OA
ATOM     25  C   UNL     1     -10.460   8.430  17.368  0.00  0.00    +0.337 C 
BRANCH  25   1
ATOM      1  O   UNL     1      -9.444   9.280  17.678  0.00  0.00    -0.477 OA
ATOM     27  H   UNL     1      -9.768  10.190  17.849  0.00  0.00    +0.295 HD
ENDBRANCH  25   1
ENDBRANCH  23  25
ENDBRANCH  11  12
ENDBRANCH   3  11
TORSDOF 5
ENDMDL
MODEL 4
REMARK VINA RESULT:      -7.2     22.078     25.927
REMARK  Name = 51137093
REMARK  6 active torsions:
REMARK  status: ('A' for Active; 'I' for Inactive)
REMARK    1  A    between atoms: O_1  and  C_25
REMARK    2  A    between atoms: N_3  and  C_11
REMARK    3  A    between atoms: C_6  and  C_10
REMARK    4  A    between atoms: C_11  and  C_12
REMARK    5  A    between atoms: C_19  and  C_24
REMARK    6  A    between atoms: C_23  and  C_25
REMARK                            x       y       z     vdW  Elec       q    Type
REMARK                         _______ _______ _______ _____ _____    ______ ____
ROOT
ATOM      3  N   UNL     1      -1.951 -10.937  13.860  0.00  0.00    -0.297 NA
ATOM      6  C   UNL     1      -3.088 -10.187  15.769  0.00  0.00    +0.070 C 
ATOM      7  C   UNL     1      -1.690 -10.691  16.167  0.00  0.00    +0.028 C 
ATOM      8  C   UNL     1      -3.316 -10.747  14.358  0.00  0.00    +0.096 C 
ATOM      9  C   UNL     1      -1.219 -11.523  14.982  0.00  0.00    +0.085 C 
ENDROOT
BRANCH   6  10
ATOM      4  N   UNL     1      -5.444 -10.014  16.617  0.00  0.00    -0.342 N 
ATOM      5  N   UNL     1      -4.110 -11.388  17.745  0.00  0.00    -0.232 NA
ATOM     10  C   UNL     1      -4.194 -10.555  16.732  0.00  0.00    +0.113 A 
ATOM     13  C   UNL     1      -6.220 -10.535  17.622  0.00  0.00    +0.066 A 
ATOM     14  C   UNL     1      -5.364 -11.389  18.311  0.00  0.00    +0.089 A 
ATOM     15  C   UNL     1      -7.555 -10.336  17.976  0.00  0.00    +0.031 A 
ATOM     18  C   UNL     1      -5.852 -12.097  19.423  0.00  0.00    +0.030 A 
ATOM     19  C   UNL     1      -8.023 -11.049  19.085  0.00  0.00    -0.048 A 
ATOM     20  C   UNL     1      -7.189 -11.913  19.797  0.00  0.00    +0.005 A 
ATOM     24  C   UNL     1      -9.445 -10.880  19.514  0.00  0.00    +0.044 C 
ATOM     26  H   UNL     1      -5.748  -9.350  15.918  0.00  0.00    +0.167 HD
ENDBRANCH   6  10
BRANCH   3  11
ATOM     11  C   UNL     1      -1.905 -11.774  12.670  0.00  0.00    +0.119 C 
BRANCH  11  12
ATOM     12  C   UNL     1      -2.706 -11.185  11.539  0.00  0.00    -0.033 A 
ATOM     16  C   UNL     1      -2.454  -9.882  11.111  0.00  0.00    +0.006 A 
ATOM     17  C   UNL     1      -3.700 -11.943  10.920  0.00  0.00    +0.006 A 
ATOM     21  C   UNL     1      -3.196  -9.337  10.064  0.00  0.00    +0.015 A 
ATOM     22  C   UNL     1      -4.442 -11.398   9.872  0.00  0.00    +0.015 A 
ATOM     23  C   UNL     1      -4.190 -10.094   9.444  0.00  0.00    +0.059 A 
BRANCH  23  25
ATOM      2  O   UNL     1      -5.140 -10.054   7.249  0.00  0.00    -0.245 OA
ATOM     25  C   UNL     1      -4.964  -9.526   8.352  0.00  0.00    +0.337 C 
BRANCH  25   1
ATOM      1  O   UNL     1      -5.499  -8.315   8.668  0.00  0.00    -0.477 OA
ATOM     27  H   UNL     1      -5.789  -7.825   7.869  0.00  0.00    +0.295 HD
ENDBRANCH  25   1
ENDBRANCH  23  25
ENDBRANCH  11  12
ENDBRANCH   3  11
TORSDOF 5
ENDMDL
MODEL 5
REMARK VINA RESULT:      -7.1     15.405     20.414
REMARK  Name = 51137093
REMARK  6 active torsions:
REMARK  status: ('A' for Active; 'I' for Inactive)
REMARK    1  A    between atoms: O_1  and  C_25
REMARK    2  A    between atoms: N_3  and  C_11
REMARK    3  A    between atoms: C_6  and  C_10
REMARK    4  A    between atoms: C_11  and  C_12
REMARK    5  A    between atoms: C_19  and  C_24
REMARK    6  A    between atoms: C_23  and  C_25
REMARK                            x       y       z     vdW  Elec       q    Type
REMARK                         _______ _______ _______ _____ _____    ______ ____
ROOT
ATOM      3  N   UNL     1      12.991   7.194  20.589  0.00  0.00    -0.297 NA
ATOM      6  C   UNL     1      11.644   8.400  22.084  0.00  0.00    +0.070 C 
ATOM      7  C   UNL     1      10.831   8.049  20.826  0.00  0.00    +0.028 C 
ATOM      8  C   UNL     1      13.106   8.167  21.678  0.00  0.00    +0.096 C 
ATOM      9  C   UNL     1      11.869   7.667  19.779  0.00  0.00    +0.085 C 
ENDROOT
BRANCH   6  10
ATOM      4  N   UNL     1      11.358  10.021  23.978  0.00  0.00    -0.342 N 
ATOM      5  N   UNL     1      11.207  10.884  21.935  0.00  0.00    -0.232 NA
ATOM     10  C   UNL     1      11.400   9.787  22.631  0.00  0.00    +0.113 A 
ATOM     13  C   UNL     1      11.123  11.361  24.163  0.00  0.00    +0.066 A 
ATOM     14  C   UNL     1      11.033  11.876  22.873  0.00  0.00    +0.089 A 
ATOM     15  C   UNL     1      10.985  12.139  25.312  0.00  0.00    +0.031 A 
ATOM     18  C   UNL     1      10.791  13.250  22.701  0.00  0.00    +0.030 A 
ATOM     19  C   UNL     1      10.745  13.504  25.121  0.00  0.00    -0.048 A 
ATOM     20  C   UNL     1      10.649  14.051  23.841  0.00  0.00    +0.005 A 
ATOM     24  C   UNL     1      10.589  14.391  26.314  0.00  0.00    +0.044 C 
ATOM     26  H   UNL     1      11.478   9.334  24.710  0.00  0.00    +0.167 HD
ENDBRANCH   6  10
BRANCH   3  11
ATOM     11  C   UNL     1      14.220   7.074  19.819  0.00  0.00    +0.119 C 
BRANCH  11  12
ATOM     12  C   UNL     1      14.261   8.050  18.673  0.00  0.00    -0.033 A 
ATOM     16  C   UNL     1      14.594   9.384  18.905  0.00  0.00    +0.006 A 
ATOM     17  C   UNL     1      13.965   7.619  17.379  0.00  0.00    +0.006 A 
ATOM     21  C   UNL     1      14.632  10.287  17.843  0.00  0.00    +0.015 A 
ATOM     22  C   UNL     1      14.004   8.522  16.317  0.00  0.00    +0.015 A 
ATOM     23  C   UNL     1      14.337   9.857  16.549  0.00  0.00    +0.059 A 
BRANCH  23  25
ATOM      2  O   UNL     1      13.512  10.912  14.567  0.00  0.00    -0.245 OA
ATOM     25  C   UNL     1      14.377  10.799  15.442  0.00  0.00    +0.337 C 
BRANCH  25   1
ATOM      1  O   UNL     1      15.495  11.575  15.459  0.00  0.00    -0.477 OA
ATOM     27  H   UNL     1      16.291  11.075  15.179  0.00  0.00    +0.295 HD
ENDBRANCH  25   1
ENDBRANCH  23  25
ENDBRANCH  11  12
ENDBRANCH   3  11
TORSDOF 5
ENDMDL
MODEL 6
REMARK VINA RESULT:      -6.9     17.897     20.612
REMARK  Name = 51137093
REMARK  6 active torsions:
REMARK  status: ('A' for Active; 'I' for Inactive)
REMARK    1  A    between atoms: O_1  and  C_25
REMARK    2  A    between atoms: N_3  and  C_11
REMARK    3  A    between atoms: C_6  and  C_10
REMARK    4  A    between atoms: C_11  and  C_12
REMARK    5  A    between atoms: C_19  and  C_24
REMARK    6  A    between atoms: C_23  and  C_25
REMARK                            x       y       z     vdW  Elec       q    Type
REMARK                         _______ _______ _______ _____ _____    ______ ____
ROOT
ATOM      3  N   UNL     1      17.892   7.560  20.690  0.00  0.00    -0.297 NA
ATOM      6  C   UNL     1      19.777   6.217  20.314  0.00  0.00    +0.070 C 
ATOM      7  C   UNL     1      18.534   5.537  19.715  0.00  0.00    +0.028 C 
ATOM      8  C   UNL     1      19.217   7.294  21.253  0.00  0.00    +0.096 C 
ATOM      9  C   UNL     1      17.349   6.241  20.364  0.00  0.00    +0.085 C 
ENDROOT
BRANCH   6  10
ATOM      4  N   UNL     1      21.403   4.305  20.308  0.00  0.00    -0.342 N 
ATOM      5  N   UNL     1      21.061   5.277  22.277  0.00  0.00    -0.232 NA
ATOM     10  C   UNL     1      20.744   5.281  21.002  0.00  0.00    +0.113 A 
ATOM     13  C   UNL     1      22.201   3.627  21.195  0.00  0.00    +0.066 A 
ATOM     14  C   UNL     1      21.968   4.252  22.416  0.00  0.00    +0.089 A 
ATOM     15  C   UNL     1      23.076   2.552  21.037  0.00  0.00    +0.031 A 
ATOM     18  C   UNL     1      22.642   3.791  23.561  0.00  0.00    +0.030 A 
ATOM     19  C   UNL     1      23.738   2.107  22.187  0.00  0.00    -0.048 A 
ATOM     20  C   UNL     1      23.526   2.713  23.426  0.00  0.00    +0.005 A 
ATOM     24  C   UNL     1      24.690   0.960  22.083  0.00  0.00    +0.044 C 
ATOM     26  H   UNL     1      21.322   4.115  19.318  0.00  0.00    +0.167 HD
ENDBRANCH   6  10
BRANCH   3  11
ATOM     11  C   UNL     1      17.037   8.300  21.605  0.00  0.00    +0.119 C 
BRANCH  11  12
ATOM     12  C   UNL     1      15.598   8.288  21.163  0.00  0.00    -0.033 A 
ATOM     16  C   UNL     1      14.617   7.753  21.998  0.00  0.00    +0.006 A 
ATOM     17  C   UNL     1      15.246   8.812  19.919  0.00  0.00    +0.006 A 
ATOM     21  C   UNL     1      13.284   7.741  21.588  0.00  0.00    +0.015 A 
ATOM     22  C   UNL     1      13.912   8.801  19.509  0.00  0.00    +0.015 A 
ATOM     23  C   UNL     1      12.931   8.265  20.344  0.00  0.00    +0.059 A 
BRANCH  23  25
ATOM      2  O   UNL     1      10.561   8.323  20.665  0.00  0.00    -0.245 OA
ATOM     25  C   UNL     1      11.541   8.253  19.917  0.00  0.00    +0.337 C 
BRANCH  25   1
ATOM      1  O   UNL     1      11.413   8.157  18.565  0.00  0.00    -0.477 OA
ATOM     27  H   UNL     1      11.393   7.223  18.266  0.00  0.00    +0.295 HD
ENDBRANCH  25   1
ENDBRANCH  23  25
ENDBRANCH  11  12
ENDBRANCH   3  11
TORSDOF 5
ENDMDL
MODEL 7
REMARK VINA RESULT:      -6.8     18.259     20.752
REMARK  Name = 51137093
REMARK  6 active torsions:
REMARK  status: ('A' for Active; 'I' for Inactive)
REMARK    1  A    between atoms: O_1  and  C_25
REMARK    2  A    between atoms: N_3  and  C_11
REMARK    3  A    between atoms: C_6  and  C_10
REMARK    4  A    between atoms: C_11  and  C_12
REMARK    5  A    between atoms: C_19  and  C_24
REMARK    6  A    between atoms: C_23  and  C_25
REMARK                            x       y       z     vdW  Elec       q    Type
REMARK                         _______ _______ _______ _____ _____    ______ ____
ROOT
ATOM      3  N   UNL     1      18.693   7.850  22.029  0.00  0.00    -0.297 NA
ATOM      6  C   UNL     1      20.242   6.176  22.571  0.00  0.00    +0.070 C 
ATOM      7  C   UNL     1      20.702   7.516  23.172  0.00  0.00    +0.028 C 
ATOM      8  C   UNL     1      19.177   6.559  21.535  0.00  0.00    +0.096 C 
ATOM      9  C   UNL     1      19.898   8.576  22.430  0.00  0.00    +0.085 C 
ENDROOT
BRANCH   6  10
ATOM      4  N   UNL     1      22.327   5.877  21.206  0.00  0.00    -0.342 N 
ATOM      5  N   UNL     1      21.514   4.034  22.145  0.00  0.00    -0.232 NA
ATOM     10  C   UNL     1      21.350   5.328  21.989  0.00  0.00    +0.113 A 
ATOM     13  C   UNL     1      23.180   4.868  20.832  0.00  0.00    +0.066 A 
ATOM     14  C   UNL     1      22.650   3.729  21.431  0.00  0.00    +0.089 A 
ATOM     15  C   UNL     1      24.332   4.857  20.045  0.00  0.00    +0.031 A 
ATOM     18  C   UNL     1      23.297   2.495  21.245  0.00  0.00    +0.030 A 
ATOM     19  C   UNL     1      24.961   3.621  19.871  0.00  0.00    -0.048 A 
ATOM     20  C   UNL     1      24.455   2.460  20.458  0.00  0.00    +0.005 A 
ATOM     24  C   UNL     1      26.201   3.543  19.040  0.00  0.00    +0.044 C 
ATOM     26  H   UNL     1      22.411   6.851  20.946  0.00  0.00    +0.167 HD
ENDBRANCH   6  10
BRANCH   3  11
ATOM     11  C   UNL     1      17.918   8.572  21.031  0.00  0.00    +0.119 C 
BRANCH  11  12
ATOM     12  C   UNL     1      16.513   8.042  20.921  0.00  0.00    -0.033 A 
ATOM     16  C   UNL     1      16.154   7.237  19.840  0.00  0.00    +0.006 A 
ATOM     17  C   UNL     1      15.570   8.357  21.900  0.00  0.00    +0.006 A 
ATOM     21  C   UNL     1      14.852   6.747  19.738  0.00  0.00    +0.015 A 
ATOM     22  C   UNL     1      14.268   7.866  21.798  0.00  0.00    +0.015 A 
ATOM     23  C   UNL     1      13.910   7.060  20.717  0.00  0.00    +0.059 A 
BRANCH  23  25
ATOM      2  O   UNL     1      11.757   6.430  21.548  0.00  0.00    -0.245 OA
ATOM     25  C   UNL     1      12.552   6.549  20.611  0.00  0.00    +0.337 C 
BRANCH  25   1
ATOM      1  O   UNL     1      12.224   6.203  19.336  0.00  0.00    -0.477 OA
ATOM     27  H   UNL     1      12.477   5.278  19.132  0.00  0.00    +0.295 HD
ENDBRANCH  25   1
ENDBRANCH  23  25
ENDBRANCH  11  12
ENDBRANCH   3  11
TORSDOF 5
ENDMDL
MODEL 8
REMARK VINA RESULT:      -6.7     26.325     28.008
REMARK  Name = 51137093
REMARK  6 active torsions:
REMARK  status: ('A' for Active; 'I' for Inactive)
REMARK    1  A    between atoms: O_1  and  C_25
REMARK    2  A    between atoms: N_3  and  C_11
REMARK    3  A    between atoms: C_6  and  C_10
REMARK    4  A    between atoms: C_11  and  C_12
REMARK    5  A    between atoms: C_19  and  C_24
REMARK    6  A    between atoms: C_23  and  C_25
REMARK                            x       y       z     vdW  Elec       q    Type
REMARK                         _______ _______ _______ _____ _____    ______ ____
ROOT
ATOM      3  N   UNL     1      -9.164  -9.145  16.656  0.00  0.00    -0.297 NA
ATOM      6  C   UNL     1     -10.580  -7.280  16.517  0.00  0.00    +0.070 C 
ATOM      7  C   UNL     1     -11.114  -8.254  17.581  0.00  0.00    +0.028 C 
ATOM      8  C   UNL     1      -9.571  -8.106  15.707  0.00  0.00    +0.096 C 
ATOM      9  C   UNL     1     -10.406  -9.572  17.301  0.00  0.00    +0.085 C 
ENDROOT
BRANCH   6  10
ATOM      4  N   UNL     1     -11.345  -5.592  14.824  0.00  0.00    -0.342 N 
ATOM      5  N   UNL     1     -12.909  -6.975  15.586  0.00  0.00    -0.232 NA
ATOM     10  C   UNL     1     -11.642  -6.638  15.653  0.00  0.00    +0.113 A 
ATOM     13  C   UNL     1     -12.500  -5.230  14.178  0.00  0.00    +0.066 A 
ATOM     14  C   UNL     1     -13.461  -6.108  14.670  0.00  0.00    +0.089 A 
ATOM     15  C   UNL     1     -12.776  -4.239  13.234  0.00  0.00    +0.031 A 
ATOM     18  C   UNL     1     -14.783  -6.007  14.204  0.00  0.00    +0.030 A 
ATOM     19  C   UNL     1     -14.097  -4.154  12.782  0.00  0.00    -0.048 A 
ATOM     20  C   UNL     1     -15.084  -5.019  13.257  0.00  0.00    +0.005 A 
ATOM     24  C   UNL     1     -14.457  -3.114  11.771  0.00  0.00    +0.044 C 
ATOM     26  H   UNL     1     -10.438  -5.159  14.706  0.00  0.00    +0.167 HD
ENDBRANCH   6  10
BRANCH   3  11
ATOM     11  C   UNL     1      -8.467 -10.246  16.009  0.00  0.00    +0.119 C 
BRANCH  11  12
ATOM     12  C   UNL     1      -7.219 -10.636  16.755  0.00  0.00    -0.033 A 
ATOM     16  C   UNL     1      -6.013  -9.991  16.481  0.00  0.00    +0.006 A 
ATOM     17  C   UNL     1      -7.269 -11.642  17.720  0.00  0.00    +0.006 A 
ATOM     21  C   UNL     1      -4.857 -10.352  17.172  0.00  0.00    +0.015 A 
ATOM     22  C   UNL     1      -6.112 -12.003  18.412  0.00  0.00    +0.015 A 
ATOM     23  C   UNL     1      -4.906 -11.357  18.138  0.00  0.00    +0.059 A 
BRANCH  23  25
ATOM      2  O   UNL     1      -3.666 -12.203  20.001  0.00  0.00    -0.245 OA
ATOM     25  C   UNL     1      -3.700 -11.734  18.859  0.00  0.00    +0.337 C 
BRANCH  25   1
ATOM      1  O   UNL     1      -2.570 -11.517  18.132  0.00  0.00    -0.477 OA
ATOM     27  H   UNL     1      -2.120 -12.357  17.898  0.00  0.00    +0.295 HD
ENDBRANCH  25   1
ENDBRANCH  23  25
ENDBRANCH  11  12
ENDBRANCH   3  11
TORSDOF 5
ENDMDL
MODEL 9
REMARK VINA RESULT:      -6.6      4.837      9.939
REMARK  Name = 51137093
REMARK  6 active torsions:
REMARK  status: ('A' for Active; 'I' for Inactive)
REMARK    1  A    between atoms: O_1  and  C_25
REMARK    2  A    between atoms: N_3  and  C_11
REMARK    3  A    between atoms: C_6  and  C_10
REMARK    4  A    between atoms: C_11  and  C_12
REMARK    5  A    between atoms: C_19  and  C_24
REMARK    6  A    between atoms: C_23  and  C_25
REMARK                            x       y       z     vdW  Elec       q    Type
REMARK                         _______ _______ _______ _____ _____    ______ ____
ROOT
ATOM      3  N   UNL     1      12.596   4.984   1.432  0.00  0.00    -0.297 NA
ATOM      6  C   UNL     1      11.351   6.238   2.974  0.00  0.00    +0.070 C 
ATOM      7  C   UNL     1      12.763   6.837   2.844  0.00  0.00    +0.028 C 
ATOM      8  C   UNL     1      11.463   4.841   2.349  0.00  0.00    +0.096 C 
ATOM      9  C   UNL     1      13.594   5.745   2.184  0.00  0.00    +0.085 C 
ENDROOT
BRANCH   6  10
ATOM      4  N   UNL     1      10.877   5.083   5.151  0.00  0.00    -0.342 N 
ATOM      5  N   UNL     1      10.212   7.199   5.015  0.00  0.00    -0.232 NA
ATOM     10  C   UNL     1      10.801   6.210   4.381  0.00  0.00    +0.113 A 
ATOM     13  C   UNL     1      10.299   5.364   6.363  0.00  0.00    +0.066 A 
ATOM     14  C   UNL     1       9.893   6.691   6.253  0.00  0.00    +0.089 A 
ATOM     15  C   UNL     1      10.104   4.594   7.511  0.00  0.00    +0.031 A 
ATOM     18  C   UNL     1       9.251   7.303   7.343  0.00  0.00    +0.030 A 
ATOM     19  C   UNL     1       9.464   5.220   8.585  0.00  0.00    -0.048 A 
ATOM     20  C   UNL     1       9.044   6.549   8.505  0.00  0.00    +0.005 A 
ATOM     24  C   UNL     1       9.226   4.449   9.843  0.00  0.00    +0.044 C 
ATOM     26  H   UNL     1      11.285   4.198   4.879  0.00  0.00    +0.167 HD
ENDBRANCH   6  10
BRANCH   3  11
ATOM     11  C   UNL     1      13.107   3.700   0.975  0.00  0.00    +0.119 C 
BRANCH  11  12
ATOM     12  C   UNL     1      12.951   3.532  -0.513  0.00  0.00    -0.033 A 
ATOM     16  C   UNL     1      13.856   4.142  -1.382  0.00  0.00    +0.006 A 
ATOM     17  C   UNL     1      11.901   2.768  -1.022  0.00  0.00    +0.006 A 
ATOM     21  C   UNL     1      13.711   3.987  -2.760  0.00  0.00    +0.015 A 
ATOM     22  C   UNL     1      11.757   2.611  -2.401  0.00  0.00    +0.015 A 
ATOM     23  C   UNL     1      12.663   3.221  -3.270  0.00  0.00    +0.059 A 
BRANCH  23  25
ATOM      2  O   UNL     1      11.570   3.488  -5.382  0.00  0.00    -0.245 OA
ATOM     25  C   UNL     1      12.511   3.059  -4.707  0.00  0.00    +0.337 C 
BRANCH  25   1
ATOM      1  O   UNL     1      13.543   2.366  -5.264  0.00  0.00    -0.477 OA
ATOM     27  H   UNL     1      14.372   2.890  -5.272  0.00  0.00    +0.295 HD
ENDBRANCH  25   1
ENDBRANCH  23  25
ENDBRANCH  11  12
ENDBRANCH   3  11
TORSDOF 5
ENDMDL
MODEL 10
REMARK VINA RESULT:      -6.5     23.679     27.739
REMARK  Name = 51137093
REMARK  6 active torsions:
REMARK  status: ('A' for Active; 'I' for Inactive)
REMARK    1  A    between atoms: O_1  and  C_25
REMARK    2  A    between atoms: N_3  and  C_11
REMARK    3  A    between atoms: C_6  and  C_10
REMARK    4  A    between atoms: C_11  and  C_12
REMARK    5  A    between atoms: C_19  and  C_24
REMARK    6  A    between atoms: C_23  and  C_25
REMARK                            x       y       z     vdW  Elec       q    Type
REMARK                         _______ _______ _______ _____ _____    ______ ____
ROOT
ATOM      3  N   UNL     1      -4.502 -11.673  16.907  0.00  0.00    -0.297 NA
ATOM      6  C   UNL     1      -6.090 -10.370  18.038  0.00  0.00    +0.070 C 
ATOM      7  C   UNL     1      -5.437 -11.355  19.023  0.00  0.00    +0.028 C 
ATOM      8  C   UNL     1      -5.726 -10.911  16.648  0.00  0.00    +0.096 C 
ATOM      9  C   UNL     1      -4.769 -12.405  18.145  0.00  0.00    +0.085 C 
ENDROOT
BRANCH   6  10
ATOM      4  N   UNL     1      -8.209 -10.584  19.366  0.00  0.00    -0.342 N 
ATOM      5  N   UNL     1      -8.414  -9.637  17.366  0.00  0.00    -0.232 NA
ATOM     10  C   UNL     1      -7.579 -10.180  18.222  0.00  0.00    +0.113 A 
ATOM     13  C   UNL     1      -9.541 -10.280  19.239  0.00  0.00    +0.066 A 
ATOM     14  C   UNL     1      -9.643  -9.690  17.983  0.00  0.00    +0.089 A 
ATOM     15  C   UNL     1     -10.631 -10.466  20.090  0.00  0.00    +0.031 A 
ATOM     18  C   UNL     1     -10.900  -9.253  17.531  0.00  0.00    +0.030 A 
ATOM     19  C   UNL     1     -11.874 -10.025  19.624  0.00  0.00    -0.048 A 
ATOM     20  C   UNL     1     -12.009  -9.430  18.369  0.00  0.00    +0.005 A 
ATOM     24  C   UNL     1     -13.081 -10.195  20.490  0.00  0.00    +0.044 C 
ATOM     26  H   UNL     1      -7.775 -11.026  20.165  0.00  0.00    +0.167 HD
ENDBRANCH   6  10
BRANCH   3  11
ATOM     11  C   UNL     1      -4.155 -12.557  15.805  0.00  0.00    +0.119 C 
BRANCH  11  12
ATOM     12  C   UNL     1      -3.567 -11.801  14.643  0.00  0.00    -0.033 A 
ATOM     16  C   UNL     1      -2.431 -11.013  14.827  0.00  0.00    +0.006 A 
ATOM     17  C   UNL     1      -4.159 -11.889  13.383  0.00  0.00    +0.006 A 
ATOM     21  C   UNL     1      -1.887 -10.312  13.751  0.00  0.00    +0.015 A 
ATOM     22  C   UNL     1      -3.615 -11.189  12.306  0.00  0.00    +0.015 A 
ATOM     23  C   UNL     1      -2.478 -10.400  12.491  0.00  0.00    +0.059 A 
BRANCH  23  25
ATOM      2  O   UNL     1      -0.768  -9.204  11.320  0.00  0.00    -0.245 OA
ATOM     25  C   UNL     1      -1.911  -9.670  11.368  0.00  0.00    +0.337 C 
BRANCH  25   1
ATOM      1  O   UNL     1      -2.786  -9.544  10.333  0.00  0.00    -0.477 OA
ATOM     27  H   UNL     1      -2.749  -8.650   9.931  0.00  0.00    +0.295 HD
ENDBRANCH  25   1
ENDBRANCH  23  25
ENDBRANCH  11  12
ENDBRANCH   3  11
TORSDOF 5
ENDMDL
