MODEL 1
REMARK VINA RESULT:      -7.5      0.000      0.000
REMARK  Name = 11941475
REMARK  7 active torsions:
REMARK  status: ('A' for Active; 'I' for Inactive)
REMARK    1  A    between atoms: O_5  and  C_27
REMARK    2  A    between atoms: O_5  and  C_32
REMARK    3  A    between atoms: N_7  and  C_10
REMARK    4  A    between atoms: N_9  and  C_23
REMARK    5  A    between atoms: C_21  and  C_24
REMARK    6  A    between atoms: C_23  and  C_25
REMARK    7  A    between atoms: C_23  and  C_26
REMARK                            x       y       z     vdW  Elec       q    Type
REMARK                         _______ _______ _______ _____ _____    ______ ____
ROOT
ATOM      2  O   UNL     1      11.714   5.988  20.543  0.00  0.00    -0.273 OA
ATOM      3  O   UNL     1      15.159   9.249  18.250  0.00  0.00    -0.270 OA
ATOM      6  N   UNL     1      13.280   8.671  19.442  0.00  0.00    -0.284 N 
ATOM      8  N   UNL     1      13.970   6.158  20.809  0.00  0.00    -0.283 N 
ATOM     10  C   UNL     1      11.195   8.758  20.556  0.00  0.00    +0.105 C 
ATOM     11  C   UNL     1      12.628   8.216  20.657  0.00  0.00    +0.183 C 
ATOM     12  C   UNL     1      10.965   8.878  19.049  0.00  0.00    +0.043 C 
ATOM     13  C   UNL     1      12.334   9.272  18.514  0.00  0.00    +0.111 C 
ATOM     14  C   UNL     1      12.716   6.701  20.625  0.00  0.00    +0.240 C 
ATOM     15  C   UNL     1      14.641   8.706  19.225  0.00  0.00    +0.249 C 
ATOM     16  C   UNL     1      15.525   8.031  20.211  0.00  0.00    +0.059 A 
ATOM     17  C   UNL     1      15.217   6.818  20.849  0.00  0.00    +0.046 A 
ATOM     19  C   UNL     1      16.810   8.585  20.360  0.00  0.00    +0.023 A 
ATOM     20  C   UNL     1      16.228   6.155  21.569  0.00  0.00    +0.024 A 
ATOM     21  C   UNL     1      17.784   7.937  21.116  0.00  0.00    -0.014 A 
ATOM     22  C   UNL     1      17.497   6.715  21.711  0.00  0.00    +0.010 A 
ATOM     34  H   UNL     1      13.987   5.164  21.024  0.00  0.00    +0.155 HD
ENDROOT
BRANCH  21  24
ATOM      1 CL   UNL     1      20.618  11.987  22.571  0.00  0.00    -0.084 Cl
ATOM     24  C   UNL     1      19.099   8.523  21.263  0.00  0.00    +0.025 A 
ATOM     27  C   UNL     1      20.245   7.817  20.893  0.00  0.00    +0.128 A 
ATOM     28  C   UNL     1      19.216   9.814  21.782  0.00  0.00    +0.032 A 
ATOM     29  C   UNL     1      21.503   8.398  21.041  0.00  0.00    +0.047 A 
ATOM     30  C   UNL     1      20.474  10.396  21.930  0.00  0.00    +0.042 A 
ATOM     31  C   UNL     1      21.618   9.689  21.560  0.00  0.00    +0.023 A 
BRANCH  27   5
ATOM      5  O   UNL     1      20.162   6.554  20.384  0.00  0.00    -0.495 OA
ATOM     32  C   UNL     1      21.075   5.588  20.898  0.00  0.00    +0.277 C 
ENDBRANCH  27   5
ENDBRANCH  21  24
BRANCH  10   7
ATOM      4  O   UNL     1      10.896   9.257  23.382  0.00  0.00    -0.253 OA
ATOM      7  N   UNL     1      11.082  10.043  21.207  0.00  0.00    -0.294 N 
ATOM      9  N   UNL     1      10.853  11.534  22.941  0.00  0.00    -0.297 N 
ATOM     18  C   UNL     1      10.939  10.190  22.583  0.00  0.00    +0.300 C 
ATOM     33  H   UNL     1      11.033  10.877  20.627  0.00  0.00    +0.151 HD
ATOM     35  H   UNL     1      10.977  12.235  22.217  0.00  0.00    +0.150 HD
BRANCH   9  23
ATOM     23  C   UNL     1      10.700  11.971  24.309  0.00  0.00    +0.068 C 
ATOM     25  C   UNL     1      10.106  13.373  24.353  0.00  0.00    +0.027 C 
ATOM     26  C   UNL     1      12.035  11.914  25.041  0.00  0.00    +0.027 C 
ENDBRANCH   9  23
ENDBRANCH  10   7
TORSDOF 4
ENDMDL
MODEL 2
REMARK VINA RESULT:      -7.3     16.611     19.332
REMARK  Name = 11941475
REMARK  7 active torsions:
REMARK  status: ('A' for Active; 'I' for Inactive)
REMARK    1  A    between atoms: O_5  and  C_27
REMARK    2  A    between atoms: O_5  and  C_32
REMARK    3  A    between atoms: N_7  and  C_10
REMARK    4  A    between atoms: N_9  and  C_23
REMARK    5  A    between atoms: C_21  and  C_24
REMARK    6  A    between atoms: C_23  and  C_25
REMARK    7  A    between atoms: C_23  and  C_26
REMARK                            x       y       z     vdW  Elec       q    Type
REMARK                         _______ _______ _______ _____ _____    ______ ____
ROOT
ATOM      2  O   UNL     1      11.822   8.818   7.166  0.00  0.00    -0.273 OA
ATOM      3  O   UNL     1      10.076   4.274   5.149  0.00  0.00    -0.270 OA
ATOM      6  N   UNL     1       9.911   6.421   5.955  0.00  0.00    -0.284 N 
ATOM      8  N   UNL     1      12.478   7.699   5.293  0.00  0.00    -0.283 N 
ATOM     10  C   UNL     1       9.052   8.466   6.777  0.00  0.00    +0.105 C 
ATOM     11  C   UNL     1      10.076   7.856   5.808  0.00  0.00    +0.183 C 
ATOM     12  C   UNL     1       8.883   7.384   7.845  0.00  0.00    +0.043 C 
ATOM     13  C   UNL     1       9.023   6.089   7.059  0.00  0.00    +0.111 C 
ATOM     14  C   UNL     1      11.519   8.141   6.181  0.00  0.00    +0.240 C 
ATOM     15  C   UNL     1      10.376   5.465   5.077  0.00  0.00    +0.249 C 
ATOM     16  C   UNL     1      11.308   5.895   4.003  0.00  0.00    +0.059 A 
ATOM     17  C   UNL     1      12.315   6.861   4.168  0.00  0.00    +0.046 A 
ATOM     19  C   UNL     1      11.256   5.147   2.812  0.00  0.00    +0.023 A 
ATOM     20  C   UNL     1      13.286   7.007   3.162  0.00  0.00    +0.024 A 
ATOM     21  C   UNL     1      12.200   5.340   1.805  0.00  0.00    -0.014 A 
ATOM     22  C   UNL     1      13.224   6.261   1.985  0.00  0.00    +0.010 A 
ATOM     34  H   UNL     1      13.406   8.094   5.422  0.00  0.00    +0.155 HD
ENDROOT
BRANCH  21  24
ATOM      1 CL   UNL     1       9.824   4.481  -2.685  0.00  0.00    -0.084 Cl
ATOM     24  C   UNL     1      12.129   4.565   0.585  0.00  0.00    +0.025 A 
ATOM     27  C   UNL     1      13.038   3.535   0.335  0.00  0.00    +0.128 A 
ATOM     28  C   UNL     1      11.134   4.856  -0.351  0.00  0.00    +0.032 A 
ATOM     29  C   UNL     1      12.954   2.800  -0.846  0.00  0.00    +0.047 A 
ATOM     30  C   UNL     1      11.049   4.120  -1.532  0.00  0.00    +0.042 A 
ATOM     31  C   UNL     1      11.958   3.092  -1.780  0.00  0.00    +0.023 A 
BRANCH  27   5
ATOM      5  O   UNL     1      14.021   3.229   1.230  0.00  0.00    -0.495 OA
ATOM     32  C   UNL     1      15.345   3.641   0.902  0.00  0.00    +0.277 C 
ENDBRANCH  27   5
ENDBRANCH  21  24
BRANCH  10   7
ATOM      4  O   UNL     1       8.530  10.545   4.846  0.00  0.00    -0.253 OA
ATOM      7  N   UNL     1       7.802   8.737   6.105  0.00  0.00    -0.294 N 
ATOM      9  N   UNL     1       6.339   9.802   4.688  0.00  0.00    -0.297 N 
ATOM     18  C   UNL     1       7.640   9.767   5.183  0.00  0.00    +0.300 C 
ATOM     33  H   UNL     1       6.983   8.195   6.368  0.00  0.00    +0.151 HD
ATOM     35  H   UNL     1       5.696   9.068   4.970  0.00  0.00    +0.150 HD
BRANCH   9  23
ATOM     23  C   UNL     1       5.896  10.774   3.716  0.00  0.00    +0.068 C 
ATOM     25  C   UNL     1       4.847  11.694   4.326  0.00  0.00    +0.027 C 
ATOM     26  C   UNL     1       5.364  10.078   2.470  0.00  0.00    +0.027 C 
ENDBRANCH   9  23
ENDBRANCH  10   7
TORSDOF 4
ENDMDL
MODEL 3
REMARK VINA RESULT:      -7.3     29.773     32.257
REMARK  Name = 11941475
REMARK  7 active torsions:
REMARK  status: ('A' for Active; 'I' for Inactive)
REMARK    1  A    between atoms: O_5  and  C_27
REMARK    2  A    between atoms: O_5  and  C_32
REMARK    3  A    between atoms: N_7  and  C_10
REMARK    4  A    between atoms: N_9  and  C_23
REMARK    5  A    between atoms: C_21  and  C_24
REMARK    6  A    between atoms: C_23  and  C_25
REMARK    7  A    between atoms: C_23  and  C_26
REMARK                            x       y       z     vdW  Elec       q    Type
REMARK                         _______ _______ _______ _____ _____    ______ ____
ROOT
ATOM      2  O   UNL     1     -18.639   3.189  29.977  0.00  0.00    -0.273 OA
ATOM      3  O   UNL     1     -13.660   3.083  31.697  0.00  0.00    -0.270 OA
ATOM      6  N   UNL     1     -15.348   3.133  30.136  0.00  0.00    -0.284 N 
ATOM      8  N   UNL     1     -17.563   4.570  31.434  0.00  0.00    -0.283 N 
ATOM     10  C   UNL     1     -16.544   3.036  28.098  0.00  0.00    +0.105 C 
ATOM     11  C   UNL     1     -16.387   3.832  29.402  0.00  0.00    +0.183 C 
ATOM     12  C   UNL     1     -16.094   1.626  28.484  0.00  0.00    +0.043 C 
ATOM     13  C   UNL     1     -14.988   1.876  29.498  0.00  0.00    +0.111 C 
ATOM     14  C   UNL     1     -17.614   3.794  30.295  0.00  0.00    +0.240 C 
ATOM     15  C   UNL     1     -14.642   3.639  31.207  0.00  0.00    +0.249 C 
ATOM     16  C   UNL     1     -15.109   4.912  31.815  0.00  0.00    +0.059 A 
ATOM     17  C   UNL     1     -16.460   5.262  31.979  0.00  0.00    +0.046 A 
ATOM     19  C   UNL     1     -14.111   5.713  32.400  0.00  0.00    +0.023 A 
ATOM     20  C   UNL     1     -16.780   6.371  32.783  0.00  0.00    +0.024 A 
ATOM     21  C   UNL     1     -14.446   6.836  33.154  0.00  0.00    -0.014 A 
ATOM     22  C   UNL     1     -15.782   7.158  33.357  0.00  0.00    +0.010 A 
ATOM     34  H   UNL     1     -18.457   4.728  31.894  0.00  0.00    +0.155 HD
ENDROOT
BRANCH  21  24
ATOM      1 CL   UNL     1     -11.684   8.027  37.338  0.00  0.00    -0.084 Cl
ATOM     24  C   UNL     1     -13.406   7.651  33.745  0.00  0.00    +0.025 A 
ATOM     27  C   UNL     1     -12.728   8.608  32.988  0.00  0.00    +0.128 A 
ATOM     28  C   UNL     1     -13.082   7.473  35.091  0.00  0.00    +0.032 A 
ATOM     29  C   UNL     1     -11.729   9.383  33.574  0.00  0.00    +0.047 A 
ATOM     30  C   UNL     1     -12.083   8.249  35.678  0.00  0.00    +0.042 A 
ATOM     31  C   UNL     1     -11.406   9.204  34.920  0.00  0.00    +0.023 A 
BRANCH  27   5
ATOM      5  O   UNL     1     -13.022   8.804  31.670  0.00  0.00    -0.495 OA
ATOM     32  C   UNL     1     -12.099   9.579  30.910  0.00  0.00    +0.277 C 
ENDBRANCH  27   5
ENDBRANCH  21  24
BRANCH  10   7
ATOM      4  O   UNL     1     -17.280   3.512  25.349  0.00  0.00    -0.253 OA
ATOM      7  N   UNL     1     -15.708   3.585  27.054  0.00  0.00    -0.294 N 
ATOM      9  N   UNL     1     -15.143   4.320  24.952  0.00  0.00    -0.297 N 
ATOM     18  C   UNL     1     -16.149   3.780  25.749  0.00  0.00    +0.300 C 
ATOM     33  H   UNL     1     -14.731   3.771  27.264  0.00  0.00    +0.151 HD
ATOM     35  H   UNL     1     -14.265   4.580  25.393  0.00  0.00    +0.150 HD
BRANCH   9  23
ATOM     23  C   UNL     1     -15.330   4.623  23.552  0.00  0.00    +0.068 C 
ATOM     25  C   UNL     1     -13.985   4.703  22.843  0.00  0.00    +0.027 C 
ATOM     26  C   UNL     1     -16.120   5.916  23.387  0.00  0.00    +0.027 C 
ENDBRANCH   9  23
ENDBRANCH  10   7
TORSDOF 4
ENDMDL
MODEL 4
REMARK VINA RESULT:      -7.2     28.401     30.470
REMARK  Name = 11941475
REMARK  7 active torsions:
REMARK  status: ('A' for Active; 'I' for Inactive)
REMARK    1  A    between atoms: O_5  and  C_27
REMARK    2  A    between atoms: O_5  and  C_32
REMARK    3  A    between atoms: N_7  and  C_10
REMARK    4  A    between atoms: N_9  and  C_23
REMARK    5  A    between atoms: C_21  and  C_24
REMARK    6  A    between atoms: C_23  and  C_25
REMARK    7  A    between atoms: C_23  and  C_26
REMARK                            x       y       z     vdW  Elec       q    Type
REMARK                         _______ _______ _______ _____ _____    ______ ____
ROOT
ATOM      2  O   UNL     1      -1.279 -12.028  13.872  0.00  0.00    -0.273 OA
ATOM      3  O   UNL     1      -5.313 -13.449  10.794  0.00  0.00    -0.270 OA
ATOM      6  N   UNL     1      -4.245 -12.946  12.768  0.00  0.00    -0.284 N 
ATOM      8  N   UNL     1      -2.170 -10.987  12.052  0.00  0.00    -0.283 N 
ATOM     10  C   UNL     1      -3.739 -12.712  15.066  0.00  0.00    +0.105 C 
ATOM     11  C   UNL     1      -3.685 -11.995  13.710  0.00  0.00    +0.183 C 
ATOM     12  C   UNL     1      -3.686 -14.194  14.688  0.00  0.00    +0.043 C 
ATOM     13  C   UNL     1      -4.458 -14.250  13.379  0.00  0.00    +0.111 C 
ATOM     14  C   UNL     1      -2.277 -11.715  13.219  0.00  0.00    +0.240 C 
ATOM     15  C   UNL     1      -4.696 -12.651  11.499  0.00  0.00    +0.249 C 
ATOM     16  C   UNL     1      -4.398 -11.304  10.946  0.00  0.00    +0.059 A 
ATOM     17  C   UNL     1      -3.192 -10.613  11.152  0.00  0.00    +0.046 A 
ATOM     19  C   UNL     1      -5.338 -10.797  10.030  0.00  0.00    +0.023 A 
ATOM     20  C   UNL     1      -2.929  -9.465  10.384  0.00  0.00    +0.024 A 
ATOM     21  C   UNL     1      -5.079  -9.631   9.312  0.00  0.00    -0.014 A 
ATOM     22  C   UNL     1      -3.868  -8.971   9.480  0.00  0.00    +0.010 A 
ATOM     34  H   UNL     1      -1.248 -10.604  11.861  0.00  0.00    +0.155 HD
ENDROOT
BRANCH  21  24
ATOM      1 CL   UNL     1      -9.028  -6.439   8.438  0.00  0.00    -0.084 Cl
ATOM     24  C   UNL     1      -6.059  -9.121   8.377  0.00  0.00    +0.025 A 
ATOM     27  C   UNL     1      -6.110  -9.592   7.064  0.00  0.00    +0.128 A 
ATOM     28  C   UNL     1      -6.963  -8.146   8.801  0.00  0.00    +0.032 A 
ATOM     29  C   UNL     1      -7.061  -9.090   6.177  0.00  0.00    +0.047 A 
ATOM     30  C   UNL     1      -7.915  -7.643   7.914  0.00  0.00    +0.042 A 
ATOM     31  C   UNL     1      -7.964  -8.114   6.603  0.00  0.00    +0.023 A 
BRANCH  27   5
ATOM      5  O   UNL     1      -5.239 -10.544   6.621  0.00  0.00    -0.495 OA
ATOM     32  C   UNL     1      -5.521 -11.141   5.358  0.00  0.00    +0.277 C 
ENDBRANCH  27   5
ENDBRANCH  21  24
BRANCH  10   7
ATOM      4  O   UNL     1      -4.210 -10.458  16.805  0.00  0.00    -0.253 OA
ATOM      7  N   UNL     1      -4.960 -12.396  15.770  0.00  0.00    -0.294 N 
ATOM      9  N   UNL     1      -6.376 -11.217  17.145  0.00  0.00    -0.297 N 
ATOM     18  C   UNL     1      -5.099 -11.281  16.593  0.00  0.00    +0.300 C 
ATOM     33  H   UNL     1      -5.733 -13.054  15.720  0.00  0.00    +0.151 HD
ATOM     35  H   UNL     1      -7.065 -11.901  16.848  0.00  0.00    +0.150 HD
BRANCH   9  23
ATOM     23  C   UNL     1      -6.790 -10.160  18.037  0.00  0.00    +0.068 C 
ATOM     25  C   UNL     1      -6.529 -10.556  19.484  0.00  0.00    +0.027 C 
ATOM     26  C   UNL     1      -8.258  -9.817  17.814  0.00  0.00    +0.027 C 
ENDBRANCH   9  23
ENDBRANCH  10   7
TORSDOF 4
ENDMDL
MODEL 5
REMARK VINA RESULT:      -7.1      4.457      8.431
REMARK  Name = 11941475
REMARK  7 active torsions:
REMARK  status: ('A' for Active; 'I' for Inactive)
REMARK    1  A    between atoms: O_5  and  C_27
REMARK    2  A    between atoms: O_5  and  C_32
REMARK    3  A    between atoms: N_7  and  C_10
REMARK    4  A    between atoms: N_9  and  C_23
REMARK    5  A    between atoms: C_21  and  C_24
REMARK    6  A    between atoms: C_23  and  C_25
REMARK    7  A    between atoms: C_23  and  C_26
REMARK                            x       y       z     vdW  Elec       q    Type
REMARK                         _______ _______ _______ _____ _____    ______ ____
ROOT
ATOM      2  O   UNL     1      21.270   9.967  21.865  0.00  0.00    -0.273 OA
ATOM      3  O   UNL     1      17.818   6.200  20.578  0.00  0.00    -0.270 OA
ATOM      6  N   UNL     1      19.300   7.326  21.929  0.00  0.00    -0.284 N 
ATOM      8  N   UNL     1      19.138  10.140  21.084  0.00  0.00    -0.283 N 
ATOM     10  C   UNL     1      20.754   7.895  23.705  0.00  0.00    +0.105 C 
ATOM     11  C   UNL     1      19.648   8.441  22.791  0.00  0.00    +0.183 C 
ATOM     12  C   UNL     1      21.393   6.784  22.869  0.00  0.00    +0.043 C 
ATOM     13  C   UNL     1      20.217   6.208  22.094  0.00  0.00    +0.111 C 
ATOM     14  C   UNL     1      20.112   9.547  21.860  0.00  0.00    +0.240 C 
ATOM     15  C   UNL     1      18.156   7.227  21.165  0.00  0.00    +0.249 C 
ATOM     16  C   UNL     1      17.301   8.434  21.026  0.00  0.00    +0.059 A 
ATOM     17  C   UNL     1      17.795   9.745  20.904  0.00  0.00    +0.046 A 
ATOM     19  C   UNL     1      15.927   8.193  20.841  0.00  0.00    +0.023 A 
ATOM     20  C   UNL     1      16.907  10.771  20.534  0.00  0.00    +0.024 A 
ATOM     21  C   UNL     1      15.055   9.232  20.521  0.00  0.00    -0.014 A 
ATOM     22  C   UNL     1      15.547  10.520  20.355  0.00  0.00    +0.010 A 
ATOM     34  H   UNL     1      19.403  11.021  20.651  0.00  0.00    +0.155 HD
ENDROOT
BRANCH  21  24
ATOM      1 CL   UNL     1      10.443   8.473  22.690  0.00  0.00    -0.084 Cl
ATOM     24  C   UNL     1      13.645   8.966  20.339  0.00  0.00    +0.025 A 
ATOM     27  C   UNL     1      13.102   8.816  19.062  0.00  0.00    +0.128 A 
ATOM     28  C   UNL     1      12.820   8.859  21.461  0.00  0.00    +0.032 A 
ATOM     29  C   UNL     1      11.740   8.560  18.906  0.00  0.00    +0.047 A 
ATOM     30  C   UNL     1      11.458   8.603  21.306  0.00  0.00    +0.042 A 
ATOM     31  C   UNL     1      10.918   8.453  20.029  0.00  0.00    +0.023 A 
BRANCH  27   5
ATOM      5  O   UNL     1      13.882   8.916  17.947  0.00  0.00    -0.495 OA
ATOM     32  C   UNL     1      14.202   7.703  17.271  0.00  0.00    +0.277 C 
ENDBRANCH  27   5
ENDBRANCH  21  24
BRANCH  10   7
ATOM      4  O   UNL     1      21.706   8.370  26.387  0.00  0.00    -0.253 OA
ATOM      7  N   UNL     1      20.198   7.372  24.932  0.00  0.00    -0.294 N 
ATOM      9  N   UNL     1      19.999   7.024  27.195  0.00  0.00    -0.297 N 
ATOM     18  C   UNL     1      20.726   7.655  26.189  0.00  0.00    +0.300 C 
ATOM     33  H   UNL     1      19.430   6.710  24.872  0.00  0.00    +0.151 HD
ATOM     35  H   UNL     1      19.158   6.517  26.937  0.00  0.00    +0.150 HD
BRANCH   9  23
ATOM     23  C   UNL     1      20.330   7.147  28.595  0.00  0.00    +0.068 C 
ATOM     25  C   UNL     1      20.073   5.831  29.318  0.00  0.00    +0.027 C 
ATOM     26  C   UNL     1      19.546   8.288  29.231  0.00  0.00    +0.027 C 
ENDBRANCH   9  23
ENDBRANCH  10   7
TORSDOF 4
ENDMDL
MODEL 6
REMARK VINA RESULT:      -7.1     28.063     30.539
REMARK  Name = 11941475
REMARK  7 active torsions:
REMARK  status: ('A' for Active; 'I' for Inactive)
REMARK    1  A    between atoms: O_5  and  C_27
REMARK    2  A    between atoms: O_5  and  C_32
REMARK    3  A    between atoms: N_7  and  C_10
REMARK    4  A    between atoms: N_9  and  C_23
REMARK    5  A    between atoms: C_21  and  C_24
REMARK    6  A    between atoms: C_23  and  C_25
REMARK    7  A    between atoms: C_23  and  C_26
REMARK                            x       y       z     vdW  Elec       q    Type
REMARK                         _______ _______ _______ _____ _____    ______ ____
ROOT
ATOM      2  O   UNL     1      -1.665 -10.772  14.526  0.00  0.00    -0.273 OA
ATOM      3  O   UNL     1      -4.562 -13.543  11.108  0.00  0.00    -0.270 OA
ATOM      6  N   UNL     1      -4.077 -12.509  13.103  0.00  0.00    -0.284 N 
ATOM      8  N   UNL     1      -2.314 -10.259  12.404  0.00  0.00    -0.283 N 
ATOM     10  C   UNL     1      -4.148 -11.811  15.363  0.00  0.00    +0.105 C 
ATOM     11  C   UNL     1      -3.935 -11.319  13.924  0.00  0.00    +0.183 C 
ATOM     12  C   UNL     1      -3.727 -13.281  15.303  0.00  0.00    +0.043 C 
ATOM     13  C   UNL     1      -4.164 -13.716  13.912  0.00  0.00    +0.111 C 
ATOM     14  C   UNL     1      -2.534 -10.802  13.653  0.00  0.00    +0.240 C 
ATOM     15  C   UNL     1      -4.283 -12.525  11.740  0.00  0.00    +0.249 C 
ATOM     16  C   UNL     1      -4.137 -11.248  10.995  0.00  0.00    +0.059 A 
ATOM     17  C   UNL     1      -3.164 -10.274  11.277  0.00  0.00    +0.046 A 
ATOM     19  C   UNL     1      -4.930 -11.119   9.839  0.00  0.00    +0.023 A 
ATOM     20  C   UNL     1      -2.964  -9.229  10.357  0.00  0.00    +0.024 A 
ATOM     21  C   UNL     1      -4.749 -10.050   8.964  0.00  0.00    -0.014 A 
ATOM     22  C   UNL     1      -3.757  -9.111   9.216  0.00  0.00    +0.010 A 
ATOM     34  H   UNL     1      -1.464  -9.707  12.312  0.00  0.00    +0.155 HD
ENDROOT
BRANCH  21  24
ATOM      1 CL   UNL     1      -5.718 -11.588   4.142  0.00  0.00    -0.084 Cl
ATOM     24  C   UNL     1      -5.577  -9.932   7.783  0.00  0.00    +0.025 A 
ATOM     27  C   UNL     1      -6.654  -9.045   7.748  0.00  0.00    +0.128 A 
ATOM     28  C   UNL     1      -5.288 -10.718   6.665  0.00  0.00    +0.032 A 
ATOM     29  C   UNL     1      -7.440  -8.944   6.601  0.00  0.00    +0.047 A 
ATOM     30  C   UNL     1      -6.074 -10.617   5.518  0.00  0.00    +0.042 A 
ATOM     31  C   UNL     1      -7.150  -9.731   5.485  0.00  0.00    +0.023 A 
BRANCH  27   5
ATOM      5  O   UNL     1      -6.961  -8.264   8.824  0.00  0.00    -0.495 OA
ATOM     32  C   UNL     1      -8.326  -8.236   9.234  0.00  0.00    +0.277 C 
ENDBRANCH  27   5
ENDBRANCH  21  24
BRANCH  10   7
ATOM      4  O   UNL     1      -5.323  -9.679  16.912  0.00  0.00    -0.253 OA
ATOM      7  N   UNL     1      -5.533 -11.679  15.754  0.00  0.00    -0.294 N 
ATOM      9  N   UNL     1      -7.381 -10.734  16.740  0.00  0.00    -0.297 N 
ATOM     18  C   UNL     1      -6.014 -10.612  16.506  0.00  0.00    +0.300 C 
ATOM     33  H   UNL     1      -6.173 -12.436  15.530  0.00  0.00    +0.151 HD
ATOM     35  H   UNL     1      -7.879 -11.500  16.297  0.00  0.00    +0.150 HD
BRANCH   9  23
ATOM     23  C   UNL     1      -8.137  -9.763  17.496  0.00  0.00    +0.068 C 
ATOM     25  C   UNL     1      -9.111 -10.463  18.433  0.00  0.00    +0.027 C 
ATOM     26  C   UNL     1      -8.862  -8.804  16.560  0.00  0.00    +0.027 C 
ENDBRANCH   9  23
ENDBRANCH  10   7
TORSDOF 4
ENDMDL
MODEL 7
REMARK VINA RESULT:      -7.0     28.253     30.035
REMARK  Name = 11941475
REMARK  7 active torsions:
REMARK  status: ('A' for Active; 'I' for Inactive)
REMARK    1  A    between atoms: O_5  and  C_27
REMARK    2  A    between atoms: O_5  and  C_32
REMARK    3  A    between atoms: N_7  and  C_10
REMARK    4  A    between atoms: N_9  and  C_23
REMARK    5  A    between atoms: C_21  and  C_24
REMARK    6  A    between atoms: C_23  and  C_25
REMARK    7  A    between atoms: C_23  and  C_26
REMARK                            x       y       z     vdW  Elec       q    Type
REMARK                         _______ _______ _______ _____ _____    ______ ____
ROOT
ATOM      2  O   UNL     1      -5.998 -11.056  20.596  0.00  0.00    -0.273 OA
ATOM      3  O   UNL     1      -7.204 -13.621  16.155  0.00  0.00    -0.270 OA
ATOM      6  N   UNL     1      -7.538 -12.162  17.901  0.00  0.00    -0.284 N 
ATOM      8  N   UNL     1      -4.855 -11.198  18.631  0.00  0.00    -0.283 N 
ATOM     10  C   UNL     1      -8.542 -10.677  19.444  0.00  0.00    +0.105 C 
ATOM     11  C   UNL     1      -7.298 -10.897  18.572  0.00  0.00    +0.183 C 
ATOM     12  C   UNL     1      -9.045 -12.097  19.712  0.00  0.00    +0.043 C 
ATOM     13  C   UNL     1      -8.718 -12.835  18.423  0.00  0.00    +0.111 C 
ATOM     14  C   UNL     1      -6.019 -11.092  19.365  0.00  0.00    +0.240 C 
ATOM     15  C   UNL     1      -6.864 -12.624  16.791  0.00  0.00    +0.249 C 
ATOM     16  C   UNL     1      -5.647 -11.890  16.355  0.00  0.00    +0.059 A 
ATOM     17  C   UNL     1      -4.706 -11.326  17.233  0.00  0.00    +0.046 A 
ATOM     19  C   UNL     1      -5.370 -11.929  14.976  0.00  0.00    +0.023 A 
ATOM     20  C   UNL     1      -3.479 -10.875  16.714  0.00  0.00    +0.024 A 
ATOM     21  C   UNL     1      -4.168 -11.433  14.474  0.00  0.00    -0.014 A 
ATOM     22  C   UNL     1      -3.216 -10.917  15.345  0.00  0.00    +0.010 A 
ATOM     34  H   UNL     1      -3.994 -11.088  19.161  0.00  0.00    +0.155 HD
ENDROOT
BRANCH  21  24
ATOM      1 CL   UNL     1      -3.798  -8.864  10.023  0.00  0.00    -0.084 Cl
ATOM     24  C   UNL     1      -3.902 -11.477  13.053  0.00  0.00    +0.025 A 
ATOM     27  C   UNL     1      -3.580 -12.679  12.420  0.00  0.00    +0.128 A 
ATOM     28  C   UNL     1      -3.969 -10.297  12.309  0.00  0.00    +0.032 A 
ATOM     29  C   UNL     1      -3.327 -12.702  11.049  0.00  0.00    +0.047 A 
ATOM     30  C   UNL     1      -3.716 -10.319  10.938  0.00  0.00    +0.042 A 
ATOM     31  C   UNL     1      -3.395 -11.521  10.308  0.00  0.00    +0.023 A 
BRANCH  27   5
ATOM      5  O   UNL     1      -3.506 -13.847  13.120  0.00  0.00    -0.495 OA
ATOM     32  C   UNL     1      -2.427 -14.724  12.803  0.00  0.00    +0.277 C 
ENDBRANCH  27   5
ENDBRANCH  21  24
BRANCH  10   7
ATOM      4  O   UNL     1      -8.085  -8.836  17.270  0.00  0.00    -0.253 OA
ATOM      7  N   UNL     1      -9.534  -9.895  18.742  0.00  0.00    -0.294 N 
ATOM      9  N   UNL     1     -10.363  -8.403  17.203  0.00  0.00    -0.297 N 
ATOM     18  C   UNL     1      -9.221  -9.027  17.700  0.00  0.00    +0.300 C 
ATOM     33  H   UNL     1     -10.495  -9.926  19.069  0.00  0.00    +0.151 HD
ATOM     35  H   UNL     1     -11.266  -8.685  17.572  0.00  0.00    +0.150 HD
BRANCH   9  23
ATOM     23  C   UNL     1     -10.326  -7.451  16.117  0.00  0.00    +0.068 C 
ATOM     25  C   UNL     1     -11.209  -6.251  16.434  0.00  0.00    +0.027 C 
ATOM     26  C   UNL     1     -10.743  -8.115  14.811  0.00  0.00    +0.027 C 
ENDBRANCH   9  23
ENDBRANCH  10   7
TORSDOF 4
ENDMDL
MODEL 8
REMARK VINA RESULT:      -6.9     26.659     29.510
REMARK  Name = 11941475
REMARK  7 active torsions:
REMARK  status: ('A' for Active; 'I' for Inactive)
REMARK    1  A    between atoms: O_5  and  C_27
REMARK    2  A    between atoms: O_5  and  C_32
REMARK    3  A    between atoms: N_7  and  C_10
REMARK    4  A    between atoms: N_9  and  C_23
REMARK    5  A    between atoms: C_21  and  C_24
REMARK    6  A    between atoms: C_23  and  C_25
REMARK    7  A    between atoms: C_23  and  C_26
REMARK                            x       y       z     vdW  Elec       q    Type
REMARK                         _______ _______ _______ _____ _____    ______ ____
ROOT
ATOM      2  O   UNL     1      -9.937   7.593  13.970  0.00  0.00    -0.273 OA
ATOM      3  O   UNL     1     -12.524  11.262  16.729  0.00  0.00    -0.270 OA
ATOM      6  N   UNL     1     -12.224   9.693  15.075  0.00  0.00    -0.284 N 
ATOM      8  N   UNL     1     -10.357   7.719  16.205  0.00  0.00    -0.283 N 
ATOM     10  C   UNL     1     -12.511   8.376  13.130  0.00  0.00    +0.105 C 
ATOM     11  C   UNL     1     -12.144   8.316  14.620  0.00  0.00    +0.183 C 
ATOM     12  C   UNL     1     -12.114   9.796  12.722  0.00  0.00    +0.043 C 
ATOM     13  C   UNL     1     -12.415  10.617  13.967  0.00  0.00    +0.111 C 
ATOM     14  C   UNL     1     -10.713   7.883  14.882  0.00  0.00    +0.240 C 
ATOM     15  C   UNL     1     -12.291  10.102  16.389  0.00  0.00    +0.249 C 
ATOM     16  C   UNL     1     -12.046   9.091  17.451  0.00  0.00    +0.059 A 
ATOM     17  C   UNL     1     -11.088   8.067  17.362  0.00  0.00    +0.046 A 
ATOM     19  C   UNL     1     -12.715   9.308  18.670  0.00  0.00    +0.023 A 
ATOM     20  C   UNL     1     -10.776   7.328  18.517  0.00  0.00    +0.024 A 
ATOM     21  C   UNL     1     -12.426   8.534  19.792  0.00  0.00    -0.014 A 
ATOM     22  C   UNL     1     -11.447   7.551  19.719  0.00  0.00    +0.010 A 
ATOM     34  H   UNL     1      -9.492   7.208  16.363  0.00  0.00    +0.155 HD
ENDROOT
BRANCH  21  24
ATOM      1 CL   UNL     1     -12.772  11.242  24.161  0.00  0.00    -0.084 Cl
ATOM     24  C   UNL     1     -13.127   8.768  21.035  0.00  0.00    +0.025 A 
ATOM     27  C   UNL     1     -14.247   8.010  21.382  0.00  0.00    +0.128 A 
ATOM     28  C   UNL     1     -12.671   9.768  21.897  0.00  0.00    +0.032 A 
ATOM     29  C   UNL     1     -14.910   8.251  22.585  0.00  0.00    +0.047 A 
ATOM     30  C   UNL     1     -13.334  10.009  23.100  0.00  0.00    +0.042 A 
ATOM     31  C   UNL     1     -14.453   9.251  23.445  0.00  0.00    +0.023 A 
BRANCH  27   5
ATOM      5  O   UNL     1     -14.716   7.028  20.560  0.00  0.00    -0.495 OA
ATOM     32  C   UNL     1     -15.159   5.823  21.179  0.00  0.00    +0.277 C 
ENDBRANCH  27   5
ENDBRANCH  21  24
BRANCH  10   7
ATOM      4  O   UNL     1     -13.844   5.838  12.811  0.00  0.00    -0.253 OA
ATOM      7  N   UNL     1     -13.926   8.153  12.938  0.00  0.00    -0.294 N 
ATOM      9  N   UNL     1     -15.864   6.961  12.621  0.00  0.00    -0.297 N 
ATOM     18  C   UNL     1     -14.484   6.887  12.791  0.00  0.00    +0.300 C 
ATOM     33  H   UNL     1     -14.533   8.961  12.834  0.00  0.00    +0.151 HD
ATOM     35  H   UNL     1     -16.312   7.869  12.698  0.00  0.00    +0.150 HD
BRANCH   9  23
ATOM     23  C   UNL     1     -16.695   5.793  12.446  0.00  0.00    +0.068 C 
ATOM     25  C   UNL     1     -17.860   6.106  11.515  0.00  0.00    +0.027 C 
ATOM     26  C   UNL     1     -17.187   5.280  13.794  0.00  0.00    +0.027 C 
ENDBRANCH   9  23
ENDBRANCH  10   7
TORSDOF 4
ENDMDL
MODEL 9
REMARK VINA RESULT:      -6.6     28.470     30.890
REMARK  Name = 11941475
REMARK  7 active torsions:
REMARK  status: ('A' for Active; 'I' for Inactive)
REMARK    1  A    between atoms: O_5  and  C_27
REMARK    2  A    between atoms: O_5  and  C_32
REMARK    3  A    between atoms: N_7  and  C_10
REMARK    4  A    between atoms: N_9  and  C_23
REMARK    5  A    between atoms: C_21  and  C_24
REMARK    6  A    between atoms: C_23  and  C_25
REMARK    7  A    between atoms: C_23  and  C_26
REMARK                            x       y       z     vdW  Elec       q    Type
REMARK                         _______ _______ _______ _____ _____    ______ ____
ROOT
ATOM      2  O   UNL     1     -10.040 -10.024   7.732  0.00  0.00    -0.273 OA
ATOM      3  O   UNL     1      -5.592  -8.029   9.730  0.00  0.00    -0.270 OA
ATOM      6  N   UNL     1      -7.774  -7.999   9.006  0.00  0.00    -0.284 N 
ATOM      8  N   UNL     1      -8.799 -10.709   9.514  0.00  0.00    -0.283 N 
ATOM     10  C   UNL     1      -9.915  -7.269   8.314  0.00  0.00    +0.105 C 
ATOM     11  C   UNL     1      -9.183  -8.300   9.184  0.00  0.00    +0.183 C 
ATOM     12  C   UNL     1      -8.893  -6.929   7.228  0.00  0.00    +0.043 C 
ATOM     13  C   UNL     1      -7.561  -7.009   7.960  0.00  0.00    +0.111 C 
ATOM     14  C   UNL     1      -9.356  -9.733   8.715  0.00  0.00    +0.240 C 
ATOM     15  C   UNL     1      -6.749  -8.438   9.816  0.00  0.00    +0.249 C 
ATOM     16  C   UNL     1      -7.057  -9.479  10.831  0.00  0.00    +0.059 A 
ATOM     17  C   UNL     1      -7.937 -10.553  10.622  0.00  0.00    +0.046 A 
ATOM     19  C   UNL     1      -6.272  -9.446  11.999  0.00  0.00    +0.023 A 
ATOM     20  C   UNL     1      -7.961 -11.603  11.557  0.00  0.00    +0.024 A 
ATOM     21  C   UNL     1      -6.343 -10.473  12.939  0.00  0.00    -0.014 A 
ATOM     22  C   UNL     1      -7.179 -11.558  12.712  0.00  0.00    +0.010 A 
ATOM     34  H   UNL     1      -9.118 -11.658   9.330  0.00  0.00    +0.155 HD
ENDROOT
BRANCH  21  24
ATOM      1 CL   UNL     1      -1.744 -11.241  15.129  0.00  0.00    -0.084 Cl
ATOM     24  C   UNL     1      -5.533 -10.420  14.135  0.00  0.00    +0.025 A 
ATOM     27  C   UNL     1      -6.071  -9.988  15.349  0.00  0.00    +0.128 A 
ATOM     28  C   UNL     1      -4.193 -10.808  14.069  0.00  0.00    +0.032 A 
ATOM     29  C   UNL     1      -5.274  -9.944  16.492  0.00  0.00    +0.047 A 
ATOM     30  C   UNL     1      -3.396 -10.764  15.212  0.00  0.00    +0.042 A 
ATOM     31  C   UNL     1      -3.935 -10.332  16.423  0.00  0.00    +0.023 A 
BRANCH  27   5
ATOM      5  O   UNL     1      -7.376  -9.602  15.444  0.00  0.00    -0.495 OA
ATOM     32  C   UNL     1      -7.908  -9.437  16.756  0.00  0.00    +0.277 C 
ENDBRANCH  27   5
ENDBRANCH  21  24
BRANCH  10   7
ATOM      4  O   UNL     1     -12.406  -6.772   9.682  0.00  0.00    -0.253 OA
ATOM      7  N   UNL     1     -10.267  -6.099   9.085  0.00  0.00    -0.294 N 
ATOM      9  N   UNL     1     -11.572  -4.726  10.387  0.00  0.00    -0.297 N 
ATOM     18  C   UNL     1     -11.499  -5.943   9.714  0.00  0.00    +0.300 C 
ATOM     33  H   UNL     1      -9.612  -5.322   9.112  0.00  0.00    +0.151 HD
ATOM     35  H   UNL     1     -10.741  -4.142  10.420  0.00  0.00    +0.150 HD
BRANCH   9  23
ATOM     23  C   UNL     1     -12.740  -4.308  11.126  0.00  0.00    +0.068 C 
ATOM     25  C   UNL     1     -13.662  -3.484  10.236  0.00  0.00    +0.027 C 
ATOM     26  C   UNL     1     -12.335  -3.532  12.372  0.00  0.00    +0.027 C 
ENDBRANCH   9  23
ENDBRANCH  10   7
TORSDOF 4
ENDMDL
MODEL 10
REMARK VINA RESULT:      -6.6     30.875     32.888
REMARK  Name = 11941475
REMARK  7 active torsions:
REMARK  status: ('A' for Active; 'I' for Inactive)
REMARK    1  A    between atoms: O_5  and  C_27
REMARK    2  A    between atoms: O_5  and  C_32
REMARK    3  A    between atoms: N_7  and  C_10
REMARK    4  A    between atoms: N_9  and  C_23
REMARK    5  A    between atoms: C_21  and  C_24
REMARK    6  A    between atoms: C_23  and  C_25
REMARK    7  A    between atoms: C_23  and  C_26
REMARK                            x       y       z     vdW  Elec       q    Type
REMARK                         _______ _______ _______ _____ _____    ______ ____
ROOT
ATOM      2  O   UNL     1     -12.614  -3.205  12.437  0.00  0.00    -0.273 OA
ATOM      3  O   UNL     1     -14.386  -8.080  13.358  0.00  0.00    -0.270 OA
ATOM      6  N   UNL     1     -13.394  -6.394  12.150  0.00  0.00    -0.284 N 
ATOM      8  N   UNL     1     -12.155  -4.630  14.153  0.00  0.00    -0.283 N 
ATOM     10  C   UNL     1     -12.449  -5.132  10.387  0.00  0.00    +0.105 C 
ATOM     11  C   UNL     1     -12.270  -5.521  11.861  0.00  0.00    +0.183 C 
ATOM     12  C   UNL     1     -13.958  -5.252  10.166  0.00  0.00    +0.043 C 
ATOM     13  C   UNL     1     -14.351  -6.423  11.054  0.00  0.00    +0.111 C 
ATOM     14  C   UNL     1     -12.401  -4.355  12.824  0.00  0.00    +0.240 C 
ATOM     15  C   UNL     1     -13.497  -7.239  13.234  0.00  0.00    +0.249 C 
ATOM     16  C   UNL     1     -12.493  -7.109  14.322  0.00  0.00    +0.059 A 
ATOM     17  C   UNL     1     -11.968  -5.885  14.771  0.00  0.00    +0.046 A 
ATOM     19  C   UNL     1     -12.201  -8.289  15.031  0.00  0.00    +0.023 A 
ATOM     20  C   UNL     1     -11.217  -5.866  15.961  0.00  0.00    +0.024 A 
ATOM     21  C   UNL     1     -11.416  -8.256  16.181  0.00  0.00    -0.014 A 
ATOM     22  C   UNL     1     -10.933  -7.043  16.654  0.00  0.00    +0.010 A 
ATOM     34  H   UNL     1     -12.009  -3.817  14.746  0.00  0.00    +0.155 HD
ENDROOT
BRANCH  21  24
ATOM      1 CL   UNL     1     -12.778 -11.592  19.865  0.00  0.00    -0.084 Cl
ATOM     24  C   UNL     1     -11.123  -9.480  16.895  0.00  0.00    +0.025 A 
ATOM     27  C   UNL     1      -9.996 -10.242  16.580  0.00  0.00    +0.128 A 
ATOM     28  C   UNL     1     -11.983  -9.899  17.913  0.00  0.00    +0.032 A 
ATOM     29  C   UNL     1      -9.730 -11.419  17.279  0.00  0.00    +0.047 A 
ATOM     30  C   UNL     1     -11.717 -11.076  18.612  0.00  0.00    +0.042 A 
ATOM     31  C   UNL     1     -10.591 -11.836  18.296  0.00  0.00    +0.023 A 
BRANCH  27   5
ATOM      5  O   UNL     1      -9.139  -9.859  15.591  0.00  0.00    -0.495 OA
ATOM     32  C   UNL     1      -7.747 -10.057  15.829  0.00  0.00    +0.277 C 
ENDBRANCH  27   5
ENDBRANCH  21  24
BRANCH  10   7
ATOM      4  O   UNL     1      -9.972  -4.599   9.007  0.00  0.00    -0.253 OA
ATOM      7  N   UNL     1     -11.721  -6.034   9.523  0.00  0.00    -0.294 N 
ATOM      9  N   UNL     1     -10.041  -6.742   8.123  0.00  0.00    -0.297 N 
ATOM     18  C   UNL     1     -10.528  -5.690   8.895  0.00  0.00    +0.300 C 
ATOM     33  H   UNL     1     -12.135  -6.936   9.306  0.00  0.00    +0.151 HD
ATOM     35  H   UNL     1     -10.532  -7.631   8.156  0.00  0.00    +0.150 HD
BRANCH   9  23
ATOM     23  C   UNL     1      -8.817  -6.656   7.363  0.00  0.00    +0.068 C 
ATOM     25  C   UNL     1      -9.004  -7.274   5.984  0.00  0.00    +0.027 C 
ATOM     26  C   UNL     1      -7.672  -7.322   8.117  0.00  0.00    +0.027 C 
ENDBRANCH   9  23
ENDBRANCH  10   7
TORSDOF 4
ENDMDL
