REMARK  Name = 11913358
REMARK  5 active torsions:
REMARK  status: ('A' for Active; 'I' for Inactive)
REMARK    1  A    between atoms: N_5  and  C_12
REMARK    2  A    between atoms: N_6  and  C_13
REMARK    3  A    between atoms: N_7  and  C_19
REMARK    4  A    between atoms: C_18  and  C_22
REMARK    5  A    between atoms: C_19  and  C_23
REMARK                            x       y       z     vdW  Elec       q    Type
REMARK                         _______ _______ _______ _____ _____    ______ ____
ROOT
ATOM      2  O   UNL     1      -2.140  -2.312  -1.851  0.00  0.00    -0.370 OA
ATOM      3  O   UNL     1      -0.705   0.446  -2.120  0.00  0.00    -0.370 OA
ATOM     10  C   UNL     1      -0.755  -0.540  -1.075  0.00  0.00    +0.171 C 
ATOM     11  C   UNL     1      -2.160  -1.111  -1.062  0.00  0.00    +0.171 C 
ATOM     12  C   UNL     1       0.120  -1.720  -1.425  0.00  0.00    +0.130 C 
ATOM     13  C   UNL     1      -2.995  -0.049  -1.741  0.00  0.00    +0.131 C 
ATOM     14  C   UNL     1      -0.796  -2.571  -2.283  0.00  0.00    +0.185 C 
ATOM     15  C   UNL     1      -2.006   0.569  -2.713  0.00  0.00    +0.185 C 
ENDROOT
BRANCH  12   5
ATOM      5  N   UNL     1       0.489  -2.436  -0.223  0.00  0.00    -0.306 N 
ATOM      8  N   UNL     1       2.313  -1.020   0.194  0.00  0.00    -0.214 NA
ATOM      9  N   UNL     1       1.802  -2.849   1.678  0.00  0.00    -0.223 NA
ATOM     16  C   UNL     1       1.566  -2.091   0.573  0.00  0.00    +0.216 A 
ATOM     18  C   UNL     1       3.355  -0.712   0.993  0.00  0.00    +0.076 A 
ATOM     20  C   UNL     1       2.860  -2.485   2.431  0.00  0.00    +0.116 A 
ATOM     21  C   UNL     1       3.680  -1.415   2.135  0.00  0.00    +0.048 A 
ATOM     30  H   UNL     1      -0.091  -3.204   0.097  0.00  0.00    +0.149 HD
BRANCH  18  22
ATOM      1  F   UNL     1       3.693   3.569  -1.217  0.00  0.00    -0.205 F 
ATOM     22  C   UNL     1       4.133   0.429   0.573  0.00  0.00    +0.003 A 
ATOM     24  C   UNL     1       3.526   1.469  -0.134  0.00  0.00    +0.048 A 
ATOM     25  C   UNL     1       5.496   0.496   0.872  0.00  0.00    +0.010 A 
ATOM     26  C   UNL     1       4.278   2.572  -0.539  0.00  0.00    +0.124 A 
ATOM     27  C   UNL     1       6.248   1.599   0.466  0.00  0.00    +0.003 A 
ATOM     29  C   UNL     1       5.639   2.637  -0.240  0.00  0.00    +0.038 A 
ENDBRANCH  18  22
ENDBRANCH  12   5
BRANCH  13   6
ATOM      4  O   UNL     1      -5.546  -0.043  -0.391  0.00  0.00    -0.253 OA
ATOM      6  N   UNL     1      -3.473   0.925  -0.790  0.00  0.00    -0.292 N 
ATOM      7  N   UNL     1      -4.931   1.917   0.688  0.00  0.00    -0.296 N 
ATOM     17  C   UNL     1      -4.726   0.851  -0.184  0.00  0.00    +0.300 C 
ATOM     31  H   UNL     1      -2.844   1.668  -0.500  0.00  0.00    +0.151 HD
ATOM     32  H   UNL     1      -4.188   2.598   0.809  0.00  0.00    +0.151 HD
BRANCH   7  19
ATOM     19  C   UNL     1      -6.147   2.084   1.448  0.00  0.00    +0.132 C 
BRANCH  19  23
ATOM     23  C   UNL     1      -6.003   1.385   2.759  0.00  0.00    -0.016 C 
ATOM     28  C   UNL     1      -6.815   0.407   3.176  0.00  0.00    +0.005 C 
ENDBRANCH  19  23
ENDBRANCH   7  19
ENDBRANCH  13   6
TORSDOF 5
