MODEL 1
REMARK VINA RESULT:      -8.1      0.000      0.000
REMARK  Name = 7049286
REMARK  11 active torsions:
REMARK  status: ('A' for Active; 'I' for Inactive)
REMARK    1  A    between atoms: O_3  and  C_13
REMARK    2  A    between atoms: O_4  and  C_14
REMARK    3  A    between atoms: O_8  and  C_30
REMARK    4  A    between atoms: O_8  and  C_36
REMARK    5  A    between atoms: N_9  and  C_15
REMARK    6  A    between atoms: N_10  and  C_20
REMARK    7  A    between atoms: N_11  and  C_27
REMARK    8  A    between atoms: C_17  and  C_19
REMARK    9  A    between atoms: C_20  and  C_22
REMARK   10  A    between atoms: C_20  and  C_24
REMARK   11  A    between atoms: C_22  and  C_23
REMARK                            x       y       z     vdW  Elec       q    Type
REMARK                         _______ _______ _______ _____ _____    ______ ____
ROOT
ATOM     13  C   UNL     1     -17.442   1.259  25.987  0.00  0.00    +0.167 C 
ATOM     14  C   UNL     1     -18.071   0.942  27.350  0.00  0.00    +0.149 C 
ATOM     15  C   UNL     1     -16.845   2.679  25.957  0.00  0.00    +0.129 C 
ATOM     16  C   UNL     1     -17.072   1.126  28.505  0.00  0.00    +0.074 C 
ATOM     17  C   UNL     1     -16.167   2.311  28.328  0.00  0.00    +0.015 C 
ATOM     18  C   UNL     1     -16.062   3.021  27.195  0.00  0.00    +0.006 C 
ENDROOT
BRANCH  15   9
ATOM      6  O   UNL     1     -16.406   5.141  24.561  0.00  0.00    -0.252 OA
ATOM      9  N   UNL     1     -16.004   2.878  24.801  0.00  0.00    -0.290 N 
ATOM     11  N   UNL     1     -14.971   4.007  23.089  0.00  0.00    -0.267 N 
ATOM     21  C   UNL     1     -15.842   4.119  24.177  0.00  0.00    +0.304 C 
ATOM     37  H   UNL     1     -15.439   2.098  24.478  0.00  0.00    +0.151 HD
ATOM     41  H   UNL     1     -14.589   3.083  22.903  0.00  0.00    +0.156 HD
BRANCH  11  27
ATOM      1  F   UNL     1     -12.294   4.703  22.862  0.00  0.00    -0.203 F 
ATOM      2  F   UNL     1     -13.342   7.994  19.629  0.00  0.00    -0.205 F 
ATOM     27  C   UNL     1     -14.552   5.028  22.204  0.00  0.00    +0.070 A 
ATOM     31  C   UNL     1     -13.206   5.345  22.119  0.00  0.00    +0.147 A 
ATOM     32  C   UNL     1     -15.499   5.689  21.439  0.00  0.00    +0.029 A 
ATOM     33  C   UNL     1     -12.795   6.351  21.245  0.00  0.00    +0.078 A 
ATOM     34  C   UNL     1     -15.088   6.696  20.565  0.00  0.00    +0.040 A 
ATOM     35  C   UNL     1     -13.736   7.026  20.468  0.00  0.00    +0.126 A 
ENDBRANCH  11  27
ENDBRANCH  15   9
BRANCH  17  19
ATOM      5  O   UNL     1     -14.430   3.535  29.332  0.00  0.00    -0.271 OA
ATOM     10  N   UNL     1     -15.754   2.154  30.663  0.00  0.00    -0.300 N 
ATOM     19  C   UNL     1     -15.357   2.739  29.473  0.00  0.00    +0.241 C 
ATOM     40  H   UNL     1     -16.519   1.485  30.655  0.00  0.00    +0.150 HD
BRANCH  10  20
ATOM     20  C   UNL     1     -15.106   2.418  31.927  0.00  0.00    +0.163 C 
BRANCH  20  24
ATOM      7  O   UNL     1     -14.858   0.003  32.030  0.00  0.00    -0.274 OA
ATOM     12  N   UNL     1     -14.769   1.202  33.988  0.00  0.00    -0.328 N 
ATOM     24  C   UNL     1     -14.917   1.078  32.622  0.00  0.00    +0.231 C 
ATOM     42  H   UNL     1     -14.815   2.096  34.464  0.00  0.00    +0.145 HD
ATOM     43  H   UNL     1     -14.620   0.384  34.570  0.00  0.00    +0.145 HD
ENDBRANCH  20  24
BRANCH  20  22
ATOM     22  C   UNL     1     -15.923   3.368  32.810  0.00  0.00    +0.067 C 
BRANCH  22  23
ATOM     23  C   UNL     1     -15.137   4.579  33.251  0.00  0.00    -0.045 A 
ATOM     25  C   UNL     1     -14.766   4.700  34.580  0.00  0.00    +0.007 A 
ATOM     26  C   UNL     1     -14.801   5.547  32.318  0.00  0.00    +0.007 A 
ATOM     28  C   UNL     1     -14.039   5.818  34.988  0.00  0.00    +0.046 A 
ATOM     29  C   UNL     1     -14.074   6.665  32.726  0.00  0.00    +0.046 A 
ATOM     30  C   UNL     1     -13.694   6.802  34.061  0.00  0.00    +0.120 A 
BRANCH  30   8
ATOM      8  O   UNL     1     -12.984   7.893  34.459  0.00  0.00    -0.495 OA
ATOM     36  C   UNL     1     -12.485   7.890  35.796  0.00  0.00    +0.277 C 
ENDBRANCH  30   8
ENDBRANCH  22  23
ENDBRANCH  20  22
ENDBRANCH  10  20
ENDBRANCH  17  19
BRANCH  13   3
ATOM      3  O   UNL     1     -16.414   0.301  25.722  0.00  0.00    -0.387 OA
ATOM     38  H   UNL     1     -16.259  -0.224  26.525  0.00  0.00    +0.210 HD
ENDBRANCH  13   3
BRANCH  14   4
ATOM      4  O   UNL     1     -19.220   1.760  27.562  0.00  0.00    -0.389 OA
ATOM     39  H   UNL     1     -19.742   1.354  28.274  0.00  0.00    +0.210 HD
ENDBRANCH  14   4
TORSDOF 10
ENDMDL
MODEL 2
REMARK VINA RESULT:      -7.4      1.719      2.024
REMARK  Name = 7049286
REMARK  11 active torsions:
REMARK  status: ('A' for Active; 'I' for Inactive)
REMARK    1  A    between atoms: O_3  and  C_13
REMARK    2  A    between atoms: O_4  and  C_14
REMARK    3  A    between atoms: O_8  and  C_30
REMARK    4  A    between atoms: O_8  and  C_36
REMARK    5  A    between atoms: N_9  and  C_15
REMARK    6  A    between atoms: N_10  and  C_20
REMARK    7  A    between atoms: N_11  and  C_27
REMARK    8  A    between atoms: C_17  and  C_19
REMARK    9  A    between atoms: C_20  and  C_22
REMARK   10  A    between atoms: C_20  and  C_24
REMARK   11  A    between atoms: C_22  and  C_23
REMARK                            x       y       z     vdW  Elec       q    Type
REMARK                         _______ _______ _______ _____ _____    ______ ____
ROOT
ATOM     13  C   UNL     1     -17.672   2.607  25.027  0.00  0.00    +0.167 C 
ATOM     14  C   UNL     1     -18.688   2.037  26.025  0.00  0.00    +0.149 C 
ATOM     15  C   UNL     1     -16.570   3.411  25.740  0.00  0.00    +0.129 C 
ATOM     16  C   UNL     1     -18.015   1.176  27.107  0.00  0.00    +0.074 C 
ATOM     17  C   UNL     1     -16.697   1.726  27.574  0.00  0.00    +0.015 C 
ATOM     18  C   UNL     1     -16.043   2.733  26.976  0.00  0.00    +0.006 C 
ENDROOT
BRANCH  15   9
ATOM      6  O   UNL     1     -16.449   5.477  23.760  0.00  0.00    -0.252 OA
ATOM      9  N   UNL     1     -15.464   3.697  24.858  0.00  0.00    -0.290 N 
ATOM     11  N   UNL     1     -14.281   4.768  23.207  0.00  0.00    -0.267 N 
ATOM     21  C   UNL     1     -15.485   4.730  23.914  0.00  0.00    +0.304 C 
ATOM     37  H   UNL     1     -14.601   3.177  24.984  0.00  0.00    +0.151 HD
ATOM     41  H   UNL     1     -13.581   4.073  23.457  0.00  0.00    +0.156 HD
BRANCH  11  27
ATOM      1  F   UNL     1     -11.639   4.990  22.383  0.00  0.00    -0.203 F 
ATOM      2  F   UNL     1     -12.834   8.251  19.170  0.00  0.00    -0.205 F 
ATOM     27  C   UNL     1     -13.908   5.659  22.173  0.00  0.00    +0.070 A 
ATOM     31  C   UNL     1     -12.579   5.740  21.791  0.00  0.00    +0.147 A 
ATOM     32  C   UNL     1     -14.883   6.433  21.564  0.00  0.00    +0.029 A 
ATOM     33  C   UNL     1     -12.214   6.620  20.771  0.00  0.00    +0.078 A 
ATOM     34  C   UNL     1     -14.518   7.312  20.545  0.00  0.00    +0.040 A 
ATOM     35  C   UNL     1     -13.184   7.405  20.149  0.00  0.00    +0.126 A 
ENDBRANCH  11  27
ENDBRANCH  15   9
BRANCH  17  19
ATOM      5  O   UNL     1     -16.672   0.269  29.417  0.00  0.00    -0.271 OA
ATOM     10  N   UNL     1     -14.848   1.679  29.067  0.00  0.00    -0.300 N 
ATOM     19  C   UNL     1     -16.091   1.142  28.774  0.00  0.00    +0.241 C 
ATOM     40  H   UNL     1     -14.478   2.419  28.478  0.00  0.00    +0.150 HD
BRANCH  10  20
ATOM     20  C   UNL     1     -14.057   1.263  30.202  0.00  0.00    +0.163 C 
BRANCH  20  24
ATOM      7  O   UNL     1     -13.204  -0.816  29.280  0.00  0.00    -0.274 OA
ATOM     12  N   UNL     1     -14.601  -0.913  31.101  0.00  0.00    -0.328 N 
ATOM     24  C   UNL     1     -13.906  -0.248  30.113  0.00  0.00    +0.231 C 
ATOM     42  H   UNL     1     -15.173  -0.431  31.786  0.00  0.00    +0.145 HD
ATOM     43  H   UNL     1     -14.572  -1.925  31.165  0.00  0.00    +0.145 HD
ENDBRANCH  20  24
BRANCH  20  22
ATOM     22  C   UNL     1     -14.705   1.657  31.534  0.00  0.00    +0.067 C 
BRANCH  22  23
ATOM     23  C   UNL     1     -14.758   3.152  31.739  0.00  0.00    -0.045 A 
ATOM     25  C   UNL     1     -13.665   3.800  32.293  0.00  0.00    +0.007 A 
ATOM     26  C   UNL     1     -15.898   3.848  31.370  0.00  0.00    +0.007 A 
ATOM     28  C   UNL     1     -13.714   5.182  32.482  0.00  0.00    +0.046 A 
ATOM     29  C   UNL     1     -15.946   5.229  31.560  0.00  0.00    +0.046 A 
ATOM     30  C   UNL     1     -14.855   5.896  32.116  0.00  0.00    +0.120 A 
BRANCH  30   8
ATOM      8  O   UNL     1     -14.901   7.244  32.301  0.00  0.00    -0.495 OA
ATOM     36  C   UNL     1     -14.182   7.772  33.413  0.00  0.00    +0.277 C 
ENDBRANCH  30   8
ENDBRANCH  22  23
ENDBRANCH  20  22
ENDBRANCH  10  20
ENDBRANCH  17  19
BRANCH  13   3
ATOM      3  O   UNL     1     -17.084   1.524  24.302  0.00  0.00    -0.387 OA
ATOM     38  H   UNL     1     -17.523   1.448  23.439  0.00  0.00    +0.210 HD
ENDBRANCH  13   3
BRANCH  14   4
ATOM      4  O   UNL     1     -19.427   3.096  26.632  0.00  0.00    -0.389 OA
ATOM     39  H   UNL     1     -20.321   2.762  26.815  0.00  0.00    +0.210 HD
ENDBRANCH  14   4
TORSDOF 10
ENDMDL
MODEL 3
REMARK VINA RESULT:      -7.3     33.219     37.628
REMARK  Name = 7049286
REMARK  11 active torsions:
REMARK  status: ('A' for Active; 'I' for Inactive)
REMARK    1  A    between atoms: O_3  and  C_13
REMARK    2  A    between atoms: O_4  and  C_14
REMARK    3  A    between atoms: O_8  and  C_30
REMARK    4  A    between atoms: O_8  and  C_36
REMARK    5  A    between atoms: N_9  and  C_15
REMARK    6  A    between atoms: N_10  and  C_20
REMARK    7  A    between atoms: N_11  and  C_27
REMARK    8  A    between atoms: C_17  and  C_19
REMARK    9  A    between atoms: C_20  and  C_22
REMARK   10  A    between atoms: C_20  and  C_24
REMARK   11  A    between atoms: C_22  and  C_23
REMARK                            x       y       z     vdW  Elec       q    Type
REMARK                         _______ _______ _______ _____ _____    ______ ____
ROOT
ATOM     13  C   UNL     1      15.549   8.803   4.376  0.00  0.00    +0.167 C 
ATOM     14  C   UNL     1      14.992   9.837   5.363  0.00  0.00    +0.149 C 
ATOM     15  C   UNL     1      15.286   7.364   4.858  0.00  0.00    +0.129 C 
ATOM     16  C   UNL     1      13.492   9.630   5.633  0.00  0.00    +0.074 C 
ATOM     17  C   UNL     1      13.096   8.184   5.723  0.00  0.00    +0.015 C 
ATOM     18  C   UNL     1      13.892   7.159   5.387  0.00  0.00    +0.006 C 
ENDROOT
BRANCH  15   9
ATOM      6  O   UNL     1      13.549   6.714   2.676  0.00  0.00    -0.252 OA
ATOM      9  N   UNL     1      15.536   6.399   3.814  0.00  0.00    -0.290 N 
ATOM     11  N   UNL     1      15.141   5.164   1.920  0.00  0.00    -0.267 N 
ATOM     21  C   UNL     1      14.631   6.141   2.779  0.00  0.00    +0.304 C 
ATOM     37  H   UNL     1      16.444   5.948   3.784  0.00  0.00    +0.151 HD
ATOM     41  H   UNL     1      16.057   4.786   2.149  0.00  0.00    +0.156 HD
BRANCH  11  27
ATOM      1  F   UNL     1      13.282   3.109   2.089  0.00  0.00    -0.203 F 
ATOM      2  F   UNL     1      12.783   3.068  -2.615  0.00  0.00    -0.205 F 
ATOM     27  C   UNL     1      14.536   4.626   0.760  0.00  0.00    +0.070 A 
ATOM     31  C   UNL     1      13.612   3.601   0.887  0.00  0.00    +0.147 A 
ATOM     32  C   UNL     1      14.881   5.137  -0.481  0.00  0.00    +0.029 A 
ATOM     33  C   UNL     1      13.017   3.073  -0.259  0.00  0.00    +0.078 A 
ATOM     34  C   UNL     1      14.285   4.609  -1.626  0.00  0.00    +0.040 A 
ATOM     35  C   UNL     1      13.354   3.576  -1.515  0.00  0.00    +0.126 A 
ENDBRANCH  11  27
ENDBRANCH  15   9
BRANCH  17  19
ATOM      5  O   UNL     1      10.974   8.756   6.557  0.00  0.00    -0.271 OA
ATOM     10  N   UNL     1      11.513   6.503   6.288  0.00  0.00    -0.300 N 
ATOM     19  C   UNL     1      11.758   7.865   6.230  0.00  0.00    +0.241 C 
ATOM     40  H   UNL     1      12.249   5.856   6.018  0.00  0.00    +0.150 HD
BRANCH  10  20
ATOM     20  C   UNL     1      10.266   5.945   6.757  0.00  0.00    +0.163 C 
BRANCH  20  24
ATOM      7  O   UNL     1      11.034   5.828   9.059  0.00  0.00    -0.274 OA
ATOM     12  N   UNL     1      10.168   3.933   8.092  0.00  0.00    -0.328 N 
ATOM     24  C   UNL     1      10.553   5.258   8.083  0.00  0.00    +0.231 C 
ATOM     42  H   UNL     1       9.768   3.475   7.280  0.00  0.00    +0.145 HD
ATOM     43  H   UNL     1      10.290   3.362   8.922  0.00  0.00    +0.145 HD
ENDBRANCH  20  24
BRANCH  20  22
ATOM     22  C   UNL     1       9.665   4.950   5.758  0.00  0.00    +0.067 C 
BRANCH  22  23
ATOM     23  C   UNL     1       9.811   5.399   4.324  0.00  0.00    -0.045 A 
ATOM     25  C   UNL     1       9.281   6.620   3.939  0.00  0.00    +0.007 A 
ATOM     26  C   UNL     1      10.473   4.583   3.421  0.00  0.00    +0.007 A 
ATOM     28  C   UNL     1       9.416   7.036   2.614  0.00  0.00    +0.046 A 
ATOM     29  C   UNL     1      10.608   4.999   2.096  0.00  0.00    +0.046 A 
ATOM     30  C   UNL     1      10.079   6.225   1.693  0.00  0.00    +0.120 A 
BRANCH  30   8
ATOM      8  O   UNL     1      10.211   6.632   0.401  0.00  0.00    -0.495 OA
ATOM     36  C   UNL     1      11.538   6.822  -0.088  0.00  0.00    +0.277 C 
ENDBRANCH  30   8
ENDBRANCH  22  23
ENDBRANCH  20  22
ENDBRANCH  10  20
ENDBRANCH  17  19
BRANCH  13   3
ATOM      3  O   UNL     1      14.929   9.004   3.103  0.00  0.00    -0.387 OA
ATOM     38  H   UNL     1      14.691   8.139   2.730  0.00  0.00    +0.210 HD
ENDBRANCH  13   3
BRANCH  14   4
ATOM      4  O   UNL     1      15.721   9.788   6.589  0.00  0.00    -0.389 OA
ATOM     39  H   UNL     1      15.188   9.285   7.227  0.00  0.00    +0.210 HD
ENDBRANCH  14   4
TORSDOF 10
ENDMDL
MODEL 4
REMARK VINA RESULT:      -7.2     29.048     32.367
REMARK  Name = 7049286
REMARK  11 active torsions:
REMARK  status: ('A' for Active; 'I' for Inactive)
REMARK    1  A    between atoms: O_3  and  C_13
REMARK    2  A    between atoms: O_4  and  C_14
REMARK    3  A    between atoms: O_8  and  C_30
REMARK    4  A    between atoms: O_8  and  C_36
REMARK    5  A    between atoms: N_9  and  C_15
REMARK    6  A    between atoms: N_10  and  C_20
REMARK    7  A    between atoms: N_11  and  C_27
REMARK    8  A    between atoms: C_17  and  C_19
REMARK    9  A    between atoms: C_20  and  C_22
REMARK   10  A    between atoms: C_20  and  C_24
REMARK   11  A    between atoms: C_22  and  C_23
REMARK                            x       y       z     vdW  Elec       q    Type
REMARK                         _______ _______ _______ _____ _____    ______ ____
ROOT
ATOM     13  C   UNL     1      12.354   7.423  21.864  0.00  0.00    +0.167 C 
ATOM     14  C   UNL     1      11.021   8.064  21.455  0.00  0.00    +0.149 C 
ATOM     15  C   UNL     1      12.971   6.618  20.705  0.00  0.00    +0.129 C 
ATOM     16  C   UNL     1      11.164   8.950  20.206  0.00  0.00    +0.074 C 
ATOM     17  C   UNL     1      12.097   8.382  19.175  0.00  0.00    +0.015 C 
ATOM     18  C   UNL     1      12.905   7.332  19.382  0.00  0.00    +0.006 C 
ENDROOT
BRANCH  15   9
ATOM      6  O   UNL     1      15.262   8.320  20.461  0.00  0.00    -0.252 OA
ATOM      9  N   UNL     1      14.343   6.262  20.976  0.00  0.00    -0.290 N 
ATOM     11  N   UNL     1      16.615   6.536  21.164  0.00  0.00    -0.267 N 
ATOM     21  C   UNL     1      15.408   7.158  20.832  0.00  0.00    +0.304 C 
ATOM     37  H   UNL     1      14.534   5.345  21.367  0.00  0.00    +0.151 HD
ATOM     41  H   UNL     1      16.564   5.562  21.452  0.00  0.00    +0.156 HD
BRANCH  11  27
ATOM      1  F   UNL     1      18.767   5.150  20.090  0.00  0.00    -0.203 F 
ATOM      2  F   UNL     1      21.684   8.733  21.108  0.00  0.00    -0.205 F 
ATOM     27  C   UNL     1      17.914   7.097  21.149  0.00  0.00    +0.070 A 
ATOM     31  C   UNL     1      18.961   6.373  20.603  0.00  0.00    +0.147 A 
ATOM     32  C   UNL     1      18.110   8.361  21.680  0.00  0.00    +0.029 A 
ATOM     33  C   UNL     1      20.241   6.928  20.589  0.00  0.00    +0.078 A 
ATOM     34  C   UNL     1      19.390   8.916  21.666  0.00  0.00    +0.040 A 
ATOM     35  C   UNL     1      20.455   8.200  21.121  0.00  0.00    +0.126 A 
ENDBRANCH  11  27
ENDBRANCH  15   9
BRANCH  17  19
ATOM      5  O   UNL     1      11.191   8.821  17.052  0.00  0.00    -0.271 OA
ATOM     10  N   UNL     1      13.247   9.762  17.619  0.00  0.00    -0.300 N 
ATOM     19  C   UNL     1      12.114   8.999  17.845  0.00  0.00    +0.241 C 
ATOM     40  H   UNL     1      13.961   9.815  18.341  0.00  0.00    +0.150 HD
BRANCH  10  20
ATOM     20  C   UNL     1      13.490  10.466  16.381  0.00  0.00    +0.163 C 
BRANCH  20  24
ATOM      7  O   UNL     1      14.005   8.369  15.267  0.00  0.00    -0.274 OA
ATOM     12  N   UNL     1      15.394  10.166  14.922  0.00  0.00    -0.328 N 
ATOM     24  C   UNL     1      14.305   9.538  15.492  0.00  0.00    +0.231 C 
ATOM     42  H   UNL     1      15.628  11.134  15.113  0.00  0.00    +0.145 HD
ATOM     43  H   UNL     1      16.013   9.664  14.295  0.00  0.00    +0.145 HD
ENDBRANCH  20  24
BRANCH  20  22
ATOM     22  C   UNL     1      14.236  11.786  16.601  0.00  0.00    +0.067 C 
BRANCH  22  23
ATOM     23  C   UNL     1      14.438  12.106  18.063  0.00  0.00    -0.045 A 
ATOM     25  C   UNL     1      13.443  12.778  18.754  0.00  0.00    +0.007 A 
ATOM     26  C   UNL     1      15.615  11.723  18.686  0.00  0.00    +0.007 A 
ATOM     28  C   UNL     1      13.629  13.075  20.105  0.00  0.00    +0.046 A 
ATOM     29  C   UNL     1      15.801  12.019  20.036  0.00  0.00    +0.046 A 
ATOM     30  C   UNL     1      14.809  12.696  20.745  0.00  0.00    +0.120 A 
BRANCH  30   8
ATOM      8  O   UNL     1      14.989  12.984  22.063  0.00  0.00    -0.495 OA
ATOM     36  C   UNL     1      14.189  12.265  23.000  0.00  0.00    +0.277 C 
ENDBRANCH  30   8
ENDBRANCH  22  23
ENDBRANCH  20  22
ENDBRANCH  10  20
ENDBRANCH  17  19
BRANCH  13   3
ATOM      3  O   UNL     1      13.257   8.457  22.265  0.00  0.00    -0.387 OA
ATOM     38  H   UNL     1      13.175   9.202  21.647  0.00  0.00    +0.210 HD
ENDBRANCH  13   3
BRANCH  14   4
ATOM      4  O   UNL     1      10.039   7.055  21.229  0.00  0.00    -0.389 OA
ATOM     39  H   UNL     1       9.736   6.740  22.097  0.00  0.00    +0.210 HD
ENDBRANCH  14   4
TORSDOF 10
ENDMDL
MODEL 5
REMARK VINA RESULT:      -7.2      1.965      2.389
REMARK  Name = 7049286
REMARK  11 active torsions:
REMARK  status: ('A' for Active; 'I' for Inactive)
REMARK    1  A    between atoms: O_3  and  C_13
REMARK    2  A    between atoms: O_4  and  C_14
REMARK    3  A    between atoms: O_8  and  C_30
REMARK    4  A    between atoms: O_8  and  C_36
REMARK    5  A    between atoms: N_9  and  C_15
REMARK    6  A    between atoms: N_10  and  C_20
REMARK    7  A    between atoms: N_11  and  C_27
REMARK    8  A    between atoms: C_17  and  C_19
REMARK    9  A    between atoms: C_20  and  C_22
REMARK   10  A    between atoms: C_20  and  C_24
REMARK   11  A    between atoms: C_22  and  C_23
REMARK                            x       y       z     vdW  Elec       q    Type
REMARK                         _______ _______ _______ _____ _____    ______ ____
ROOT
ATOM     13  C   UNL     1     -17.256   1.250  25.339  0.00  0.00    +0.167 C 
ATOM     14  C   UNL     1     -18.019   0.981  26.643  0.00  0.00    +0.149 C 
ATOM     15  C   UNL     1     -16.950   2.749  25.165  0.00  0.00    +0.129 C 
ATOM     16  C   UNL     1     -17.270   1.519  27.873  0.00  0.00    +0.074 C 
ATOM     17  C   UNL     1     -16.596   2.839  27.631  0.00  0.00    +0.015 C 
ATOM     18  C   UNL     1     -16.453   3.406  26.424  0.00  0.00    +0.006 C 
ENDROOT
BRANCH  15   9
ATOM      6  O   UNL     1     -16.215   5.276  24.032  0.00  0.00    -0.252 OA
ATOM      9  N   UNL     1     -15.990   2.977  24.110  0.00  0.00    -0.290 N 
ATOM     11  N   UNL     1     -14.727   4.160  22.601  0.00  0.00    -0.267 N 
ATOM     21  C   UNL     1     -15.687   4.249  23.613  0.00  0.00    +0.304 C 
ATOM     37  H   UNL     1     -15.452   2.186  23.771  0.00  0.00    +0.151 HD
ATOM     41  H   UNL     1     -14.392   3.227  22.370  0.00  0.00    +0.156 HD
BRANCH  11  27
ATOM      1  F   UNL     1     -16.284   5.740  20.933  0.00  0.00    -0.203 F 
ATOM      2  F   UNL     1     -12.495   8.273  19.666  0.00  0.00    -0.205 F 
ATOM     27  C   UNL     1     -14.158   5.213  21.849  0.00  0.00    +0.070 A 
ATOM     31  C   UNL     1     -14.969   5.980  21.028  0.00  0.00    +0.147 A 
ATOM     32  C   UNL     1     -12.798   5.457  21.950  0.00  0.00    +0.029 A 
ATOM     33  C   UNL     1     -14.405   7.018  20.287  0.00  0.00    +0.078 A 
ATOM     34  C   UNL     1     -12.234   6.496  21.209  0.00  0.00    +0.040 A 
ATOM     35  C   UNL     1     -13.038   7.276  20.378  0.00  0.00    +0.126 A 
ENDBRANCH  11  27
ENDBRANCH  15   9
BRANCH  17  19
ATOM      5  O   UNL     1     -16.207   4.791  28.880  0.00  0.00    -0.271 OA
ATOM     10  N   UNL     1     -15.450   2.749  29.711  0.00  0.00    -0.300 N 
ATOM     19  C   UNL     1     -16.075   3.572  28.790  0.00  0.00    +0.241 C 
ATOM     40  H   UNL     1     -15.375   1.754  29.517  0.00  0.00    +0.150 HD
BRANCH  10  20
ATOM     20  C   UNL     1     -14.857   3.241  30.933  0.00  0.00    +0.163 C 
BRANCH  20  24
ATOM      7  O   UNL     1     -13.084   2.297  32.301  0.00  0.00    -0.274 OA
ATOM     12  N   UNL     1     -13.182   1.723  30.079  0.00  0.00    -0.328 N 
ATOM     24  C   UNL     1     -13.617   2.400  31.199  0.00  0.00    +0.231 C 
ATOM     42  H   UNL     1     -13.634   1.813  29.176  0.00  0.00    +0.145 HD
ATOM     43  H   UNL     1     -12.372   1.113  30.123  0.00  0.00    +0.145 HD
ENDBRANCH  20  24
BRANCH  20  22
ATOM     22  C   UNL     1     -15.822   3.159  32.121  0.00  0.00    +0.067 C 
BRANCH  22  23
ATOM     23  C   UNL     1     -16.303   4.515  32.578  0.00  0.00    -0.045 A 
ATOM     25  C   UNL     1     -17.607   4.659  33.022  0.00  0.00    +0.007 A 
ATOM     26  C   UNL     1     -15.430   5.591  32.545  0.00  0.00    +0.007 A 
ATOM     28  C   UNL     1     -18.052   5.911  33.445  0.00  0.00    +0.046 A 
ATOM     29  C   UNL     1     -15.875   6.844  32.968  0.00  0.00    +0.046 A 
ATOM     30  C   UNL     1     -17.186   7.004  33.417  0.00  0.00    +0.120 A 
BRANCH  30   8
ATOM      8  O   UNL     1     -17.620   8.226  33.831  0.00  0.00    -0.495 OA
ATOM     36  C   UNL     1     -17.898   9.193  32.819  0.00  0.00    +0.277 C 
ENDBRANCH  30   8
ENDBRANCH  22  23
ENDBRANCH  20  22
ENDBRANCH  10  20
ENDBRANCH  17  19
BRANCH  13   3
ATOM      3  O   UNL     1     -16.034   0.509  25.362  0.00  0.00    -0.387 OA
ATOM     38  H   UNL     1     -15.964   0.043  26.211  0.00  0.00    +0.210 HD
ENDBRANCH  13   3
BRANCH  14   4
ATOM      4  O   UNL     1     -19.324   1.553  26.575  0.00  0.00    -0.389 OA
ATOM     39  H   UNL     1     -19.785   1.333  27.402  0.00  0.00    +0.210 HD
ENDBRANCH  14   4
TORSDOF 10
ENDMDL
MODEL 6
REMARK VINA RESULT:      -6.9     44.532     47.046
REMARK  Name = 7049286
REMARK  11 active torsions:
REMARK  status: ('A' for Active; 'I' for Inactive)
REMARK    1  A    between atoms: O_3  and  C_13
REMARK    2  A    between atoms: O_4  and  C_14
REMARK    3  A    between atoms: O_8  and  C_30
REMARK    4  A    between atoms: O_8  and  C_36
REMARK    5  A    between atoms: N_9  and  C_15
REMARK    6  A    between atoms: N_10  and  C_20
REMARK    7  A    between atoms: N_11  and  C_27
REMARK    8  A    between atoms: C_17  and  C_19
REMARK    9  A    between atoms: C_20  and  C_22
REMARK   10  A    between atoms: C_20  and  C_24
REMARK   11  A    between atoms: C_22  and  C_23
REMARK                            x       y       z     vdW  Elec       q    Type
REMARK                         _______ _______ _______ _____ _____    ______ ____
ROOT
ATOM     13  C   UNL     1      19.826  -3.316  -1.651  0.00  0.00    +0.167 C 
ATOM     14  C   UNL     1      19.002  -2.339  -2.498  0.00  0.00    +0.149 C 
ATOM     15  C   UNL     1      18.963  -4.483  -1.134  0.00  0.00    +0.129 C 
ATOM     16  C   UNL     1      18.298  -3.042  -3.671  0.00  0.00    +0.074 C 
ATOM     17  C   UNL     1      17.763  -4.400  -3.318  0.00  0.00    +0.015 C 
ATOM     18  C   UNL     1      18.046  -5.054  -2.182  0.00  0.00    +0.006 C 
ENDROOT
BRANCH  15   9
ATOM      6  O   UNL     1      19.897  -4.725   1.563  0.00  0.00    -0.252 OA
ATOM      9  N   UNL     1      19.775  -5.547  -0.594  0.00  0.00    -0.290 N 
ATOM     11  N   UNL     1      20.959  -6.734   0.975  0.00  0.00    -0.267 N 
ATOM     21  C   UNL     1      20.189  -5.591   0.741  0.00  0.00    +0.304 C 
ATOM     37  H   UNL     1      19.986  -6.341  -1.191  0.00  0.00    +0.151 HD
ATOM     41  H   UNL     1      21.111  -7.352   0.181  0.00  0.00    +0.156 HD
BRANCH  11  27
ATOM      1  F   UNL     1      19.761  -8.628   2.611  0.00  0.00    -0.203 F 
ATOM      2  F   UNL     1      23.324  -8.322   5.708  0.00  0.00    -0.205 F 
ATOM     27  C   UNL     1      21.563  -7.142   2.187  0.00  0.00    +0.070 A 
ATOM     31  C   UNL     1      20.933  -8.091   2.975  0.00  0.00    +0.147 A 
ATOM     32  C   UNL     1      22.775  -6.583   2.560  0.00  0.00    +0.029 A 
ATOM     33  C   UNL     1      21.530  -8.492   4.170  0.00  0.00    +0.078 A 
ATOM     34  C   UNL     1      23.372  -6.983   3.755  0.00  0.00    +0.040 A 
ATOM     35  C   UNL     1      22.750  -7.937   4.560  0.00  0.00    +0.126 A 
ENDBRANCH  11  27
ENDBRANCH  15   9
BRANCH  17  19
ATOM      5  O   UNL     1      16.974  -4.882  -5.479  0.00  0.00    -0.271 OA
ATOM     10  N   UNL     1      15.899  -5.838  -3.645  0.00  0.00    -0.300 N 
ATOM     19  C   UNL     1      16.854  -5.052  -4.267  0.00  0.00    +0.241 C 
ATOM     40  H   UNL     1      15.878  -5.882  -2.630  0.00  0.00    +0.150 HD
BRANCH  10  20
ATOM     20  C   UNL     1      14.892  -6.578  -4.371  0.00  0.00    +0.163 C 
BRANCH  20  24
ATOM      7  O   UNL     1      13.040  -5.161  -5.055  0.00  0.00    -0.274 OA
ATOM     12  N   UNL     1      13.012  -6.062  -2.942  0.00  0.00    -0.328 N 
ATOM     24  C   UNL     1      13.573  -5.842  -4.183  0.00  0.00    +0.231 C 
ATOM     42  H   UNL     1      13.461  -6.631  -2.232  0.00  0.00    +0.145 HD
ATOM     43  H   UNL     1      12.123  -5.642  -2.692  0.00  0.00    +0.145 HD
ENDBRANCH  20  24
BRANCH  20  22
ATOM     22  C   UNL     1      14.771  -8.025  -3.881  0.00  0.00    +0.067 C 
BRANCH  22  23
ATOM     23  C   UNL     1      16.058  -8.800  -4.024  0.00  0.00    -0.045 A 
ATOM     25  C   UNL     1      16.777  -9.137  -2.889  0.00  0.00    +0.007 A 
ATOM     26  C   UNL     1      16.497  -9.160  -5.288  0.00  0.00    +0.007 A 
ATOM     28  C   UNL     1      17.966  -9.854  -3.020  0.00  0.00    +0.046 A 
ATOM     29  C   UNL     1      17.687  -9.877  -5.419  0.00  0.00    +0.046 A 
ATOM     30  C   UNL     1      18.422 -10.223  -4.286  0.00  0.00    +0.120 A 
BRANCH  30   8
ATOM      8  O   UNL     1      19.582 -10.923  -4.413  0.00  0.00    -0.495 OA
ATOM     36  C   UNL     1      19.915 -11.825  -3.359  0.00  0.00    +0.277 C 
ENDBRANCH  30   8
ENDBRANCH  22  23
ENDBRANCH  20  22
ENDBRANCH  10  20
ENDBRANCH  17  19
BRANCH  13   3
ATOM      3  O   UNL     1      20.896  -3.828  -2.450  0.00  0.00    -0.387 OA
ATOM     38  H   UNL     1      21.741  -3.566  -2.049  0.00  0.00    +0.210 HD
ENDBRANCH  13   3
BRANCH  14   4
ATOM      4  O   UNL     1      18.042  -1.670  -1.682  0.00  0.00    -0.389 OA
ATOM     39  H   UNL     1      17.988  -2.151  -0.839  0.00  0.00    +0.210 HD
ENDBRANCH  14   4
TORSDOF 10
ENDMDL
MODEL 7
REMARK VINA RESULT:      -6.9     29.321     32.090
REMARK  Name = 7049286
REMARK  11 active torsions:
REMARK  status: ('A' for Active; 'I' for Inactive)
REMARK    1  A    between atoms: O_3  and  C_13
REMARK    2  A    between atoms: O_4  and  C_14
REMARK    3  A    between atoms: O_8  and  C_30
REMARK    4  A    between atoms: O_8  and  C_36
REMARK    5  A    between atoms: N_9  and  C_15
REMARK    6  A    between atoms: N_10  and  C_20
REMARK    7  A    between atoms: N_11  and  C_27
REMARK    8  A    between atoms: C_17  and  C_19
REMARK    9  A    between atoms: C_20  and  C_22
REMARK   10  A    between atoms: C_20  and  C_24
REMARK   11  A    between atoms: C_22  and  C_23
REMARK                            x       y       z     vdW  Elec       q    Type
REMARK                         _______ _______ _______ _____ _____    ______ ____
ROOT
ATOM     13  C   UNL     1      12.549   6.900  20.402  0.00  0.00    +0.167 C 
ATOM     14  C   UNL     1      11.249   7.659  20.104  0.00  0.00    +0.149 C 
ATOM     15  C   UNL     1      13.746   7.861  20.531  0.00  0.00    +0.129 C 
ATOM     16  C   UNL     1      10.955   8.740  21.157  0.00  0.00    +0.074 C 
ATOM     17  C   UNL     1      12.184   9.466  21.626  0.00  0.00    +0.015 C 
ATOM     18  C   UNL     1      13.440   9.088  21.346  0.00  0.00    +0.006 C 
ENDROOT
BRANCH  15   9
ATOM      6  O   UNL     1      16.496   8.462  19.998  0.00  0.00    -0.252 OA
ATOM      9  N   UNL     1      14.899   7.201  21.096  0.00  0.00    -0.290 N 
ATOM     11  N   UNL     1      17.118   6.750  21.477  0.00  0.00    -0.267 N 
ATOM     21  C   UNL     1      16.215   7.559  20.782  0.00  0.00    +0.304 C 
ATOM     37  H   UNL     1      14.748   6.502  21.815  0.00  0.00    +0.151 HD
ATOM     41  H   UNL     1      16.719   6.041  22.089  0.00  0.00    +0.156 HD
BRANCH  11  27
ATOM      1  F   UNL     1      18.549   5.188  19.683  0.00  0.00    -0.203 F 
ATOM      2  F   UNL     1      22.637   6.915  21.320  0.00  0.00    -0.205 F 
ATOM     27  C   UNL     1      18.531   6.790  21.435  0.00  0.00    +0.070 A 
ATOM     31  C   UNL     1      19.208   5.996  20.525  0.00  0.00    +0.147 A 
ATOM     32  C   UNL     1      19.209   7.627  22.308  0.00  0.00    +0.029 A 
ATOM     33  C   UNL     1      20.602   6.038  20.485  0.00  0.00    +0.078 A 
ATOM     34  C   UNL     1      20.602   7.669  22.268  0.00  0.00    +0.040 A 
ATOM     35  C   UNL     1      21.299   6.875  21.357  0.00  0.00    +0.126 A 
ENDBRANCH  11  27
ENDBRANCH  15   9
BRANCH  17  19
ATOM      5  O   UNL     1      11.195  11.546  22.094  0.00  0.00    -0.271 OA
ATOM     10  N   UNL     1      12.824  10.717  23.543  0.00  0.00    -0.300 N 
ATOM     19  C   UNL     1      12.004  10.681  22.427  0.00  0.00    +0.241 C 
ATOM     40  H   UNL     1      13.476   9.955  23.703  0.00  0.00    +0.150 HD
BRANCH  10  20
ATOM     20  C   UNL     1      12.828  11.815  24.483  0.00  0.00    +0.163 C 
BRANCH  20  24
ATOM      7  O   UNL     1      10.785  11.150  25.618  0.00  0.00    -0.274 OA
ATOM     12  N   UNL     1      10.874  13.228  24.643  0.00  0.00    -0.328 N 
ATOM     24  C   UNL     1      11.397  11.994  24.968  0.00  0.00    +0.231 C 
ATOM     42  H   UNL     1      11.393  13.918  24.109  0.00  0.00    +0.145 HD
ATOM     43  H   UNL     1       9.933  13.483  24.921  0.00  0.00    +0.145 HD
ENDBRANCH  20  24
BRANCH  20  22
ATOM     22  C   UNL     1      13.346  13.113  23.855  0.00  0.00    +0.067 C 
BRANCH  22  23
ATOM     23  C   UNL     1      14.663  12.932  23.140  0.00  0.00    -0.045 A 
ATOM     25  C   UNL     1      15.782  12.556  23.864  0.00  0.00    +0.007 A 
ATOM     26  C   UNL     1      14.728  13.147  21.772  0.00  0.00    +0.007 A 
ATOM     28  C   UNL     1      17.000  12.388  23.204  0.00  0.00    +0.046 A 
ATOM     29  C   UNL     1      15.945  12.979  21.112  0.00  0.00    +0.046 A 
ATOM     30  C   UNL     1      17.081  12.601  21.827  0.00  0.00    +0.120 A 
BRANCH  30   8
ATOM      8  O   UNL     1      18.269  12.437  21.183  0.00  0.00    -0.495 OA
ATOM     36  C   UNL     1      18.692  11.097  20.935  0.00  0.00    +0.277 C 
ENDBRANCH  30   8
ENDBRANCH  22  23
ENDBRANCH  20  22
ENDBRANCH  10  20
ENDBRANCH  17  19
BRANCH  13   3
ATOM      3  O   UNL     1      12.385   6.171  21.621  0.00  0.00    -0.387 OA
ATOM     38  H   UNL     1      11.621   6.530  22.102  0.00  0.00    +0.210 HD
ENDBRANCH  13   3
BRANCH  14   4
ATOM      4  O   UNL     1      11.311   8.246  18.805  0.00  0.00    -0.389 OA
ATOM     39  H   UNL     1      11.082   7.555  18.160  0.00  0.00    +0.210 HD
ENDBRANCH  14   4
TORSDOF 10
ENDMDL
MODEL 8
REMARK VINA RESULT:      -6.9     17.328     20.543
REMARK  Name = 7049286
REMARK  11 active torsions:
REMARK  status: ('A' for Active; 'I' for Inactive)
REMARK    1  A    between atoms: O_3  and  C_13
REMARK    2  A    between atoms: O_4  and  C_14
REMARK    3  A    between atoms: O_8  and  C_30
REMARK    4  A    between atoms: O_8  and  C_36
REMARK    5  A    between atoms: N_9  and  C_15
REMARK    6  A    between atoms: N_10  and  C_20
REMARK    7  A    between atoms: N_11  and  C_27
REMARK    8  A    between atoms: C_17  and  C_19
REMARK    9  A    between atoms: C_20  and  C_22
REMARK   10  A    between atoms: C_20  and  C_24
REMARK   11  A    between atoms: C_22  and  C_23
REMARK                            x       y       z     vdW  Elec       q    Type
REMARK                         _______ _______ _______ _____ _____    ______ ____
ROOT
ATOM     13  C   UNL     1     -11.716 -10.286  18.892  0.00  0.00    +0.167 C 
ATOM     14  C   UNL     1     -10.873 -10.944  19.992  0.00  0.00    +0.149 C 
ATOM     15  C   UNL     1     -10.837  -9.494  17.906  0.00  0.00    +0.129 C 
ATOM     16  C   UNL     1      -9.772 -11.848  19.415  0.00  0.00    +0.074 C 
ATOM     17  C   UNL     1      -9.128 -11.289  18.178  0.00  0.00    +0.015 C 
ATOM     18  C   UNL     1      -9.589 -10.230  17.497  0.00  0.00    +0.006 C 
ENDROOT
BRANCH  15   9
ATOM      6  O   UNL     1     -10.544  -7.078  16.395  0.00  0.00    -0.252 OA
ATOM      9  N   UNL     1     -11.570  -9.124  16.719  0.00  0.00    -0.290 N 
ATOM     11  N   UNL     1     -12.213  -7.835  14.930  0.00  0.00    -0.267 N 
ATOM     21  C   UNL     1     -11.364  -7.919  16.037  0.00  0.00    +0.304 C 
ATOM     37  H   UNL     1     -12.205  -9.804  16.314  0.00  0.00    +0.151 HD
ATOM     41  H   UNL     1     -12.839  -8.622  14.773  0.00  0.00    +0.156 HD
BRANCH  11  27
ATOM      1  F   UNL     1     -12.044  -8.321  12.202  0.00  0.00    -0.203 F 
ATOM      2  F   UNL     1     -12.609  -3.718  11.268  0.00  0.00    -0.205 F 
ATOM     27  C   UNL     1     -12.314  -6.783  13.990  0.00  0.00    +0.070 A 
ATOM     31  C   UNL     1     -12.225  -7.067  12.637  0.00  0.00    +0.147 A 
ATOM     32  C   UNL     1     -12.501  -5.488  14.445  0.00  0.00    +0.029 A 
ATOM     33  C   UNL     1     -12.325  -6.027  11.713  0.00  0.00    +0.078 A 
ATOM     34  C   UNL     1     -12.601  -4.448  13.521  0.00  0.00    +0.040 A 
ATOM     35  C   UNL     1     -12.513  -4.717  12.155  0.00  0.00    +0.126 A 
ENDBRANCH  11  27
ENDBRANCH  15   9
BRANCH  17  19
ATOM      5  O   UNL     1      -7.920 -13.066  17.228  0.00  0.00    -0.271 OA
ATOM     10  N   UNL     1      -6.785 -11.116  17.816  0.00  0.00    -0.300 N 
ATOM     19  C   UNL     1      -7.901 -11.926  17.690  0.00  0.00    +0.241 C 
ATOM     40  H   UNL     1      -6.885 -10.198  18.240  0.00  0.00    +0.150 HD
BRANCH  10  20
ATOM     20  C   UNL     1      -5.462 -11.526  17.405  0.00  0.00    +0.163 C 
BRANCH  20  24
ATOM      7  O   UNL     1      -4.600 -11.898  19.646  0.00  0.00    -0.274 OA
ATOM     12  N   UNL     1      -4.741 -13.687  18.212  0.00  0.00    -0.328 N 
ATOM     24  C   UNL     1      -4.878 -12.354  18.540  0.00  0.00    +0.231 C 
ATOM     42  H   UNL     1      -4.979 -14.052  17.295  0.00  0.00    +0.145 HD
ATOM     43  H   UNL     1      -4.377 -14.353  18.885  0.00  0.00    +0.145 HD
ENDBRANCH  20  24
BRANCH  20  22
ATOM     22  C   UNL     1      -4.555 -10.331  17.094  0.00  0.00    +0.067 C 
BRANCH  22  23
ATOM     23  C   UNL     1      -3.856 -10.457  15.762  0.00  0.00    -0.045 A 
ATOM     25  C   UNL     1      -4.613 -10.543  14.604  0.00  0.00    +0.007 A 
ATOM     26  C   UNL     1      -2.471 -10.486  15.721  0.00  0.00    +0.007 A 
ATOM     28  C   UNL     1      -3.968 -10.659  13.373  0.00  0.00    +0.046 A 
ATOM     29  C   UNL     1      -1.827 -10.603  14.490  0.00  0.00    +0.046 A 
ATOM     30  C   UNL     1      -2.575 -10.691  13.316  0.00  0.00    +0.120 A 
BRANCH  30   8
ATOM      8  O   UNL     1      -1.946 -10.804  12.114  0.00  0.00    -0.495 OA
ATOM     36  C   UNL     1      -2.343  -9.898  11.086  0.00  0.00    +0.277 C 
ENDBRANCH  30   8
ENDBRANCH  22  23
ENDBRANCH  20  22
ENDBRANCH  10  20
ENDBRANCH  17  19
BRANCH  13   3
ATOM      3  O   UNL     1     -12.429 -11.306  18.187  0.00  0.00    -0.387 OA
ATOM     38  H   UNL     1     -13.352 -11.310  18.489  0.00  0.00    +0.210 HD
ENDBRANCH  13   3
BRANCH  14   4
ATOM      4  O   UNL     1     -10.297  -9.945  20.832  0.00  0.00    -0.389 OA
ATOM     39  H   UNL     1     -10.149 -10.345  21.705  0.00  0.00    +0.210 HD
ENDBRANCH  14   4
TORSDOF 10
ENDMDL
MODEL 9
REMARK VINA RESULT:      -6.8     20.430     23.399
REMARK  Name = 7049286
REMARK  11 active torsions:
REMARK  status: ('A' for Active; 'I' for Inactive)
REMARK    1  A    between atoms: O_3  and  C_13
REMARK    2  A    between atoms: O_4  and  C_14
REMARK    3  A    between atoms: O_8  and  C_30
REMARK    4  A    between atoms: O_8  and  C_36
REMARK    5  A    between atoms: N_9  and  C_15
REMARK    6  A    between atoms: N_10  and  C_20
REMARK    7  A    between atoms: N_11  and  C_27
REMARK    8  A    between atoms: C_17  and  C_19
REMARK    9  A    between atoms: C_20  and  C_22
REMARK   10  A    between atoms: C_20  and  C_24
REMARK   11  A    between atoms: C_22  and  C_23
REMARK                            x       y       z     vdW  Elec       q    Type
REMARK                         _______ _______ _______ _____ _____    ______ ____
ROOT
ATOM     13  C   UNL     1      -4.524 -10.860   9.324  0.00  0.00    +0.167 C 
ATOM     14  C   UNL     1      -3.775 -11.911  10.154  0.00  0.00    +0.149 C 
ATOM     15  C   UNL     1      -5.872 -10.487   9.969  0.00  0.00    +0.129 C 
ATOM     16  C   UNL     1      -3.563 -11.456  11.608  0.00  0.00    +0.074 C 
ATOM     17  C   UNL     1      -4.738 -10.714  12.178  0.00  0.00    +0.015 C 
ATOM     18  C   UNL     1      -5.783 -10.281  11.457  0.00  0.00    +0.006 C 
ENDROOT
BRANCH  15   9
ATOM      6  O   UNL     1      -7.758 -10.398   7.815  0.00  0.00    -0.252 OA
ATOM      9  N   UNL     1      -6.440  -9.304   9.368  0.00  0.00    -0.290 N 
ATOM     11  N   UNL     1      -7.735  -8.054   7.941  0.00  0.00    -0.267 N 
ATOM     21  C   UNL     1      -7.361  -9.348   8.315  0.00  0.00    +0.304 C 
ATOM     37  H   UNL     1      -6.225  -8.403   9.783  0.00  0.00    +0.151 HD
ATOM     41  H   UNL     1      -7.309  -7.288   8.458  0.00  0.00    +0.156 HD
BRANCH  11  27
ATOM      1  F   UNL     1     -10.338  -7.299   8.539  0.00  0.00    -0.203 F 
ATOM      2  F   UNL     1     -11.259  -6.560   3.958  0.00  0.00    -0.205 F 
ATOM     27  C   UNL     1      -8.639  -7.671   6.923  0.00  0.00    +0.070 A 
ATOM     31  C   UNL     1      -9.929  -7.300   7.263  0.00  0.00    +0.147 A 
ATOM     32  C   UNL     1      -8.212  -7.675   5.605  0.00  0.00    +0.029 A 
ATOM     33  C   UNL     1     -10.819  -6.923   6.257  0.00  0.00    +0.078 A 
ATOM     34  C   UNL     1      -9.101  -7.297   4.599  0.00  0.00    +0.040 A 
ATOM     35  C   UNL     1     -10.404  -6.922   4.925  0.00  0.00    +0.126 A 
ENDBRANCH  11  27
ENDBRANCH  15   9
BRANCH  17  19
ATOM      5  O   UNL     1      -5.715  -9.896  14.153  0.00  0.00    -0.271 OA
ATOM     10  N   UNL     1      -3.621 -10.915  14.267  0.00  0.00    -0.300 N 
ATOM     19  C   UNL     1      -4.759 -10.460  13.622  0.00  0.00    +0.241 C 
ATOM     40  H   UNL     1      -2.880 -11.343  13.719  0.00  0.00    +0.150 HD
BRANCH  10  20
ATOM     20  C   UNL     1      -3.412 -10.776  15.690  0.00  0.00    +0.163 C 
BRANCH  20  24
ATOM      7  O   UNL     1      -1.228  -9.873  15.124  0.00  0.00    -0.274 OA
ATOM     12  N   UNL     1      -1.457 -11.047  17.085  0.00  0.00    -0.328 N 
ATOM     24  C   UNL     1      -1.927 -10.519  15.900  0.00  0.00    +0.231 C 
ATOM     42  H   UNL     1      -2.047 -11.575  17.720  0.00  0.00    +0.145 HD
ATOM     43  H   UNL     1      -0.486 -10.933  17.355  0.00  0.00    +0.145 HD
ENDBRANCH  20  24
BRANCH  20  22
ATOM     22  C   UNL     1      -3.853 -12.023  16.464  0.00  0.00    +0.067 C 
BRANCH  22  23
ATOM     23  C   UNL     1      -4.976 -11.741  17.434  0.00  0.00    -0.045 A 
ATOM     25  C   UNL     1      -4.674 -11.423  18.748  0.00  0.00    +0.007 A 
ATOM     26  C   UNL     1      -6.288 -11.808  16.991  0.00  0.00    +0.007 A 
ATOM     28  C   UNL     1      -5.711 -11.162  19.644  0.00  0.00    +0.046 A 
ATOM     29  C   UNL     1      -7.324 -11.548  17.888  0.00  0.00    +0.046 A 
ATOM     30  C   UNL     1      -7.036 -11.226  19.214  0.00  0.00    +0.120 A 
BRANCH  30   8
ATOM      8  O   UNL     1      -8.048 -10.971  20.088  0.00  0.00    -0.495 OA
ATOM     36  C   UNL     1      -9.372 -11.278  19.656  0.00  0.00    +0.277 C 
ENDBRANCH  30   8
ENDBRANCH  22  23
ENDBRANCH  20  22
ENDBRANCH  10  20
ENDBRANCH  17  19
BRANCH  13   3
ATOM      3  O   UNL     1      -3.705  -9.693   9.214  0.00  0.00    -0.387 OA
ATOM     38  H   UNL     1      -3.093  -9.808   8.468  0.00  0.00    +0.210 HD
ENDBRANCH  13   3
BRANCH  14   4
ATOM      4  O   UNL     1      -4.480 -13.150  10.127  0.00  0.00    -0.389 OA
ATOM     39  H   UNL     1      -4.959 -13.197   9.283  0.00  0.00    +0.210 HD
ENDBRANCH  14   4
TORSDOF 10
ENDMDL
MODEL 10
REMARK VINA RESULT:      -6.8     18.465     21.499
REMARK  Name = 7049286
REMARK  11 active torsions:
REMARK  status: ('A' for Active; 'I' for Inactive)
REMARK    1  A    between atoms: O_3  and  C_13
REMARK    2  A    between atoms: O_4  and  C_14
REMARK    3  A    between atoms: O_8  and  C_30
REMARK    4  A    between atoms: O_8  and  C_36
REMARK    5  A    between atoms: N_9  and  C_15
REMARK    6  A    between atoms: N_10  and  C_20
REMARK    7  A    between atoms: N_11  and  C_27
REMARK    8  A    between atoms: C_17  and  C_19
REMARK    9  A    between atoms: C_20  and  C_22
REMARK   10  A    between atoms: C_20  and  C_24
REMARK   11  A    between atoms: C_22  and  C_23
REMARK                            x       y       z     vdW  Elec       q    Type
REMARK                         _______ _______ _______ _____ _____    ______ ____
ROOT
ATOM     13  C   UNL     1      -3.547 -11.225  16.282  0.00  0.00    +0.167 C 
ATOM     14  C   UNL     1      -4.066 -11.586  17.680  0.00  0.00    +0.149 C 
ATOM     15  C   UNL     1      -4.680 -11.240  15.239  0.00  0.00    +0.129 C 
ATOM     16  C   UNL     1      -5.215 -10.667  18.126  0.00  0.00    +0.074 C 
ATOM     17  C   UNL     1      -6.164 -10.316  17.016  0.00  0.00    +0.015 C 
ATOM     18  C   UNL     1      -5.941 -10.575  15.719  0.00  0.00    +0.006 C 
ENDROOT
BRANCH  15   9
ATOM      6  O   UNL     1      -5.815 -11.685  12.646  0.00  0.00    -0.252 OA
ATOM      9  N   UNL     1      -4.270 -10.624  14.000  0.00  0.00    -0.290 N 
ATOM     11  N   UNL     1      -4.276 -10.156  11.752  0.00  0.00    -0.267 N 
ATOM     21  C   UNL     1      -4.881 -10.897  12.771  0.00  0.00    +0.304 C 
ATOM     37  H   UNL     1      -3.561  -9.898  14.035  0.00  0.00    +0.151 HD
ATOM     41  H   UNL     1      -3.508  -9.546  12.024  0.00  0.00    +0.156 HD
BRANCH  11  27
ATOM      1  F   UNL     1      -3.389 -12.167  10.056  0.00  0.00    -0.203 F 
ATOM      2  F   UNL     1      -5.541 -10.118   6.374  0.00  0.00    -0.205 F 
ATOM     27  C   UNL     1      -4.598 -10.148  10.375  0.00  0.00    +0.070 A 
ATOM     31  C   UNL     1      -4.137 -11.171   9.561  0.00  0.00    +0.147 A 
ATOM     32  C   UNL     1      -5.371  -9.116   9.868  0.00  0.00    +0.029 A 
ATOM     33  C   UNL     1      -4.457 -11.161   8.204  0.00  0.00    +0.078 A 
ATOM     34  C   UNL     1      -5.691  -9.106   8.510  0.00  0.00    +0.040 A 
ATOM     35  C   UNL     1      -5.234 -10.128   7.679  0.00  0.00    +0.126 A 
ENDBRANCH  11  27
ENDBRANCH  15   9
BRANCH  17  19
ATOM      5  O   UNL     1      -7.641  -8.489  17.079  0.00  0.00    -0.271 OA
ATOM     10  N   UNL     1      -8.302 -10.510  18.037  0.00  0.00    -0.300 N 
ATOM     19  C   UNL     1      -7.430  -9.666  17.369  0.00  0.00    +0.241 C 
ATOM     40  H   UNL     1      -8.008 -11.459  18.248  0.00  0.00    +0.150 HD
BRANCH  10  20
ATOM     20  C   UNL     1      -9.610 -10.095  18.489  0.00  0.00    +0.163 C 
BRANCH  20  24
ATOM      7  O   UNL     1      -9.321 -11.926  20.059  0.00  0.00    -0.274 OA
ATOM     12  N   UNL     1     -10.971 -10.380  20.466  0.00  0.00    -0.328 N 
ATOM     24  C   UNL     1      -9.938 -10.917  19.726  0.00  0.00    +0.231 C 
ATOM     42  H   UNL     1     -11.468  -9.543  20.182  0.00  0.00    +0.145 HD
ATOM     43  H   UNL     1     -11.279 -10.822  21.325  0.00  0.00    +0.145 HD
ENDBRANCH  20  24
BRANCH  20  22
ATOM     22  C   UNL     1     -10.685 -10.296  17.415  0.00  0.00    +0.067 C 
BRANCH  22  23
ATOM     23  C   UNL     1     -10.971  -9.037  16.632  0.00  0.00    -0.045 A 
ATOM     25  C   UNL     1     -10.937  -7.813  17.279  0.00  0.00    +0.007 A 
ATOM     26  C   UNL     1     -11.264  -9.130  15.280  0.00  0.00    +0.007 A 
ATOM     28  C   UNL     1     -11.201  -6.649  16.556  0.00  0.00    +0.046 A 
ATOM     29  C   UNL     1     -11.528  -7.966  14.557  0.00  0.00    +0.046 A 
ATOM     30  C   UNL     1     -11.498  -6.726  15.195  0.00  0.00    +0.120 A 
BRANCH  30   8
ATOM      8  O   UNL     1     -11.755  -5.591  14.490  0.00  0.00    -0.495 OA
ATOM     36  C   UNL     1     -12.693  -5.690  13.420  0.00  0.00    +0.277 C 
ENDBRANCH  30   8
ENDBRANCH  22  23
ENDBRANCH  20  22
ENDBRANCH  10  20
ENDBRANCH  17  19
BRANCH  13   3
ATOM      3  O   UNL     1      -2.959  -9.923  16.333  0.00  0.00    -0.387 OA
ATOM     38  H   UNL     1      -3.066  -9.495  15.467  0.00  0.00    +0.210 HD
ENDBRANCH  13   3
BRANCH  14   4
ATOM      4  O   UNL     1      -4.490 -12.948  17.710  0.00  0.00    -0.389 OA
ATOM     39  H   UNL     1      -4.222 -13.357  16.870  0.00  0.00    +0.210 HD
ENDBRANCH  14   4
TORSDOF 10
ENDMDL
