MODEL 1
REMARK VINA RESULT:      -6.9      0.000      0.000
REMARK  Name = 51137022
REMARK  6 active torsions:
REMARK  status: ('A' for Active; 'I' for Inactive)
REMARK    1  A    between atoms: O_2  and  C_18
REMARK    2  A    between atoms: O_2  and  C_26
REMARK    3  A    between atoms: O_3  and  C_23
REMARK    4  A    between atoms: O_3  and  C_27
REMARK    5  A    between atoms: N_7  and  C_19
REMARK    6  A    between atoms: C_8  and  C_12
REMARK                            x       y       z     vdW  Elec       q    Type
REMARK                         _______ _______ _______ _____ _____    ______ ____
ROOT
ATOM      1  O   UNL     1      -3.152  -9.238  10.122  0.00  0.00    -0.252 OA
ATOM      4  N   UNL     1      -2.888 -11.115  11.417  0.00  0.00    -0.285 N 
ATOM      7  N   UNL     1      -4.239 -11.210   9.510  0.00  0.00    -0.269 N 
ATOM      8  C   UNL     1      -1.959 -11.411  13.587  0.00  0.00    +0.074 C 
ATOM      9  C   UNL     1      -2.133 -12.781  12.916  0.00  0.00    +0.032 C 
ATOM     10  C   UNL     1      -2.014 -10.461  12.385  0.00  0.00    +0.120 C 
ATOM     11  C   UNL     1      -3.109 -12.515  11.776  0.00  0.00    +0.110 C 
ATOM     13  C   UNL     1      -3.414 -10.427  10.318  0.00  0.00    +0.306 C 
ATOM     29  H   UNL     1      -4.401 -12.172   9.789  0.00  0.00    +0.156 HD
ENDROOT
BRANCH   8  12
ATOM      5  N   UNL     1      -2.872 -11.791  15.902  0.00  0.00    -0.341 N 
ATOM      6  N   UNL     1      -4.069 -10.441  14.602  0.00  0.00    -0.232 NA
ATOM     12  C   UNL     1      -2.991 -11.190  14.679  0.00  0.00    +0.113 A 
ATOM     14  C   UNL     1      -3.945 -11.404  16.664  0.00  0.00    +0.070 A 
ATOM     15  C   UNL     1      -4.676 -10.562  15.831  0.00  0.00    +0.089 A 
ATOM     16  C   UNL     1      -4.325 -11.708  17.972  0.00  0.00    +0.073 A 
ATOM     17  C   UNL     1      -5.860  -9.981  16.314  0.00  0.00    +0.033 A 
ATOM     18  C   UNL     1      -5.507 -11.121  18.436  0.00  0.00    +0.122 A 
ATOM     20  C   UNL     1      -6.263 -10.273  17.623  0.00  0.00    +0.048 A 
ATOM     28  H   UNL     1      -2.129 -12.411  16.193  0.00  0.00    +0.167 HD
BRANCH  18   2
ATOM      2  O   UNL     1      -5.928 -11.383  19.706  0.00  0.00    -0.495 OA
ATOM     26  C   UNL     1      -7.154 -12.096  19.847  0.00  0.00    +0.277 C 
ENDBRANCH  18   2
ENDBRANCH   8  12
BRANCH   7  19
ATOM     19  C   UNL     1      -4.922 -10.822   8.331  0.00  0.00    +0.038 A 
ATOM     21  C   UNL     1      -5.895  -9.824   8.384  0.00  0.00    +0.069 A 
ATOM     22  C   UNL     1      -4.622 -11.438   7.116  0.00  0.00    +0.023 A 
ATOM     23  C   UNL     1      -6.568  -9.442   7.224  0.00  0.00    +0.122 A 
ATOM     24  C   UNL     1      -5.295 -11.057   5.956  0.00  0.00    +0.005 A 
ATOM     25  C   UNL     1      -6.268 -10.059   6.009  0.00  0.00    +0.046 A 
BRANCH  23   3
ATOM      3  O   UNL     1      -7.518  -8.469   7.278  0.00  0.00    -0.495 OA
ATOM     27  C   UNL     1      -7.657  -7.765   8.511  0.00  0.00    +0.277 C 
ENDBRANCH  23   3
ENDBRANCH   7  19
TORSDOF 4
ENDMDL
MODEL 2
REMARK VINA RESULT:      -6.9      4.223      8.266
REMARK  Name = 51137022
REMARK  6 active torsions:
REMARK  status: ('A' for Active; 'I' for Inactive)
REMARK    1  A    between atoms: O_2  and  C_18
REMARK    2  A    between atoms: O_2  and  C_26
REMARK    3  A    between atoms: O_3  and  C_23
REMARK    4  A    between atoms: O_3  and  C_27
REMARK    5  A    between atoms: N_7  and  C_19
REMARK    6  A    between atoms: C_8  and  C_12
REMARK                            x       y       z     vdW  Elec       q    Type
REMARK                         _______ _______ _______ _____ _____    ______ ____
ROOT
ATOM      1  O   UNL     1      -9.380 -11.523  16.629  0.00  0.00    -0.252 OA
ATOM      4  N   UNL     1      -7.585 -11.110  18.000  0.00  0.00    -0.285 N 
ATOM      7  N   UNL     1      -9.270  -9.501  17.788  0.00  0.00    -0.269 N 
ATOM      8  C   UNL     1      -5.501 -12.231  18.243  0.00  0.00    +0.074 C 
ATOM      9  C   UNL     1      -5.698 -11.260  19.417  0.00  0.00    +0.032 C 
ATOM     10  C   UNL     1      -6.933 -12.383  17.716  0.00  0.00    +0.120 C 
ATOM     11  C   UNL     1      -6.794 -10.316  18.937  0.00  0.00    +0.110 C 
ATOM     13  C   UNL     1      -8.806 -10.761  17.409  0.00  0.00    +0.306 C 
ATOM     29  H   UNL     1      -8.694  -8.953  18.420  0.00  0.00    +0.156 HD
ENDROOT
BRANCH   8  12
ATOM      5  N   UNL     1      -4.699 -11.715  15.914  0.00  0.00    -0.341 N 
ATOM      6  N   UNL     1      -3.277 -11.229  17.553  0.00  0.00    -0.232 NA
ATOM     12  C   UNL     1      -4.464 -11.714  17.261  0.00  0.00    +0.113 A 
ATOM     14  C   UNL     1      -3.590 -11.197  15.295  0.00  0.00    +0.070 A 
ATOM     15  C   UNL     1      -2.718 -10.900  16.339  0.00  0.00    +0.089 A 
ATOM     16  C   UNL     1      -3.285 -10.967  13.953  0.00  0.00    +0.073 A 
ATOM     17  C   UNL     1      -1.463 -10.343  16.045  0.00  0.00    +0.033 A 
ATOM     18  C   UNL     1      -2.031 -10.411  13.679  0.00  0.00    +0.122 A 
ATOM     20  C   UNL     1      -1.134 -10.104  14.704  0.00  0.00    +0.048 A 
ATOM     28  H   UNL     1      -5.538 -12.042  15.454  0.00  0.00    +0.167 HD
BRANCH  18   2
ATOM      2  O   UNL     1      -1.680 -10.166  12.384  0.00  0.00    -0.495 OA
ATOM     26  C   UNL     1      -2.718 -10.225  11.410  0.00  0.00    +0.277 C 
ENDBRANCH  18   2
ENDBRANCH   8  12
BRANCH   7  19
ATOM     19  C   UNL     1     -10.461  -8.854  17.376  0.00  0.00    +0.038 A 
ATOM     21  C   UNL     1     -10.398  -7.612  16.745  0.00  0.00    +0.069 A 
ATOM     22  C   UNL     1     -11.698  -9.459  17.602  0.00  0.00    +0.023 A 
ATOM     23  C   UNL     1     -11.571  -6.974  16.340  0.00  0.00    +0.122 A 
ATOM     24  C   UNL     1     -12.870  -8.821  17.198  0.00  0.00    +0.005 A 
ATOM     25  C   UNL     1     -12.807  -7.579  16.566  0.00  0.00    +0.046 A 
BRANCH  23   3
ATOM      3  O   UNL     1     -11.507  -5.761  15.726  0.00  0.00    -0.495 OA
ATOM     27  C   UNL     1     -12.239  -5.610  14.510  0.00  0.00    +0.277 C 
ENDBRANCH  23   3
ENDBRANCH   7  19
TORSDOF 4
ENDMDL
MODEL 3
REMARK VINA RESULT:      -6.9      1.374      2.488
REMARK  Name = 51137022
REMARK  6 active torsions:
REMARK  status: ('A' for Active; 'I' for Inactive)
REMARK    1  A    between atoms: O_2  and  C_18
REMARK    2  A    between atoms: O_2  and  C_26
REMARK    3  A    between atoms: O_3  and  C_23
REMARK    4  A    between atoms: O_3  and  C_27
REMARK    5  A    between atoms: N_7  and  C_19
REMARK    6  A    between atoms: C_8  and  C_12
REMARK                            x       y       z     vdW  Elec       q    Type
REMARK                         _______ _______ _______ _____ _____    ______ ____
ROOT
ATOM      1  O   UNL     1      -3.131  -9.145  10.142  0.00  0.00    -0.252 OA
ATOM      4  N   UNL     1      -2.830 -10.993  11.470  0.00  0.00    -0.285 N 
ATOM      7  N   UNL     1      -4.170 -11.151   9.559  0.00  0.00    -0.269 N 
ATOM      8  C   UNL     1      -1.903 -11.231  13.648  0.00  0.00    +0.074 C 
ATOM      9  C   UNL     1      -2.044 -12.616  13.000  0.00  0.00    +0.032 C 
ATOM     10  C   UNL     1      -1.975 -10.303  12.429  0.00  0.00    +0.120 C 
ATOM     11  C   UNL     1      -3.020 -12.391  11.851  0.00  0.00    +0.110 C 
ATOM     13  C   UNL     1      -3.367 -10.335  10.357  0.00  0.00    +0.306 C 
ATOM     29  H   UNL     1      -4.312 -12.111   9.854  0.00  0.00    +0.156 HD
ENDROOT
BRANCH   8  12
ATOM      5  N   UNL     1      -4.088 -10.305  14.487  0.00  0.00    -0.341 N 
ATOM      6  N   UNL     1      -2.892 -11.450  15.971  0.00  0.00    -0.232 NA
ATOM     12  C   UNL     1      -2.945 -11.015  14.732  0.00  0.00    +0.113 A 
ATOM     14  C   UNL     1      -4.822 -10.282  15.646  0.00  0.00    +0.070 A 
ATOM     15  C   UNL     1      -4.055 -11.003  16.557  0.00  0.00    +0.089 A 
ATOM     16  C   UNL     1      -6.055  -9.710  15.965  0.00  0.00    +0.073 A 
ATOM     17  C   UNL     1      -4.529 -11.172  17.868  0.00  0.00    +0.033 A 
ATOM     18  C   UNL     1      -6.510  -9.888  17.275  0.00  0.00    +0.122 A 
ATOM     20  C   UNL     1      -5.763 -10.606  18.211  0.00  0.00    +0.048 A 
ATOM     28  H   UNL     1      -4.347  -9.873  13.611  0.00  0.00    +0.167 HD
BRANCH  18   2
ATOM      2  O   UNL     1      -7.708  -9.350  17.643  0.00  0.00    -0.495 OA
ATOM     26  C   UNL     1      -8.613  -9.010  16.596  0.00  0.00    +0.277 C 
ENDBRANCH  18   2
ENDBRANCH   8  12
BRANCH   7  19
ATOM     19  C   UNL     1      -4.857 -10.798   8.371  0.00  0.00    +0.038 A 
ATOM     21  C   UNL     1      -4.535 -11.426   7.167  0.00  0.00    +0.069 A 
ATOM     22  C   UNL     1      -5.854  -9.824   8.403  0.00  0.00    +0.023 A 
ATOM     23  C   UNL     1      -5.209 -11.080   5.997  0.00  0.00    +0.122 A 
ATOM     24  C   UNL     1      -6.528  -9.477   7.233  0.00  0.00    +0.005 A 
ATOM     25  C   UNL     1      -6.206 -10.105   6.029  0.00  0.00    +0.046 A 
BRANCH  23   3
ATOM      3  O   UNL     1      -4.892 -11.691   4.823  0.00  0.00    -0.495 OA
ATOM     27  C   UNL     1      -3.575 -12.226   4.704  0.00  0.00    +0.277 C 
ENDBRANCH  23   3
ENDBRANCH   7  19
TORSDOF 4
ENDMDL
MODEL 4
REMARK VINA RESULT:      -6.7      2.872      8.611
REMARK  Name = 51137022
REMARK  6 active torsions:
REMARK  status: ('A' for Active; 'I' for Inactive)
REMARK    1  A    between atoms: O_2  and  C_18
REMARK    2  A    between atoms: O_2  and  C_26
REMARK    3  A    between atoms: O_3  and  C_23
REMARK    4  A    between atoms: O_3  and  C_27
REMARK    5  A    between atoms: N_7  and  C_19
REMARK    6  A    between atoms: C_8  and  C_12
REMARK                            x       y       z     vdW  Elec       q    Type
REMARK                         _______ _______ _______ _____ _____    ______ ____
ROOT
ATOM      1  O   UNL     1      -7.290 -12.569  16.705  0.00  0.00    -0.252 OA
ATOM      4  N   UNL     1      -5.305 -11.418  16.623  0.00  0.00    -0.285 N 
ATOM      7  N   UNL     1      -7.154 -10.456  17.685  0.00  0.00    -0.269 N 
ATOM      8  C   UNL     1      -3.319 -11.794  15.368  0.00  0.00    +0.074 C 
ATOM      9  C   UNL     1      -3.039 -10.759  16.468  0.00  0.00    +0.032 C 
ATOM     10  C   UNL     1      -4.604 -12.458  15.879  0.00  0.00    +0.120 C 
ATOM     11  C   UNL     1      -4.424 -10.283  16.891  0.00  0.00    +0.110 C 
ATOM     13  C   UNL     1      -6.649 -11.556  16.991  0.00  0.00    +0.306 C 
ATOM     29  H   UNL     1      -6.534  -9.666  17.839  0.00  0.00    +0.156 HD
ENDROOT
BRANCH   8  12
ATOM      5  N   UNL     1      -4.577 -10.987  13.343  0.00  0.00    -0.341 N 
ATOM      6  N   UNL     1      -2.375 -10.679  13.297  0.00  0.00    -0.232 NA
ATOM     12  C   UNL     1      -3.386 -11.145  13.996  0.00  0.00    +0.113 A 
ATOM     14  C   UNL     1      -4.317 -10.378  12.141  0.00  0.00    +0.070 A 
ATOM     15  C   UNL     1      -2.937 -10.196  12.136  0.00  0.00    +0.089 A 
ATOM     16  C   UNL     1      -5.146  -9.982  11.091  0.00  0.00    +0.073 A 
ATOM     17  C   UNL     1      -2.331  -9.586  11.026  0.00  0.00    +0.033 A 
ATOM     18  C   UNL     1      -4.526  -9.377   9.993  0.00  0.00    +0.122 A 
ATOM     20  C   UNL     1      -3.143  -9.181   9.959  0.00  0.00    +0.048 A 
ATOM     28  H   UNL     1      -5.487 -11.269  13.682  0.00  0.00    +0.167 HD
BRANCH  18   2
ATOM      2  O   UNL     1      -5.287  -8.970   8.938  0.00  0.00    -0.495 OA
ATOM     26  C   UNL     1      -5.205  -9.745   7.745  0.00  0.00    +0.277 C 
ENDBRANCH  18   2
ENDBRANCH   8  12
BRANCH   7  19
ATOM     19  C   UNL     1      -8.463 -10.278  18.196  0.00  0.00    +0.038 A 
ATOM     21  C   UNL     1      -9.345  -9.400  17.564  0.00  0.00    +0.069 A 
ATOM     22  C   UNL     1      -8.872 -10.978  19.330  0.00  0.00    +0.023 A 
ATOM     23  C   UNL     1     -10.634  -9.224  18.066  0.00  0.00    +0.122 A 
ATOM     24  C   UNL     1     -10.160 -10.802  19.833  0.00  0.00    +0.005 A 
ATOM     25  C   UNL     1     -11.042  -9.924  19.201  0.00  0.00    +0.046 A 
BRANCH  23   3
ATOM      3  O   UNL     1     -11.493  -8.366  17.450  0.00  0.00    -0.495 OA
ATOM     27  C   UNL     1     -10.916  -7.289  16.713  0.00  0.00    +0.277 C 
ENDBRANCH  23   3
ENDBRANCH   7  19
TORSDOF 4
ENDMDL
MODEL 5
REMARK VINA RESULT:      -6.5      4.000      9.193
REMARK  Name = 51137022
REMARK  6 active torsions:
REMARK  status: ('A' for Active; 'I' for Inactive)
REMARK    1  A    between atoms: O_2  and  C_18
REMARK    2  A    between atoms: O_2  and  C_26
REMARK    3  A    between atoms: O_3  and  C_23
REMARK    4  A    between atoms: O_3  and  C_27
REMARK    5  A    between atoms: N_7  and  C_19
REMARK    6  A    between atoms: C_8  and  C_12
REMARK                            x       y       z     vdW  Elec       q    Type
REMARK                         _______ _______ _______ _____ _____    ______ ____
ROOT
ATOM      1  O   UNL     1      -9.168 -12.643  18.467  0.00  0.00    -0.252 OA
ATOM      4  N   UNL     1      -7.172 -11.590  18.888  0.00  0.00    -0.285 N 
ATOM      7  N   UNL     1      -9.177 -10.425  19.191  0.00  0.00    -0.269 N 
ATOM      8  C   UNL     1      -4.930 -12.205  18.381  0.00  0.00    +0.074 C 
ATOM      9  C   UNL     1      -4.925 -11.045  19.387  0.00  0.00    +0.032 C 
ATOM     10  C   UNL     1      -6.358 -12.746  18.529  0.00  0.00    +0.120 C 
ATOM     11  C   UNL     1      -6.330 -10.464  19.291  0.00  0.00    +0.110 C 
ATOM     13  C   UNL     1      -8.569 -11.626  18.824  0.00  0.00    +0.306 C 
ATOM     29  H   UNL     1      -8.576  -9.646  19.443  0.00  0.00    +0.156 HD
ENDROOT
BRANCH   8  12
ATOM      5  N   UNL     1      -3.215 -11.443  16.703  0.00  0.00    -0.341 N 
ATOM      6  N   UNL     1      -5.304 -11.578  15.954  0.00  0.00    -0.232 NA
ATOM     12  C   UNL     1      -4.517 -11.743  16.994  0.00  0.00    +0.113 A 
ATOM     14  C   UNL     1      -3.158 -11.058  15.388  0.00  0.00    +0.070 A 
ATOM     15  C   UNL     1      -4.474 -11.152  14.942  0.00  0.00    +0.089 A 
ATOM     16  C   UNL     1      -2.100 -10.651  14.574  0.00  0.00    +0.073 A 
ATOM     17  C   UNL     1      -4.770 -10.822  13.609  0.00  0.00    +0.033 A 
ATOM     18  C   UNL     1      -2.414 -10.326  13.250  0.00  0.00    +0.122 A 
ATOM     20  C   UNL     1      -3.724 -10.410  12.774  0.00  0.00    +0.048 A 
ATOM     28  H   UNL     1      -2.434 -11.492  17.343  0.00  0.00    +0.167 HD
BRANCH  18   2
ATOM      2  O   UNL     1      -1.420  -9.921  12.410  0.00  0.00    -0.495 OA
ATOM     26  C   UNL     1      -1.802  -9.545  11.090  0.00  0.00    +0.277 C 
ENDBRANCH  18   2
ENDBRANCH   8  12
BRANCH   7  19
ATOM     19  C   UNL     1     -10.562 -10.130  19.236  0.00  0.00    +0.038 A 
ATOM     21  C   UNL     1     -11.212  -9.659  18.094  0.00  0.00    +0.069 A 
ATOM     22  C   UNL     1     -11.277 -10.310  20.420  0.00  0.00    +0.023 A 
ATOM     23  C   UNL     1     -12.575  -9.368  18.138  0.00  0.00    +0.122 A 
ATOM     24  C   UNL     1     -12.639 -10.018  20.464  0.00  0.00    +0.005 A 
ATOM     25  C   UNL     1     -13.289  -9.547  19.322  0.00  0.00    +0.046 A 
BRANCH  23   3
ATOM      3  O   UNL     1     -13.208  -8.906  17.024  0.00  0.00    -0.495 OA
ATOM     27  C   UNL     1     -12.503  -7.960  16.223  0.00  0.00    +0.277 C 
ENDBRANCH  23   3
ENDBRANCH   7  19
TORSDOF 4
ENDMDL
MODEL 6
REMARK VINA RESULT:      -6.4      2.023      8.593
REMARK  Name = 51137022
REMARK  6 active torsions:
REMARK  status: ('A' for Active; 'I' for Inactive)
REMARK    1  A    between atoms: O_2  and  C_18
REMARK    2  A    between atoms: O_2  and  C_26
REMARK    3  A    between atoms: O_3  and  C_23
REMARK    4  A    between atoms: O_3  and  C_27
REMARK    5  A    between atoms: N_7  and  C_19
REMARK    6  A    between atoms: C_8  and  C_12
REMARK                            x       y       z     vdW  Elec       q    Type
REMARK                         _______ _______ _______ _____ _____    ______ ____
ROOT
ATOM      1  O   UNL     1      -5.552 -13.602  15.985  0.00  0.00    -0.252 OA
ATOM      4  N   UNL     1      -3.792 -12.213  15.490  0.00  0.00    -0.285 N 
ATOM      7  N   UNL     1      -5.386 -11.540  17.064  0.00  0.00    -0.269 N 
ATOM      8  C   UNL     1      -2.179 -12.279  13.743  0.00  0.00    +0.074 C 
ATOM      9  C   UNL     1      -1.730 -11.274  14.814  0.00  0.00    +0.032 C 
ATOM     10  C   UNL     1      -3.206 -13.121  14.510  0.00  0.00    +0.120 C 
ATOM     11  C   UNL     1      -2.996 -10.994  15.614  0.00  0.00    +0.110 C 
ATOM     13  C   UNL     1      -4.969 -12.533  16.178  0.00  0.00    +0.306 C 
ATOM     29  H   UNL     1      -4.835 -10.689  17.117  0.00  0.00    +0.156 HD
ENDROOT
BRANCH   8  12
ATOM      5  N   UNL     1      -3.320 -12.260  11.500  0.00  0.00    -0.341 N 
ATOM      6  N   UNL     1      -2.554 -10.297  12.208  0.00  0.00    -0.232 NA
ATOM     12  C   UNL     1      -2.673 -11.576  12.491  0.00  0.00    +0.113 A 
ATOM     14  C   UNL     1      -3.639 -11.364  10.511  0.00  0.00    +0.070 A 
ATOM     15  C   UNL     1      -3.151 -10.146  10.977  0.00  0.00    +0.089 A 
ATOM     16  C   UNL     1      -4.295 -11.510   9.288  0.00  0.00    +0.073 A 
ATOM     17  C   UNL     1      -3.316  -8.996  10.188  0.00  0.00    +0.033 A 
ATOM     18  C   UNL     1      -4.449 -10.354   8.516  0.00  0.00    +0.122 A 
ATOM     20  C   UNL     1      -3.970  -9.118   8.956  0.00  0.00    +0.048 A 
ATOM     28  H   UNL     1      -3.526 -13.250  11.493  0.00  0.00    +0.167 HD
BRANCH  18   2
ATOM      2  O   UNL     1      -5.082 -10.437   7.311  0.00  0.00    -0.495 OA
ATOM     26  C   UNL     1      -6.478 -10.723   7.331  0.00  0.00    +0.277 C 
ENDBRANCH  18   2
ENDBRANCH   8  12
BRANCH   7  19
ATOM     19  C   UNL     1      -6.526 -11.550  17.905  0.00  0.00    +0.038 A 
ATOM     21  C   UNL     1      -7.629 -10.754  17.595  0.00  0.00    +0.069 A 
ATOM     22  C   UNL     1      -6.546 -12.354  19.045  0.00  0.00    +0.023 A 
ATOM     23  C   UNL     1      -8.752 -10.763  18.423  0.00  0.00    +0.122 A 
ATOM     24  C   UNL     1      -7.668 -12.363  19.873  0.00  0.00    +0.005 A 
ATOM     25  C   UNL     1      -8.771 -11.567  19.563  0.00  0.00    +0.046 A 
BRANCH  23   3
ATOM      3  O   UNL     1      -9.826  -9.984  18.120  0.00  0.00    -0.495 OA
ATOM     27  C   UNL     1      -9.563  -8.730  17.494  0.00  0.00    +0.277 C 
ENDBRANCH  23   3
ENDBRANCH   7  19
TORSDOF 4
ENDMDL
MODEL 7
REMARK VINA RESULT:      -6.3     23.464     26.636
REMARK  Name = 51137022
REMARK  6 active torsions:
REMARK  status: ('A' for Active; 'I' for Inactive)
REMARK    1  A    between atoms: O_2  and  C_18
REMARK    2  A    between atoms: O_2  and  C_26
REMARK    3  A    between atoms: O_3  and  C_23
REMARK    4  A    between atoms: O_3  and  C_27
REMARK    5  A    between atoms: N_7  and  C_19
REMARK    6  A    between atoms: C_8  and  C_12
REMARK                            x       y       z     vdW  Elec       q    Type
REMARK                         _______ _______ _______ _____ _____    ______ ____
ROOT
ATOM      1  O   UNL     1      11.033   3.517   3.216  0.00  0.00    -0.252 OA
ATOM      4  N   UNL     1      12.707   4.475   1.971  0.00  0.00    -0.285 N 
ATOM      7  N   UNL     1      11.313   5.833   3.269  0.00  0.00    -0.269 N 
ATOM      8  C   UNL     1      14.094   3.589   0.253  0.00  0.00    +0.074 C 
ATOM      9  C   UNL     1      14.664   4.935   0.725  0.00  0.00    +0.032 C 
ATOM     10  C   UNL     1      13.176   3.208   1.421  0.00  0.00    +0.120 C 
ATOM     11  C   UNL     1      13.503   5.591   1.464  0.00  0.00    +0.110 C 
ATOM     13  C   UNL     1      11.627   4.537   2.859  0.00  0.00    +0.306 C 
ATOM     29  H   UNL     1      11.860   6.597   2.886  0.00  0.00    +0.156 HD
ENDROOT
BRANCH   8  12
ATOM      5  N   UNL     1      12.202   3.190  -1.358  0.00  0.00    -0.341 N 
ATOM      6  N   UNL     1      13.954   4.284  -2.180  0.00  0.00    -0.232 NA
ATOM     12  C   UNL     1      13.444   3.707  -1.114  0.00  0.00    +0.113 A 
ATOM     14  C   UNL     1      11.890   3.450  -2.668  0.00  0.00    +0.070 A 
ATOM     15  C   UNL     1      12.999   4.134  -3.159  0.00  0.00    +0.089 A 
ATOM     16  C   UNL     1      10.766   3.156  -3.441  0.00  0.00    +0.073 A 
ATOM     17  C   UNL     1      13.004   4.556  -4.499  0.00  0.00    +0.033 A 
ATOM     18  C   UNL     1      10.790   3.583  -4.773  0.00  0.00    +0.122 A 
ATOM     20  C   UNL     1      11.888   4.271  -5.295  0.00  0.00    +0.048 A 
ATOM     28  H   UNL     1      11.618   2.700  -0.693  0.00  0.00    +0.167 HD
BRANCH  18   2
ATOM      2  O   UNL     1       9.719   3.322  -5.575  0.00  0.00    -0.495 OA
ATOM     26  C   UNL     1       9.931   2.433  -6.669  0.00  0.00    +0.277 C 
ENDBRANCH  18   2
ENDBRANCH   8  12
BRANCH   7  19
ATOM     19  C   UNL     1      10.286   6.239   4.156  0.00  0.00    +0.038 A 
ATOM     21  C   UNL     1      10.372   5.928   5.513  0.00  0.00    +0.069 A 
ATOM     22  C   UNL     1       9.187   6.949   3.673  0.00  0.00    +0.023 A 
ATOM     23  C   UNL     1       9.361   6.327   6.387  0.00  0.00    +0.122 A 
ATOM     24  C   UNL     1       8.175   7.347   4.545  0.00  0.00    +0.005 A 
ATOM     25  C   UNL     1       8.261   7.037   5.903  0.00  0.00    +0.046 A 
BRANCH  23   3
ATOM      3  O   UNL     1       9.445   6.021   7.710  0.00  0.00    -0.495 OA
ATOM     27  C   UNL     1       9.843   4.693   8.045  0.00  0.00    +0.277 C 
ENDBRANCH  23   3
ENDBRANCH   7  19
TORSDOF 4
ENDMDL
MODEL 8
REMARK VINA RESULT:      -6.3      5.884      8.438
REMARK  Name = 51137022
REMARK  6 active torsions:
REMARK  status: ('A' for Active; 'I' for Inactive)
REMARK    1  A    between atoms: O_2  and  C_18
REMARK    2  A    between atoms: O_2  and  C_26
REMARK    3  A    between atoms: O_3  and  C_23
REMARK    4  A    between atoms: O_3  and  C_27
REMARK    5  A    between atoms: N_7  and  C_19
REMARK    6  A    between atoms: C_8  and  C_12
REMARK                            x       y       z     vdW  Elec       q    Type
REMARK                         _______ _______ _______ _____ _____    ______ ____
ROOT
ATOM      1  O   UNL     1     -12.984  -7.623  13.395  0.00  0.00    -0.252 OA
ATOM      4  N   UNL     1     -11.503  -7.370  15.131  0.00  0.00    -0.285 N 
ATOM      7  N   UNL     1     -12.136  -5.502  13.873  0.00  0.00    -0.269 N 
ATOM      8  C   UNL     1     -10.300  -8.969  16.418  0.00  0.00    +0.074 C 
ATOM      9  C   UNL     1     -10.222  -7.598  17.106  0.00  0.00    +0.032 C 
ATOM     10  C   UNL     1     -11.502  -8.786  15.484  0.00  0.00    +0.120 C 
ATOM     11  C   UNL     1     -10.619  -6.612  16.013  0.00  0.00    +0.110 C 
ATOM     13  C   UNL     1     -12.272  -6.877  14.070  0.00  0.00    +0.306 C 
ATOM     29  H   UNL     1     -11.497  -4.997  14.479  0.00  0.00    +0.156 HD
ENDROOT
BRANCH   8  12
ATOM      5  N   UNL     1      -7.844  -9.514  16.506  0.00  0.00    -0.341 N 
ATOM      6  N   UNL     1      -8.765  -9.536  14.482  0.00  0.00    -0.232 NA
ATOM     12  C   UNL     1      -8.980  -9.341  15.765  0.00  0.00    +0.113 A 
ATOM     14  C   UNL     1      -6.828  -9.840  15.645  0.00  0.00    +0.070 A 
ATOM     15  C   UNL     1      -7.427  -9.848  14.389  0.00  0.00    +0.089 A 
ATOM     16  C   UNL     1      -5.477 -10.123  15.852  0.00  0.00    +0.073 A 
ATOM     17  C   UNL     1      -6.648 -10.152  13.261  0.00  0.00    +0.033 A 
ATOM     18  C   UNL     1      -4.716 -10.422  14.717  0.00  0.00    +0.122 A 
ATOM     20  C   UNL     1      -5.289 -10.438  13.443  0.00  0.00    +0.048 A 
ATOM     28  H   UNL     1      -7.765  -9.416  17.510  0.00  0.00    +0.167 HD
BRANCH  18   2
ATOM      2  O   UNL     1      -3.390 -10.706  14.859  0.00  0.00    -0.495 OA
ATOM     26  C   UNL     1      -2.864 -10.693  16.183  0.00  0.00    +0.277 C 
ENDBRANCH  18   2
ENDBRANCH   8  12
BRANCH   7  19
ATOM     19  C   UNL     1     -12.770  -4.698  12.894  0.00  0.00    +0.038 A 
ATOM     21  C   UNL     1     -12.157  -4.492  11.657  0.00  0.00    +0.069 A 
ATOM     22  C   UNL     1     -14.006  -4.112  13.165  0.00  0.00    +0.023 A 
ATOM     23  C   UNL     1     -12.780  -3.700  10.693  0.00  0.00    +0.122 A 
ATOM     24  C   UNL     1     -14.629  -3.319  12.202  0.00  0.00    +0.005 A 
ATOM     25  C   UNL     1     -14.016  -3.114  10.965  0.00  0.00    +0.046 A 
BRANCH  23   3
ATOM      3  O   UNL     1     -12.181  -3.498   9.488  0.00  0.00    -0.495 OA
ATOM     27  C   UNL     1     -10.902  -4.100   9.290  0.00  0.00    +0.277 C 
ENDBRANCH  23   3
ENDBRANCH   7  19
TORSDOF 4
ENDMDL
MODEL 9
REMARK VINA RESULT:      -6.3      4.563      7.723
REMARK  Name = 51137022
REMARK  6 active torsions:
REMARK  status: ('A' for Active; 'I' for Inactive)
REMARK    1  A    between atoms: O_2  and  C_18
REMARK    2  A    between atoms: O_2  and  C_26
REMARK    3  A    between atoms: O_3  and  C_23
REMARK    4  A    between atoms: O_3  and  C_27
REMARK    5  A    between atoms: N_7  and  C_19
REMARK    6  A    between atoms: C_8  and  C_12
REMARK                            x       y       z     vdW  Elec       q    Type
REMARK                         _______ _______ _______ _____ _____    ______ ____
ROOT
ATOM      1  O   UNL     1      -4.478  -9.910  16.804  0.00  0.00    -0.252 OA
ATOM      4  N   UNL     1      -6.349 -11.157  17.268  0.00  0.00    -0.285 N 
ATOM      7  N   UNL     1      -5.043 -11.686  15.400  0.00  0.00    -0.269 N 
ATOM      8  C   UNL     1      -8.150 -10.789  18.778  0.00  0.00    +0.074 C 
ATOM      9  C   UNL     1      -8.191 -12.241  18.279  0.00  0.00    +0.032 C 
ATOM     10  C   UNL     1      -6.707 -10.384  18.452  0.00  0.00    +0.120 C 
ATOM     11  C   UNL     1      -7.312 -12.231  17.034  0.00  0.00    +0.110 C 
ATOM     13  C   UNL     1      -5.219 -10.847  16.501  0.00  0.00    +0.306 C 
ATOM     29  H   UNL     1      -5.737 -12.410  15.240  0.00  0.00    +0.156 HD
ENDROOT
BRANCH   8  12
ATOM      5  N   UNL     1      -8.973  -8.779  17.506  0.00  0.00    -0.341 N 
ATOM      6  N   UNL     1     -10.538 -10.225  18.142  0.00  0.00    -0.232 NA
ATOM     12  C   UNL     1      -9.252  -9.953  18.151  0.00  0.00    +0.113 A 
ATOM     14  C   UNL     1     -10.159  -8.259  17.053  0.00  0.00    +0.070 A 
ATOM     15  C   UNL     1     -11.120  -9.180  17.462  0.00  0.00    +0.089 A 
ATOM     16  C   UNL     1     -10.463  -7.099  16.340  0.00  0.00    +0.073 A 
ATOM     17  C   UNL     1     -12.469  -8.944  17.151  0.00  0.00    +0.033 A 
ATOM     18  C   UNL     1     -11.812  -6.880  16.040  0.00  0.00    +0.122 A 
ATOM     20  C   UNL     1     -12.799  -7.785  16.437  0.00  0.00    +0.048 A 
ATOM     28  H   UNL     1      -8.058  -8.366  17.387  0.00  0.00    +0.167 HD
BRANCH  18   2
ATOM      2  O   UNL     1     -12.167  -5.762  15.346  0.00  0.00    -0.495 OA
ATOM     26  C   UNL     1     -13.350  -5.841  14.556  0.00  0.00    +0.277 C 
ENDBRANCH  18   2
ENDBRANCH   8  12
BRANCH   7  19
ATOM     19  C   UNL     1      -4.009 -11.644  14.433  0.00  0.00    +0.038 A 
ATOM     21  C   UNL     1      -2.962 -12.564  14.491  0.00  0.00    +0.069 A 
ATOM     22  C   UNL     1      -4.037 -10.684  13.422  0.00  0.00    +0.023 A 
ATOM     23  C   UNL     1      -1.943 -12.523  13.539  0.00  0.00    +0.122 A 
ATOM     24  C   UNL     1      -3.019 -10.642  12.471  0.00  0.00    +0.005 A 
ATOM     25  C   UNL     1      -1.971 -11.561  12.529  0.00  0.00    +0.046 A 
BRANCH  23   3
ATOM      3  O   UNL     1      -0.920 -13.419  13.599  0.00  0.00    -0.495 OA
ATOM     27  C   UNL     1      -1.263 -14.801  13.506  0.00  0.00    +0.277 C 
ENDBRANCH  23   3
ENDBRANCH   7  19
TORSDOF 4
ENDMDL
MODEL 10
REMARK VINA RESULT:      -6.3      4.184      7.048
REMARK  Name = 51137022
REMARK  6 active torsions:
REMARK  status: ('A' for Active; 'I' for Inactive)
REMARK    1  A    between atoms: O_2  and  C_18
REMARK    2  A    between atoms: O_2  and  C_26
REMARK    3  A    between atoms: O_3  and  C_23
REMARK    4  A    between atoms: O_3  and  C_27
REMARK    5  A    between atoms: N_7  and  C_19
REMARK    6  A    between atoms: C_8  and  C_12
REMARK                            x       y       z     vdW  Elec       q    Type
REMARK                         _______ _______ _______ _____ _____    ______ ____
ROOT
ATOM      1  O   UNL     1      -4.243 -10.025  16.721  0.00  0.00    -0.252 OA
ATOM      4  N   UNL     1      -6.048 -11.338  17.258  0.00  0.00    -0.285 N 
ATOM      7  N   UNL     1      -4.818 -11.802  15.324  0.00  0.00    -0.269 N 
ATOM      8  C   UNL     1      -7.784 -11.048  18.859  0.00  0.00    +0.074 C 
ATOM      9  C   UNL     1      -7.802 -12.494  18.344  0.00  0.00    +0.032 C 
ATOM     10  C   UNL     1      -6.373 -10.591  18.468  0.00  0.00    +0.120 C 
ATOM     11  C   UNL     1      -6.986 -12.441  17.058  0.00  0.00    +0.110 C 
ATOM     13  C   UNL     1      -4.967 -10.983  16.443  0.00  0.00    +0.306 C 
ATOM     29  H   UNL     1      -5.495 -12.547  15.187  0.00  0.00    +0.156 HD
ENDROOT
BRANCH   8  12
ATOM      5  N   UNL     1      -8.756  -8.978  17.806  0.00  0.00    -0.341 N 
ATOM      6  N   UNL     1     -10.197 -10.622  18.209  0.00  0.00    -0.232 NA
ATOM     12  C   UNL     1      -8.942 -10.241  18.296  0.00  0.00    +0.113 A 
ATOM     14  C   UNL     1      -9.972  -8.513  17.375  0.00  0.00    +0.070 A 
ATOM     15  C   UNL     1     -10.855  -9.557  17.637  0.00  0.00    +0.089 A 
ATOM     16  C   UNL     1     -10.364  -7.306  16.795  0.00  0.00    +0.073 A 
ATOM     17  C   UNL     1     -12.212  -9.405  17.309  0.00  0.00    +0.033 A 
ATOM     18  C   UNL     1     -11.719  -7.172  16.475  0.00  0.00    +0.122 A 
ATOM     20  C   UNL     1     -12.628  -8.201  16.726  0.00  0.00    +0.048 A 
ATOM     28  H   UNL     1      -7.880  -8.474  17.770  0.00  0.00    +0.167 HD
BRANCH  18   2
ATOM      2  O   UNL     1     -12.158  -6.013  15.907  0.00  0.00    -0.495 OA
ATOM     26  C   UNL     1     -11.762  -5.762  14.561  0.00  0.00    +0.277 C 
ENDBRANCH  18   2
ENDBRANCH   8  12
BRANCH   7  19
ATOM     19  C   UNL     1      -3.834 -11.715  14.308  0.00  0.00    +0.038 A 
ATOM     21  C   UNL     1      -4.082 -10.962  13.160  0.00  0.00    +0.069 A 
ATOM     22  C   UNL     1      -2.618 -12.382  14.455  0.00  0.00    +0.023 A 
ATOM     23  C   UNL     1      -3.114 -10.877  12.159  0.00  0.00    +0.122 A 
ATOM     24  C   UNL     1      -1.651 -12.297  13.454  0.00  0.00    +0.005 A 
ATOM     25  C   UNL     1      -1.898 -11.544  12.306  0.00  0.00    +0.046 A 
BRANCH  23   3
ATOM      3  O   UNL     1      -3.358 -10.144  11.038  0.00  0.00    -0.495 OA
ATOM     27  C   UNL     1      -4.564  -9.382  11.011  0.00  0.00    +0.277 C 
ENDBRANCH  23   3
ENDBRANCH   7  19
TORSDOF 4
ENDMDL
