REMARK  Name = 25391196
REMARK  4 active torsions:
REMARK  status: ('A' for Active; 'I' for Inactive)
REMARK    1  A    between atoms: S_1  and  N_9
REMARK    2  A    between atoms: S_1  and  C_19
REMARK    3  A    between atoms: N_10  and  C_18
REMARK    4  A    between atoms: C_18  and  C_20
REMARK                            x       y       z     vdW  Elec       q    Type
REMARK                         _______ _______ _______ _____ _____    ______ ____
ROOT
ATOM      3  O   UNL     1      -2.720   0.700  -2.264  0.00  0.00    -0.273 OA
ATOM      4  O   UNL     1      -3.024   0.347   2.322  0.00  0.00    -0.252 OA
ATOM      8  N   UNL     1      -1.562   1.501   0.903  0.00  0.00    -0.271 N 
ATOM      9  N   UNL     1       1.030   1.907  -0.059  0.00  0.00    -0.173 NA
ATOM     10  N   UNL     1      -3.208   0.318  -0.010  0.00  0.00    -0.215 N 
ATOM     12  C   UNL     1      -1.376   1.708  -0.514  0.00  0.00    +0.180 C 
ATOM     13  C   UNL     1       0.009   1.248  -0.940  0.00  0.00    +0.141 C 
ATOM     14  C   UNL     1      -0.575   2.033   1.823  0.00  0.00    +0.127 C 
ATOM     15  C   UNL     1       0.818   1.581   1.392  0.00  0.00    +0.128 C 
ATOM     16  C   UNL     1      -2.503   0.854  -1.069  0.00  0.00    +0.245 C 
ATOM     17  C   UNL     1      -2.651   0.685   1.205  0.00  0.00    +0.312 C 
ENDROOT
BRANCH   9   1
ATOM      1  S   UNL     1       2.650   1.785  -0.605  0.00  0.00    +0.061 S 
ATOM      5  O   UNL     1       3.499   2.575   0.260  0.00  0.00    -0.153 OA
ATOM      6  O   UNL     1       2.675   1.963  -2.041  0.00  0.00    -0.153 OA
BRANCH   1  19
ATOM      2  F   UNL     1       3.693  -3.902   0.542  0.00  0.00    -0.205 F 
ATOM     19  C   UNL     1       2.963   0.082  -0.262  0.00  0.00    +0.106 A 
ATOM     21  C   UNL     1       2.692  -0.885  -1.230  0.00  0.00    +0.031 A 
ATOM     22  C   UNL     1       3.480  -0.296   0.977  0.00  0.00    +0.031 A 
ATOM     23  C   UNL     1       2.939  -2.231  -0.959  0.00  0.00    +0.040 A 
ATOM     24  C   UNL     1       3.727  -1.642   1.248  0.00  0.00    +0.040 A 
ATOM     25  C   UNL     1       3.457  -2.609   0.280  0.00  0.00    +0.124 A 
ENDBRANCH   1  19
ENDBRANCH   9   1
BRANCH  10  18
ATOM     18  C   UNL     1      -4.365  -0.543  -0.152  0.00  0.00    +0.213 C 
BRANCH  18  20
ATOM      7  O   UNL     1      -2.744  -2.340  -0.248  0.00  0.00    -0.274 OA
ATOM     11  N   UNL     1      -4.982  -2.855  -0.360  0.00  0.00    -0.328 N 
ATOM     20  C   UNL     1      -3.920  -1.985  -0.239  0.00  0.00    +0.228 C 
ATOM     26  H   UNL     1      -5.946  -2.537  -0.364  0.00  0.00    +0.145 HD
ATOM     27  H   UNL     1      -4.831  -3.855  -0.443  0.00  0.00    +0.145 HD
ENDBRANCH  18  20
ENDBRANCH  10  18
TORSDOF 4
