REMARK  Name = 45783491
REMARK  9 active torsions:
REMARK  status: ('A' for Active; 'I' for Inactive)
REMARK    1  A    between atoms: O_3  and  C_26
REMARK    2  A    between atoms: O_3  and  C_27
REMARK    3  A    between atoms: N_4  and  C_13
REMARK    4  A    between atoms: N_8  and  C_24
REMARK    5  A    between atoms: N_8  and  C_25
REMARK    6  A    between atoms: C_9  and  C_14
REMARK    7  A    between atoms: C_13  and  C_15
REMARK    8  A    between atoms: C_16  and  C_19
REMARK    9  A    between atoms: C_25  and  C_26
REMARK                            x       y       z     vdW  Elec       q    Type
REMARK                         _______ _______ _______ _____ _____    ______ ____
ROOT
ATOM      2  O   UNL     1      -2.371   0.288  -2.012  0.00  0.00    -0.336 OA
ATOM      5  N   UNL     1      -1.345   0.999  -0.152  0.00  0.00    -0.190 NA
ATOM      6  N   UNL     1      -1.003   0.062  -2.210  0.00  0.00    -0.056 NA
ATOM     14  C   UNL     1      -2.485   0.841  -0.776  0.00  0.00    +0.245 A 
ATOM     16  C   UNL     1      -0.465   0.507  -1.071  0.00  0.00    +0.204 A 
ENDROOT
BRANCH  16  19
ATOM      7  N   UNL     1       3.169  -0.087  -1.589  0.00  0.00    -0.240 NA
ATOM     19  C   UNL     1       0.947   0.475  -0.820  0.00  0.00    +0.041 A 
ATOM     21  C   UNL     1       1.473   0.948   0.377  0.00  0.00    +0.016 A 
ATOM     22  C   UNL     1       1.829  -0.028  -1.762  0.00  0.00    +0.124 A 
ATOM     23  C   UNL     1       2.846   0.904   0.592  0.00  0.00    +0.044 A 
ATOM     24  C   UNL     1       3.643   0.382  -0.413  0.00  0.00    +0.119 A 
BRANCH  24   8
ATOM      8  N   UNL     1       5.040   0.344  -0.180  0.00  0.00    -0.327 N 
ATOM     28  H   UNL     1       5.612  -0.043  -0.921  0.00  0.00    +0.148 HD
BRANCH   8  25
ATOM     25  C   UNL     1       5.632   0.817   1.029  0.00  0.00    +0.131 C 
BRANCH  25  26
ATOM     26  C   UNL     1       7.143   0.674   0.959  0.00  0.00    +0.178 C 
BRANCH  26   3
ATOM      3  O   UNL     1       7.482  -0.700   0.813  0.00  0.00    -0.381 OA
ATOM     27  C   UNL     1       8.889  -0.885   0.749  0.00  0.00    +0.194 C 
ENDBRANCH  26   3
ENDBRANCH  25  26
ENDBRANCH   8  25
ENDBRANCH  24   8
ENDBRANCH  16  19
BRANCH  14   9
ATOM      4  N   UNL     1      -4.248   0.517   0.950  0.00  0.00    -0.287 NA
ATOM      9  C   UNL     1      -3.887   1.184  -0.317  0.00  0.00    +0.146 C 
ATOM     10  C   UNL     1      -4.069   2.687  -0.034  0.00  0.00    +0.030 C 
ATOM     11  C   UNL     1      -4.593   2.762   1.393  0.00  0.00    +0.017 C 
ATOM     12  C   UNL     1      -5.207   1.396   1.621  0.00  0.00    +0.085 C 
BRANCH   4  13
ATOM     13  C   UNL     1      -4.776  -0.828   0.762  0.00  0.00    +0.127 C 
BRANCH  13  15
ATOM      1  S   UNL     1      -2.461  -2.037   1.720  0.00  0.00    -0.100 S 
ATOM     15  C   UNL     1      -3.679  -1.833   0.533  0.00  0.00    +0.004 A 
ATOM     17  C   UNL     1      -3.491  -2.665  -0.549  0.00  0.00    +0.012 A 
ATOM     18  C   UNL     1      -2.332  -3.481  -0.401  0.00  0.00    +0.008 A 
ATOM     20  C   UNL     1      -1.678  -3.241   0.787  0.00  0.00    +0.045 A 
ENDBRANCH  13  15
ENDBRANCH   4  13
ENDBRANCH  14   9
TORSDOF 8
