MODEL 1
REMARK VINA RESULT:      -7.7      0.000      0.000
REMARK  Name = 11941543
REMARK  7 active torsions:
REMARK  status: ('A' for Active; 'I' for Inactive)
REMARK    1  A    between atoms: O_6  and  C_24
REMARK    2  A    between atoms: O_6  and  C_29
REMARK    3  A    between atoms: O_7  and  C_33
REMARK    4  A    between atoms: N_10  and  C_12
REMARK    5  A    between atoms: C_20  and  C_24
REMARK    6  A    between atoms: C_23  and  C_26
REMARK    7  A    between atoms: C_29  and  C_33
REMARK                            x       y       z     vdW  Elec       q    Type
REMARK                         _______ _______ _______ _____ _____    ______ ____
ROOT
ATOM      3  O   UNL     1      16.807   5.540  18.005  0.00  0.00    -0.273 OA
ATOM      4  O   UNL     1      17.801   9.696  21.088  0.00  0.00    -0.270 OA
ATOM      9  N   UNL     1      16.539   8.001  20.180  0.00  0.00    -0.284 N 
ATOM     11  N   UNL     1      18.454   5.860  19.546  0.00  0.00    -0.283 N 
ATOM     12  C   UNL     1      14.720   6.622  19.560  0.00  0.00    +0.104 C 
ATOM     13  C   UNL     1      16.167   6.603  20.072  0.00  0.00    +0.183 C 
ATOM     14  C   UNL     1      14.631   7.945  18.796  0.00  0.00    +0.043 C 
ATOM     15  C   UNL     1      15.530   8.874  19.598  0.00  0.00    +0.111 C 
ATOM     16  C   UNL     1      17.156   5.991  19.098  0.00  0.00    +0.240 C 
ATOM     17  C   UNL     1      17.614   8.495  20.887  0.00  0.00    +0.249 C 
ATOM     18  C   UNL     1      18.612   7.527  21.411  0.00  0.00    +0.059 A 
ATOM     19  C   UNL     1      19.033   6.376  20.725  0.00  0.00    +0.046 A 
ATOM     21  C   UNL     1      19.273   7.910  22.592  0.00  0.00    +0.023 A 
ATOM     22  C   UNL     1      20.153   5.672  21.206  0.00  0.00    +0.024 A 
ATOM     23  C   UNL     1      20.352   7.173  23.079  0.00  0.00    -0.014 A 
ATOM     25  C   UNL     1      20.800   6.061  22.378  0.00  0.00    +0.010 A 
ATOM     35  H   UNL     1      19.045   5.244  18.994  0.00  0.00    +0.155 HD
ENDROOT
BRANCH  23  26
ATOM      1  F   UNL     1      22.405   9.092  23.096  0.00  0.00    -0.205 F 
ATOM      2  F   UNL     1      22.909   8.726  27.784  0.00  0.00    -0.205 F 
ATOM     26  C   UNL     1      21.017   7.579  24.298  0.00  0.00    +0.018 A 
ATOM     27  C   UNL     1      22.031   8.536  24.258  0.00  0.00    +0.134 A 
ATOM     28  C   UNL     1      20.643   7.010  25.515  0.00  0.00    +0.014 A 
ATOM     30  C   UNL     1      22.670   8.924  25.435  0.00  0.00    +0.077 A 
ATOM     31  C   UNL     1      21.281   7.398  26.693  0.00  0.00    +0.039 A 
ATOM     32  C   UNL     1      22.295   8.355  26.653  0.00  0.00    +0.126 A 
ENDBRANCH  23  26
BRANCH  12  10
ATOM      5  O   UNL     1      11.829   6.692  19.401  0.00  0.00    -0.273 OA
ATOM     10  N   UNL     1      13.782   6.587  20.658  0.00  0.00    -0.308 N 
ATOM     20  C   UNL     1      12.409   6.626  20.482  0.00  0.00    +0.239 C 
ATOM     34  H   UNL     1      14.152   6.480  21.600  0.00  0.00    +0.149 HD
BRANCH  20  24
ATOM     24  C   UNL     1      11.673   6.576  21.804  0.00  0.00    +0.256 C 
BRANCH  24   6
ATOM      6  O   UNL     1      10.610   7.505  21.819  0.00  0.00    -0.359 OA
BRANCH   6  29
ATOM     29  C   UNL     1      10.833   8.551  22.761  0.00  0.00    +0.280 C 
BRANCH  29  33
ATOM      8  O   UNL     1      11.513  10.009  20.940  0.00  0.00    -0.248 OA
ATOM     33  C   UNL     1      11.001   9.859  22.039  0.00  0.00    +0.331 C 
BRANCH  33   7
ATOM      7  O   UNL     1      10.495  10.874  22.784  0.00  0.00    -0.479 OA
ATOM     36  H   UNL     1      10.040  11.544  22.230  0.00  0.00    +0.295 HD
ENDBRANCH  33   7
ENDBRANCH  29  33
ENDBRANCH   6  29
ENDBRANCH  24   6
ENDBRANCH  20  24
ENDBRANCH  12  10
TORSDOF 7
ENDMDL
MODEL 2
REMARK VINA RESULT:      -7.4      7.274      9.222
REMARK  Name = 11941543
REMARK  7 active torsions:
REMARK  status: ('A' for Active; 'I' for Inactive)
REMARK    1  A    between atoms: O_6  and  C_24
REMARK    2  A    between atoms: O_6  and  C_29
REMARK    3  A    between atoms: O_7  and  C_33
REMARK    4  A    between atoms: N_10  and  C_12
REMARK    5  A    between atoms: C_20  and  C_24
REMARK    6  A    between atoms: C_23  and  C_26
REMARK    7  A    between atoms: C_29  and  C_33
REMARK                            x       y       z     vdW  Elec       q    Type
REMARK                         _______ _______ _______ _____ _____    ______ ____
ROOT
ATOM      3  O   UNL     1      13.776   8.311  15.559  0.00  0.00    -0.273 OA
ATOM      4  O   UNL     1      15.191  11.925  19.122  0.00  0.00    -0.270 OA
ATOM      9  N   UNL     1      14.446  11.151  17.088  0.00  0.00    -0.284 N 
ATOM     11  N   UNL     1      13.025   8.646  17.684  0.00  0.00    -0.283 N 
ATOM     12  C   UNL     1      13.807  11.027  14.814  0.00  0.00    +0.104 C 
ATOM     13  C   UNL     1      13.413  10.596  16.233  0.00  0.00    +0.183 C 
ATOM     14  C   UNL     1      15.326  11.193  14.901  0.00  0.00    +0.043 C 
ATOM     15  C   UNL     1      15.542  11.716  16.314  0.00  0.00    +0.111 C 
ATOM     16  C   UNL     1      13.462   9.096  16.455  0.00  0.00    +0.240 C 
ATOM     17  C   UNL     1      14.363  11.303  18.455  0.00  0.00    +0.249 C 
ATOM     18  C   UNL     1      13.227  10.659  19.163  0.00  0.00    +0.059 A 
ATOM     19  C   UNL     1      12.700   9.399  18.832  0.00  0.00    +0.046 A 
ATOM     21  C   UNL     1      12.790  11.305  20.334  0.00  0.00    +0.023 A 
ATOM     22  C   UNL     1      11.795   8.788  19.719  0.00  0.00    +0.024 A 
ATOM     23  C   UNL     1      11.857  10.704  21.177  0.00  0.00    -0.014 A 
ATOM     25  C   UNL     1      11.369   9.438  20.876  0.00  0.00    +0.010 A 
ATOM     35  H   UNL     1      12.837   7.647  17.739  0.00  0.00    +0.155 HD
ENDROOT
BRANCH  23  26
ATOM      1  F   UNL     1      10.843  13.324  21.122  0.00  0.00    -0.205 F 
ATOM      2  F   UNL     1      10.166  13.320  25.802  0.00  0.00    -0.205 F 
ATOM     26  C   UNL     1      11.416  11.385  22.375  0.00  0.00    +0.018 A 
ATOM     27  C   UNL     1      10.920  12.687  22.299  0.00  0.00    +0.134 A 
ATOM     28  C   UNL     1      11.491  10.738  23.608  0.00  0.00    +0.014 A 
ATOM     30  C   UNL     1      10.497  13.340  23.456  0.00  0.00    +0.077 A 
ATOM     31  C   UNL     1      11.068  11.391  24.766  0.00  0.00    +0.039 A 
ATOM     32  C   UNL     1      10.570  12.693  24.690  0.00  0.00    +0.126 A 
ENDBRANCH  23  26
BRANCH  12  10
ATOM      5  O   UNL     1      12.984  11.878  12.170  0.00  0.00    -0.273 OA
ATOM     10  N   UNL     1      13.165  12.271  14.455  0.00  0.00    -0.308 N 
ATOM     20  C   UNL     1      12.808  12.591  13.155  0.00  0.00    +0.239 C 
ATOM     34  H   UNL     1      12.923  12.918  15.202  0.00  0.00    +0.149 HD
BRANCH  20  24
ATOM     24  C   UNL     1      12.154  13.954  13.074  0.00  0.00    +0.256 C 
BRANCH  24   6
ATOM      6  O   UNL     1      11.018  13.912  12.236  0.00  0.00    -0.359 OA
BRANCH   6  29
ATOM     29  C   UNL     1       9.845  13.532  12.950  0.00  0.00    +0.280 C 
BRANCH  29  33
ATOM      8  O   UNL     1       9.669  11.693  11.370  0.00  0.00    -0.248 OA
ATOM     33  C   UNL     1       9.173  12.383  12.250  0.00  0.00    +0.331 C 
BRANCH  33   7
ATOM      7  O   UNL     1       7.918  12.208  12.734  0.00  0.00    -0.479 OA
ATOM     36  H   UNL     1       7.894  12.254  13.714  0.00  0.00    +0.295 HD
ENDBRANCH  33   7
ENDBRANCH  29  33
ENDBRANCH   6  29
ENDBRANCH  24   6
ENDBRANCH  20  24
ENDBRANCH  12  10
TORSDOF 7
ENDMDL
MODEL 3
REMARK VINA RESULT:      -7.3      5.211      8.240
REMARK  Name = 11941543
REMARK  7 active torsions:
REMARK  status: ('A' for Active; 'I' for Inactive)
REMARK    1  A    between atoms: O_6  and  C_24
REMARK    2  A    between atoms: O_6  and  C_29
REMARK    3  A    between atoms: O_7  and  C_33
REMARK    4  A    between atoms: N_10  and  C_12
REMARK    5  A    between atoms: C_20  and  C_24
REMARK    6  A    between atoms: C_23  and  C_26
REMARK    7  A    between atoms: C_29  and  C_33
REMARK                            x       y       z     vdW  Elec       q    Type
REMARK                         _______ _______ _______ _____ _____    ______ ____
ROOT
ATOM      3  O   UNL     1      12.063   6.400  19.242  0.00  0.00    -0.273 OA
ATOM      4  O   UNL     1      15.203   9.278  22.343  0.00  0.00    -0.270 OA
ATOM      9  N   UNL     1      14.319   8.527  20.357  0.00  0.00    -0.284 N 
ATOM     11  N   UNL     1      11.541   7.784  20.975  0.00  0.00    -0.283 N 
ATOM     12  C   UNL     1      13.970   8.102  18.056  0.00  0.00    +0.104 C 
ATOM     13  C   UNL     1      13.263   8.487  19.363  0.00  0.00    +0.183 C 
ATOM     14  C   UNL     1      15.194   7.316  18.533  0.00  0.00    +0.043 C 
ATOM     15  C   UNL     1      15.575   8.012  19.830  0.00  0.00    +0.111 C 
ATOM     16  C   UNL     1      12.275   7.447  19.857  0.00  0.00    +0.240 C 
ATOM     17  C   UNL     1      14.236   9.125  21.596  0.00  0.00    +0.249 C 
ATOM     18  C   UNL     1      12.903   9.584  22.063  0.00  0.00    +0.059 A 
ATOM     19  C   UNL     1      11.701   8.894  21.831  0.00  0.00    +0.046 A 
ATOM     21  C   UNL     1      12.907  10.694  22.928  0.00  0.00    +0.023 A 
ATOM     22  C   UNL     1      10.545   9.293  22.525  0.00  0.00    +0.024 A 
ATOM     23  C   UNL     1      11.740  11.104  23.572  0.00  0.00    -0.014 A 
ATOM     25  C   UNL     1      10.561  10.395  23.380  0.00  0.00    +0.010 A 
ATOM     35  H   UNL     1      10.729   7.197  21.155  0.00  0.00    +0.155 HD
ENDROOT
BRANCH  23  26
ATOM      1  F   UNL     1      13.813  11.528  25.421  0.00  0.00    -0.205 F 
ATOM      2  F   UNL     1      11.812  15.522  26.972  0.00  0.00    -0.205 F 
ATOM     26  C   UNL     1      11.763  12.249  24.455  0.00  0.00    +0.018 A 
ATOM     27  C   UNL     1      12.813  12.419  25.357  0.00  0.00    +0.134 A 
ATOM     28  C   UNL     1      10.729  13.184  24.404  0.00  0.00    +0.014 A 
ATOM     30  C   UNL     1      12.830  13.524  26.207  0.00  0.00    +0.077 A 
ATOM     31  C   UNL     1      10.746  14.290  25.254  0.00  0.00    +0.039 A 
ATOM     32  C   UNL     1      11.797  14.461  26.156  0.00  0.00    +0.126 A 
ENDBRANCH  23  26
BRANCH  12  10
ATOM      5  O   UNL     1      13.280   8.760  15.321  0.00  0.00    -0.273 OA
ATOM     10  N   UNL     1      14.361   9.279  17.314  0.00  0.00    -0.308 N 
ATOM     20  C   UNL     1      13.979   9.506  16.001  0.00  0.00    +0.239 C 
ATOM     34  H   UNL     1      14.900   9.992  17.797  0.00  0.00    +0.149 HD
BRANCH  20  24
ATOM     24  C   UNL     1      14.531  10.815  15.477  0.00  0.00    +0.256 C 
BRANCH  24   6
ATOM      6  O   UNL     1      14.290  10.938  14.092  0.00  0.00    -0.359 OA
BRANCH   6  29
ATOM     29  C   UNL     1      13.779  12.225  13.755  0.00  0.00    +0.280 C 
BRANCH  29  33
ATOM      8  O   UNL     1      12.524  12.067  11.680  0.00  0.00    -0.248 OA
ATOM     33  C   UNL     1      12.549  12.077  12.902  0.00  0.00    +0.331 C 
BRANCH  33   7
ATOM      7  O   UNL     1      11.448  11.953  13.685  0.00  0.00    -0.479 OA
ATOM     36  H   UNL     1      11.092  12.825  13.957  0.00  0.00    +0.295 HD
ENDBRANCH  33   7
ENDBRANCH  29  33
ENDBRANCH   6  29
ENDBRANCH  24   6
ENDBRANCH  20  24
ENDBRANCH  12  10
TORSDOF 7
ENDMDL
MODEL 4
REMARK VINA RESULT:      -7.1     15.828     18.446
REMARK  Name = 11941543
REMARK  7 active torsions:
REMARK  status: ('A' for Active; 'I' for Inactive)
REMARK    1  A    between atoms: O_6  and  C_24
REMARK    2  A    between atoms: O_6  and  C_29
REMARK    3  A    between atoms: O_7  and  C_33
REMARK    4  A    between atoms: N_10  and  C_12
REMARK    5  A    between atoms: C_20  and  C_24
REMARK    6  A    between atoms: C_23  and  C_26
REMARK    7  A    between atoms: C_29  and  C_33
REMARK                            x       y       z     vdW  Elec       q    Type
REMARK                         _______ _______ _______ _____ _____    ______ ____
ROOT
ATOM      3  O   UNL     1       9.967   9.225   4.732  0.00  0.00    -0.273 OA
ATOM      4  O   UNL     1      13.623   6.497   7.368  0.00  0.00    -0.270 OA
ATOM      9  N   UNL     1      11.918   6.821   5.859  0.00  0.00    -0.284 N 
ATOM     11  N   UNL     1      12.203   9.604   4.951  0.00  0.00    -0.283 N 
ATOM     12  C   UNL     1      10.167   6.446   4.313  0.00  0.00    +0.104 C 
ATOM     13  C   UNL     1      11.412   7.301   4.587  0.00  0.00    +0.183 C 
ATOM     14  C   UNL     1       9.696   6.046   5.713  0.00  0.00    +0.043 C 
ATOM     15  C   UNL     1      10.995   5.888   6.489  0.00  0.00    +0.111 C 
ATOM     16  C   UNL     1      11.112   8.774   4.797  0.00  0.00    +0.240 C 
ATOM     17  C   UNL     1      13.178   7.055   6.365  0.00  0.00    +0.249 C 
ATOM     18  C   UNL     1      14.035   8.053   5.674  0.00  0.00    +0.059 A 
ATOM     19  C   UNL     1      13.560   9.252   5.115  0.00  0.00    +0.046 A 
ATOM     21  C   UNL     1      15.421   7.829   5.752  0.00  0.00    +0.023 A 
ATOM     22  C   UNL     1      14.490  10.226   4.709  0.00  0.00    +0.024 A 
ATOM     23  C   UNL     1      16.328   8.787   5.301  0.00  0.00    -0.014 A 
ATOM     25  C   UNL     1      15.862   9.992   4.791  0.00  0.00    +0.010 A 
ATOM     35  H   UNL     1      12.011  10.598   4.852  0.00  0.00    +0.155 HD
ENDROOT
BRANCH  23  26
ATOM      1  F   UNL     1      17.819   7.864   3.105  0.00  0.00    -0.205 F 
ATOM      2  F   UNL     1      21.809   7.821   5.643  0.00  0.00    -0.205 F 
ATOM     26  C   UNL     1      17.750   8.536   5.385  0.00  0.00    +0.018 A 
ATOM     27  C   UNL     1      18.450   8.078   4.269  0.00  0.00    +0.134 A 
ATOM     28  C   UNL     1      18.422   8.751   6.589  0.00  0.00    +0.014 A 
ATOM     30  C   UNL     1      19.821   7.837   4.355  0.00  0.00    +0.077 A 
ATOM     31  C   UNL     1      19.793   8.510   6.676  0.00  0.00    +0.039 A 
ATOM     32  C   UNL     1      20.493   8.053   5.559  0.00  0.00    +0.126 A 
ENDBRANCH  23  26
BRANCH  12  10
ATOM      5  O   UNL     1      10.396   6.294   1.429  0.00  0.00    -0.273 OA
ATOM     10  N   UNL     1      10.503   5.284   3.522  0.00  0.00    -0.308 N 
ATOM     20  C   UNL     1      10.588   5.310   2.139  0.00  0.00    +0.239 C 
ATOM     34  H   UNL     1      10.734   4.423   4.010  0.00  0.00    +0.149 HD
BRANCH  20  24
ATOM     24  C   UNL     1      10.956   3.953   1.576  0.00  0.00    +0.256 C 
BRANCH  24   6
ATOM      6  O   UNL     1      12.098   3.438   2.226  0.00  0.00    -0.359 OA
BRANCH   6  29
ATOM     29  C   UNL     1      13.168   3.203   1.314  0.00  0.00    +0.280 C 
BRANCH  29  33
ATOM      8  O   UNL     1      14.424   5.239   1.738  0.00  0.00    -0.248 OA
ATOM     33  C   UNL     1      14.366   4.019   1.714  0.00  0.00    +0.331 C 
BRANCH  33   7
ATOM      7  O   UNL     1      15.396   3.203   2.053  0.00  0.00    -0.479 OA
ATOM     36  H   UNL     1      16.264   3.584   1.801  0.00  0.00    +0.295 HD
ENDBRANCH  33   7
ENDBRANCH  29  33
ENDBRANCH   6  29
ENDBRANCH  24   6
ENDBRANCH  20  24
ENDBRANCH  12  10
TORSDOF 7
ENDMDL
MODEL 5
REMARK VINA RESULT:      -7.1     28.145     30.846
REMARK  Name = 11941543
REMARK  7 active torsions:
REMARK  status: ('A' for Active; 'I' for Inactive)
REMARK    1  A    between atoms: O_6  and  C_24
REMARK    2  A    between atoms: O_6  and  C_29
REMARK    3  A    between atoms: O_7  and  C_33
REMARK    4  A    between atoms: N_10  and  C_12
REMARK    5  A    between atoms: C_20  and  C_24
REMARK    6  A    between atoms: C_23  and  C_26
REMARK    7  A    between atoms: C_29  and  C_33
REMARK                            x       y       z     vdW  Elec       q    Type
REMARK                         _______ _______ _______ _____ _____    ______ ____
ROOT
ATOM      3  O   UNL     1      -1.793 -10.694  16.551  0.00  0.00    -0.273 OA
ATOM      4  O   UNL     1      -4.677 -13.570  13.210  0.00  0.00    -0.270 OA
ATOM      9  N   UNL     1      -4.284 -12.222  15.032  0.00  0.00    -0.284 N 
ATOM     11  N   UNL     1      -1.977 -10.559  14.285  0.00  0.00    -0.283 N 
ATOM     12  C   UNL     1      -4.543 -11.035  17.061  0.00  0.00    +0.104 C 
ATOM     13  C   UNL     1      -4.006 -10.929  15.627  0.00  0.00    +0.183 C 
ATOM     14  C   UNL     1      -4.458 -12.533  17.362  0.00  0.00    +0.043 C 
ATOM     15  C   UNL     1      -4.762 -13.180  16.019  0.00  0.00    +0.111 C 
ATOM     16  C   UNL     1      -2.501 -10.757  15.545  0.00  0.00    +0.240 C 
ATOM     17  C   UNL     1      -4.278 -12.506  13.683  0.00  0.00    +0.249 C 
ATOM     18  C   UNL     1      -3.736 -11.480  12.755  0.00  0.00    +0.059 A 
ATOM     19  C   UNL     1      -2.624 -10.667  13.035  0.00  0.00    +0.046 A 
ATOM     21  C   UNL     1      -4.293 -11.467  11.463  0.00  0.00    +0.023 A 
ATOM     22  C   UNL     1      -2.057  -9.911  11.993  0.00  0.00    +0.024 A 
ATOM     23  C   UNL     1      -3.745 -10.675  10.455  0.00  0.00    -0.014 A 
ATOM     25  C   UNL     1      -2.618  -9.907  10.717  0.00  0.00    +0.010 A 
ATOM     35  H   UNL     1      -1.021 -10.211  14.261  0.00  0.00    +0.155 HD
ENDROOT
BRANCH  23  26
ATOM      1  F   UNL     1      -5.130  -8.452   9.438  0.00  0.00    -0.205 F 
ATOM      2  F   UNL     1      -6.015 -10.681   5.362  0.00  0.00    -0.205 F 
ATOM     26  C   UNL     1      -4.334 -10.673   9.134  0.00  0.00    +0.018 A 
ATOM     27  C   UNL     1      -5.013  -9.545   8.671  0.00  0.00    +0.134 A 
ATOM     28  C   UNL     1      -4.224 -11.802   8.324  0.00  0.00    +0.014 A 
ATOM     30  C   UNL     1      -5.580  -9.548   7.397  0.00  0.00    +0.077 A 
ATOM     31  C   UNL     1      -4.792 -11.805   7.049  0.00  0.00    +0.039 A 
ATOM     32  C   UNL     1      -5.470 -10.677   6.585  0.00  0.00    +0.126 A 
ENDBRANCH  23  26
BRANCH  12  10
ATOM      5  O   UNL     1      -6.041 -10.389  19.455  0.00  0.00    -0.273 OA
ATOM     10  N   UNL     1      -5.906 -10.562  17.140  0.00  0.00    -0.308 N 
ATOM     20  C   UNL     1      -6.540 -10.279  18.338  0.00  0.00    +0.239 C 
ATOM     34  H   UNL     1      -6.401 -10.385  16.269  0.00  0.00    +0.149 HD
BRANCH  20  24
ATOM     24  C   UNL     1      -7.961  -9.803  18.120  0.00  0.00    +0.256 C 
BRANCH  24   6
ATOM      6  O   UNL     1      -8.046  -9.006  16.958  0.00  0.00    -0.359 OA
BRANCH   6  29
ATOM     29  C   UNL     1      -9.111  -9.420  16.106  0.00  0.00    +0.280 C 
BRANCH  29  33
ATOM      8  O   UNL     1      -9.312  -9.639  13.695  0.00  0.00    -0.248 OA
ATOM     33  C   UNL     1      -8.614  -9.548  14.693  0.00  0.00    +0.331 C 
BRANCH  33   7
ATOM      7  O   UNL     1      -7.257  -9.547  14.672  0.00  0.00    -0.479 OA
ATOM     36  H   UNL     1      -6.877  -9.810  15.537  0.00  0.00    +0.295 HD
ENDBRANCH  33   7
ENDBRANCH  29  33
ENDBRANCH   6  29
ENDBRANCH  24   6
ENDBRANCH  20  24
ENDBRANCH  12  10
TORSDOF 7
ENDMDL
MODEL 6
REMARK VINA RESULT:      -7.1      5.501      8.978
REMARK  Name = 11941543
REMARK  7 active torsions:
REMARK  status: ('A' for Active; 'I' for Inactive)
REMARK    1  A    between atoms: O_6  and  C_24
REMARK    2  A    between atoms: O_6  and  C_29
REMARK    3  A    between atoms: O_7  and  C_33
REMARK    4  A    between atoms: N_10  and  C_12
REMARK    5  A    between atoms: C_20  and  C_24
REMARK    6  A    between atoms: C_23  and  C_26
REMARK    7  A    between atoms: C_29  and  C_33
REMARK                            x       y       z     vdW  Elec       q    Type
REMARK                         _______ _______ _______ _____ _____    ______ ____
ROOT
ATOM      3  O   UNL     1       9.729  13.129  24.626  0.00  0.00    -0.273 OA
ATOM      4  O   UNL     1      14.160  12.979  21.780  0.00  0.00    -0.270 OA
ATOM      9  N   UNL     1      12.881  13.240  23.674  0.00  0.00    -0.284 N 
ATOM     11  N   UNL     1      10.556  11.480  23.289  0.00  0.00    -0.283 N 
ATOM     12  C   UNL     1      12.175  13.771  25.868  0.00  0.00    +0.104 C 
ATOM     13  C   UNL     1      12.097  12.702  24.769  0.00  0.00    +0.183 C 
ATOM     14  C   UNL     1      12.408  15.067  25.087  0.00  0.00    +0.043 C 
ATOM     15  C   UNL     1      13.272  14.622  23.917  0.00  0.00    +0.111 C 
ATOM     16  C   UNL     1      10.701  12.496  24.210  0.00  0.00    +0.240 C 
ATOM     17  C   UNL     1      13.365  12.522  22.601  0.00  0.00    +0.249 C 
ATOM     18  C   UNL     1      12.879  11.131  22.415  0.00  0.00    +0.059 A 
ATOM     19  C   UNL     1      11.560  10.713  22.659  0.00  0.00    +0.046 A 
ATOM     21  C   UNL     1      13.780  10.245  21.796  0.00  0.00    +0.023 A 
ATOM     22  C   UNL     1      11.158   9.440  22.217  0.00  0.00    +0.024 A 
ATOM     23  C   UNL     1      13.377   8.969  21.407  0.00  0.00    -0.014 A 
ATOM     25  C   UNL     1      12.061   8.571  21.605  0.00  0.00    +0.010 A 
ATOM     35  H   UNL     1       9.597  11.196  23.103  0.00  0.00    +0.155 HD
ENDROOT
BRANCH  23  26
ATOM      1  F   UNL     1      13.526   8.674  18.616  0.00  0.00    -0.205 F 
ATOM      2  F   UNL     1      17.013   5.501  18.990  0.00  0.00    -0.205 F 
ATOM     26  C   UNL     1      14.319   8.071  20.776  0.00  0.00    +0.018 A 
ATOM     27  C   UNL     1      14.358   7.957  19.386  0.00  0.00    +0.134 A 
ATOM     28  C   UNL     1      15.190   7.316  21.562  0.00  0.00    +0.014 A 
ATOM     30  C   UNL     1      15.267   7.089  18.783  0.00  0.00    +0.077 A 
ATOM     31  C   UNL     1      16.100   6.448  20.958  0.00  0.00    +0.039 A 
ATOM     32  C   UNL     1      16.139   6.335  19.568  0.00  0.00    +0.126 A 
ENDBRANCH  23  26
BRANCH  12  10
ATOM      5  O   UNL     1      12.779  15.143  28.346  0.00  0.00    -0.273 OA
ATOM     10  N   UNL     1      13.269  13.502  26.773  0.00  0.00    -0.308 N 
ATOM     20  C   UNL     1      13.477  14.218  27.941  0.00  0.00    +0.239 C 
ATOM     34  H   UNL     1      13.883  12.720  26.563  0.00  0.00    +0.149 HD
BRANCH  20  24
ATOM     24  C   UNL     1      14.694  13.721  28.692  0.00  0.00    +0.256 C 
BRANCH  24   6
ATOM      6  O   UNL     1      14.458  12.437  29.230  0.00  0.00    -0.359 OA
BRANCH   6  29
ATOM     29  C   UNL     1      15.593  11.586  29.092  0.00  0.00    +0.280 C 
BRANCH  29  33
ATOM      8  O   UNL     1      14.807  10.944  26.885  0.00  0.00    -0.248 OA
ATOM     33  C   UNL     1      15.729  11.148  27.661  0.00  0.00    +0.331 C 
BRANCH  33   7
ATOM      7  O   UNL     1      17.039  11.006  27.336  0.00  0.00    -0.479 OA
ATOM     36  H   UNL     1      17.163  10.844  26.376  0.00  0.00    +0.295 HD
ENDBRANCH  33   7
ENDBRANCH  29  33
ENDBRANCH   6  29
ENDBRANCH  24   6
ENDBRANCH  20  24
ENDBRANCH  12  10
TORSDOF 7
ENDMDL
MODEL 7
REMARK VINA RESULT:      -6.9     31.014     33.138
REMARK  Name = 11941543
REMARK  7 active torsions:
REMARK  status: ('A' for Active; 'I' for Inactive)
REMARK    1  A    between atoms: O_6  and  C_24
REMARK    2  A    between atoms: O_6  and  C_29
REMARK    3  A    between atoms: O_7  and  C_33
REMARK    4  A    between atoms: N_10  and  C_12
REMARK    5  A    between atoms: C_20  and  C_24
REMARK    6  A    between atoms: C_23  and  C_26
REMARK    7  A    between atoms: C_29  and  C_33
REMARK                            x       y       z     vdW  Elec       q    Type
REMARK                         _______ _______ _______ _____ _____    ______ ____
ROOT
ATOM      3  O   UNL     1     -16.485   1.708  24.571  0.00  0.00    -0.273 OA
ATOM      4  O   UNL     1     -17.599   6.844  24.185  0.00  0.00    -0.270 OA
ATOM      9  N   UNL     1     -17.045   4.883  25.252  0.00  0.00    -0.284 N 
ATOM     11  N   UNL     1     -15.535   3.320  23.271  0.00  0.00    -0.283 N 
ATOM     12  C   UNL     1     -16.631   3.257  26.920  0.00  0.00    +0.104 C 
ATOM     13  C   UNL     1     -16.093   3.848  25.609  0.00  0.00    +0.183 C 
ATOM     14  C   UNL     1     -18.136   3.520  26.837  0.00  0.00    +0.043 C 
ATOM     15  C   UNL     1     -18.221   4.854  26.111  0.00  0.00    +0.111 C 
ATOM     16  C   UNL     1     -16.097   2.872  24.448  0.00  0.00    +0.240 C 
ATOM     17  C   UNL     1     -16.832   5.893  24.339  0.00  0.00    +0.249 C 
ATOM     18  C   UNL     1     -15.622   5.816  23.480  0.00  0.00    +0.059 A 
ATOM     19  C   UNL     1     -15.110   4.625  22.939  0.00  0.00    +0.046 A 
ATOM     21  C   UNL     1     -15.082   7.049  23.071  0.00  0.00    +0.023 A 
ATOM     22  C   UNL     1     -14.114   4.702  21.949  0.00  0.00    +0.024 A 
ATOM     23  C   UNL     1     -14.062   7.104  22.123  0.00  0.00    -0.014 A 
ATOM     25  C   UNL     1     -13.586   5.930  21.552  0.00  0.00    +0.010 A 
ATOM     35  H   UNL     1     -15.327   2.597  22.585  0.00  0.00    +0.155 HD
ENDROOT
BRANCH  23  26
ATOM      1  F   UNL     1     -13.390   7.664  19.452  0.00  0.00    -0.205 F 
ATOM      2  F   UNL     1     -11.958  12.029  20.574  0.00  0.00    -0.205 F 
ATOM     26  C   UNL     1     -13.517   8.381  21.717  0.00  0.00    +0.018 A 
ATOM     27  C   UNL     1     -13.198   8.614  20.379  0.00  0.00    +0.134 A 
ATOM     28  C   UNL     1     -13.308   9.379  22.668  0.00  0.00    +0.014 A 
ATOM     30  C   UNL     1     -12.672   9.847  19.993  0.00  0.00    +0.077 A 
ATOM     31  C   UNL     1     -12.782  10.612  22.282  0.00  0.00    +0.039 A 
ATOM     32  C   UNL     1     -12.464  10.846  20.944  0.00  0.00    +0.126 A 
ENDBRANCH  23  26
BRANCH  12  10
ATOM      5  O   UNL     1     -16.438   2.244  29.626  0.00  0.00    -0.273 OA
ATOM     10  N   UNL     1     -16.046   3.920  28.063  0.00  0.00    -0.308 N 
ATOM     20  C   UNL     1     -16.001   3.352  29.326  0.00  0.00    +0.239 C 
ATOM     34  H   UNL     1     -15.606   4.825  27.918  0.00  0.00    +0.149 HD
BRANCH  20  24
ATOM     24  C   UNL     1     -15.333   4.268  30.328  0.00  0.00    +0.256 C 
BRANCH  24   6
ATOM      6  O   UNL     1     -14.243   3.620  30.948  0.00  0.00    -0.359 OA
BRANCH   6  29
ATOM     29  C   UNL     1     -14.413   3.526  32.360  0.00  0.00    +0.280 C 
BRANCH  29  33
ATOM      8  O   UNL     1     -14.532   1.118  32.059  0.00  0.00    -0.248 OA
ATOM     33  C   UNL     1     -14.748   2.110  32.739  0.00  0.00    +0.331 C 
BRANCH  33   7
ATOM      7  O   UNL     1     -15.333   2.079  33.963  0.00  0.00    -0.479 OA
ATOM     36  H   UNL     1     -15.970   1.338  34.046  0.00  0.00    +0.295 HD
ENDBRANCH  33   7
ENDBRANCH  29  33
ENDBRANCH   6  29
ENDBRANCH  24   6
ENDBRANCH  20  24
ENDBRANCH  12  10
TORSDOF 7
ENDMDL
MODEL 8
REMARK VINA RESULT:      -6.8      5.845      9.321
REMARK  Name = 11941543
REMARK  7 active torsions:
REMARK  status: ('A' for Active; 'I' for Inactive)
REMARK    1  A    between atoms: O_6  and  C_24
REMARK    2  A    between atoms: O_6  and  C_29
REMARK    3  A    between atoms: O_7  and  C_33
REMARK    4  A    between atoms: N_10  and  C_12
REMARK    5  A    between atoms: C_20  and  C_24
REMARK    6  A    between atoms: C_23  and  C_26
REMARK    7  A    between atoms: C_29  and  C_33
REMARK                            x       y       z     vdW  Elec       q    Type
REMARK                         _______ _______ _______ _____ _____    ______ ____
ROOT
ATOM      3  O   UNL     1       9.898  13.149  24.811  0.00  0.00    -0.273 OA
ATOM      4  O   UNL     1      14.293  12.988  21.909  0.00  0.00    -0.270 OA
ATOM      9  N   UNL     1      13.044  13.154  23.834  0.00  0.00    -0.284 N 
ATOM     11  N   UNL     1      10.612  11.581  23.320  0.00  0.00    -0.283 N 
ATOM     12  C   UNL     1      12.387  13.525  26.076  0.00  0.00    +0.104 C 
ATOM     13  C   UNL     1      12.236  12.567  24.886  0.00  0.00    +0.183 C 
ATOM     14  C   UNL     1      12.694  14.869  25.413  0.00  0.00    +0.043 C 
ATOM     15  C   UNL     1      13.521  14.481  24.196  0.00  0.00    +0.111 C 
ATOM     16  C   UNL     1      10.826  12.499  24.328  0.00  0.00    +0.240 C 
ATOM     17  C   UNL     1      13.475  12.508  22.695  0.00  0.00    +0.249 C 
ATOM     18  C   UNL     1      12.903  11.171  22.390  0.00  0.00    +0.059 A 
ATOM     19  C   UNL     1      11.563  10.815  22.612  0.00  0.00    +0.046 A 
ATOM     21  C   UNL     1      13.744  10.292  21.683  0.00  0.00    +0.023 A 
ATOM     22  C   UNL     1      11.080   9.614  22.061  0.00  0.00    +0.024 A 
ATOM     23  C   UNL     1      13.260   9.084  21.185  0.00  0.00    -0.014 A 
ATOM     25  C   UNL     1      11.923   8.750  21.362  0.00  0.00    +0.010 A 
ATOM     35  H   UNL     1       9.636  11.374  23.121  0.00  0.00    +0.155 HD
ENDROOT
BRANCH  23  26
ATOM      1  F   UNL     1      14.946   7.260  22.500  0.00  0.00    -0.205 F 
ATOM      2  F   UNL     1      16.654   5.652  18.394  0.00  0.00    -0.205 F 
ATOM     26  C   UNL     1      14.141   8.191  20.464  0.00  0.00    +0.018 A 
ATOM     27  C   UNL     1      14.961   7.302  21.159  0.00  0.00    +0.134 A 
ATOM     28  C   UNL     1      14.171   8.223  19.071  0.00  0.00    +0.014 A 
ATOM     30  C   UNL     1      15.809   6.444  20.460  0.00  0.00    +0.077 A 
ATOM     31  C   UNL     1      15.020   7.365  18.371  0.00  0.00    +0.039 A 
ATOM     32  C   UNL     1      15.839   6.474  19.066  0.00  0.00    +0.126 A 
ENDBRANCH  23  26
BRANCH  12  10
ATOM      5  O   UNL     1      13.205  14.743  28.573  0.00  0.00    -0.273 OA
ATOM     10  N   UNL     1      13.468  13.109  26.940  0.00  0.00    -0.308 N 
ATOM     20  C   UNL     1      13.785  13.759  28.121  0.00  0.00    +0.239 C 
ATOM     34  H   UNL     1      13.985  12.270  26.689  0.00  0.00    +0.149 HD
BRANCH  20  24
ATOM     24  C   UNL     1      14.959  13.107  28.821  0.00  0.00    +0.256 C 
BRANCH  24   6
ATOM      6  O   UNL     1      14.527  12.023  29.615  0.00  0.00    -0.359 OA
BRANCH   6  29
ATOM     29  C   UNL     1      14.665  12.296  31.007  0.00  0.00    +0.280 C 
BRANCH  29  33
ATOM      8  O   UNL     1      12.946  11.443  32.497  0.00  0.00    -0.248 OA
ATOM     33  C   UNL     1      13.316  12.262  31.669  0.00  0.00    +0.331 C 
BRANCH  33   7
ATOM      7  O   UNL     1      12.547  13.285  31.217  0.00  0.00    -0.479 OA
ATOM     36  H   UNL     1      13.042  14.132  31.191  0.00  0.00    +0.295 HD
ENDBRANCH  33   7
ENDBRANCH  29  33
ENDBRANCH   6  29
ENDBRANCH  24   6
ENDBRANCH  20  24
ENDBRANCH  12  10
TORSDOF 7
ENDMDL
MODEL 9
REMARK VINA RESULT:      -6.8     28.104     31.189
REMARK  Name = 11941543
REMARK  7 active torsions:
REMARK  status: ('A' for Active; 'I' for Inactive)
REMARK    1  A    between atoms: O_6  and  C_24
REMARK    2  A    between atoms: O_6  and  C_29
REMARK    3  A    between atoms: O_7  and  C_33
REMARK    4  A    between atoms: N_10  and  C_12
REMARK    5  A    between atoms: C_20  and  C_24
REMARK    6  A    between atoms: C_23  and  C_26
REMARK    7  A    between atoms: C_29  and  C_33
REMARK                            x       y       z     vdW  Elec       q    Type
REMARK                         _______ _______ _______ _____ _____    ______ ____
ROOT
ATOM      3  O   UNL     1      -0.678 -11.040  15.296  0.00  0.00    -0.273 OA
ATOM      4  O   UNL     1      -5.765  -9.794  14.720  0.00  0.00    -0.270 OA
ATOM      9  N   UNL     1      -3.796 -10.884  14.243  0.00  0.00    -0.284 N 
ATOM     11  N   UNL     1      -2.378 -11.087  16.812  0.00  0.00    -0.283 N 
ATOM     12  C   UNL     1      -2.134 -12.180  13.169  0.00  0.00    +0.104 C 
ATOM     13  C   UNL     1      -2.796 -11.896  14.525  0.00  0.00    +0.183 C 
ATOM     14  C   UNL     1      -2.327 -10.872  12.398  0.00  0.00    +0.043 C 
ATOM     15  C   UNL     1      -3.681 -10.375  12.883  0.00  0.00    +0.111 C 
ATOM     16  C   UNL     1      -1.862 -11.274  15.546  0.00  0.00    +0.240 C 
ATOM     17  C   UNL     1      -4.847 -10.540  15.065  0.00  0.00    +0.249 C 
ATOM     18  C   UNL     1      -4.858 -11.079  16.449  0.00  0.00    +0.059 A 
ATOM     19  C   UNL     1      -3.712 -11.232  17.248  0.00  0.00    +0.046 A 
ATOM     21  C   UNL     1      -6.129 -11.279  17.018  0.00  0.00    +0.023 A 
ATOM     22  C   UNL     1      -3.873 -11.518  18.616  0.00  0.00    +0.024 A 
ATOM     23  C   UNL     1      -6.266 -11.609  18.366  0.00  0.00    -0.014 A 
ATOM     25  C   UNL     1      -5.138 -11.715  19.168  0.00  0.00    +0.010 A 
ATOM     35  H   UNL     1      -1.691 -10.898  17.538  0.00  0.00    +0.155 HD
ENDROOT
BRANCH  23  26
ATOM      1  F   UNL     1      -8.275  -9.647  18.240  0.00  0.00    -0.205 F 
ATOM      2  F   UNL     1     -11.330 -12.416  20.556  0.00  0.00    -0.205 F 
ATOM     26  C   UNL     1      -7.581 -11.815  18.932  0.00  0.00    +0.018 A 
ATOM     27  C   UNL     1      -8.548 -10.812  18.846  0.00  0.00    +0.134 A 
ATOM     28  C   UNL     1      -7.881 -13.019  19.567  0.00  0.00    +0.014 A 
ATOM     30  C   UNL     1      -9.814 -11.015  19.394  0.00  0.00    +0.077 A 
ATOM     31  C   UNL     1      -9.148 -13.223  20.115  0.00  0.00    +0.039 A 
ATOM     32  C   UNL     1     -10.115 -12.221  20.028  0.00  0.00    +0.126 A 
ENDBRANCH  23  26
BRANCH  12  10
ATOM      5  O   UNL     1      -1.388 -14.977  13.271  0.00  0.00    -0.273 OA
ATOM     10  N   UNL     1      -2.782 -13.283  12.499  0.00  0.00    -0.308 N 
ATOM     20  C   UNL     1      -2.350 -14.595  12.609  0.00  0.00    +0.239 C 
ATOM     34  H   UNL     1      -3.624 -13.089  11.962  0.00  0.00    +0.149 HD
BRANCH  20  24
ATOM     24  C   UNL     1      -3.215 -15.539  11.801  0.00  0.00    +0.256 C 
BRANCH  24   6
ATOM      6  O   UNL     1      -4.347 -14.866  11.293  0.00  0.00    -0.359 OA
BRANCH   6  29
ATOM     29  C   UNL     1      -4.406 -14.927   9.870  0.00  0.00    +0.280 C 
BRANCH  29  33
ATOM      8  O   UNL     1      -4.266 -12.501   9.869  0.00  0.00    -0.248 OA
ATOM     33  C   UNL     1      -4.128 -13.568   9.290  0.00  0.00    +0.331 C 
BRANCH  33   7
ATOM      7  O   UNL     1      -3.691 -13.686   8.010  0.00  0.00    -0.479 OA
ATOM     36  H   UNL     1      -3.409 -12.823   7.639  0.00  0.00    +0.295 HD
ENDBRANCH  33   7
ENDBRANCH  29  33
ENDBRANCH   6  29
ENDBRANCH  24   6
ENDBRANCH  20  24
ENDBRANCH  12  10
TORSDOF 7
ENDMDL
MODEL 10
REMARK VINA RESULT:      -6.8     31.565     34.389
REMARK  Name = 11941543
REMARK  7 active torsions:
REMARK  status: ('A' for Active; 'I' for Inactive)
REMARK    1  A    between atoms: O_6  and  C_24
REMARK    2  A    between atoms: O_6  and  C_29
REMARK    3  A    between atoms: O_7  and  C_33
REMARK    4  A    between atoms: N_10  and  C_12
REMARK    5  A    between atoms: C_20  and  C_24
REMARK    6  A    between atoms: C_23  and  C_26
REMARK    7  A    between atoms: C_29  and  C_33
REMARK                            x       y       z     vdW  Elec       q    Type
REMARK                         _______ _______ _______ _____ _____    ______ ____
ROOT
ATOM      3  O   UNL     1     -19.250   1.160  27.205  0.00  0.00    -0.273 OA
ATOM      4  O   UNL     1     -17.481   6.080  26.546  0.00  0.00    -0.270 OA
ATOM      9  N   UNL     1     -17.586   3.989  27.499  0.00  0.00    -0.284 N 
ATOM     11  N   UNL     1     -18.452   2.192  25.337  0.00  0.00    -0.283 N 
ATOM     12  C   UNL     1     -17.289   2.157  28.965  0.00  0.00    +0.104 C 
ATOM     13  C   UNL     1     -17.310   2.564  27.486  0.00  0.00    +0.183 C 
ATOM     14  C   UNL     1     -18.195   3.193  29.633  0.00  0.00    +0.043 C 
ATOM     15  C   UNL     1     -17.929   4.460  28.833  0.00  0.00    +0.111 C 
ATOM     16  C   UNL     1     -18.442   1.937  26.692  0.00  0.00    +0.240 C 
ATOM     17  C   UNL     1     -17.391   4.856  26.445  0.00  0.00    +0.249 C 
ATOM     18  C   UNL     1     -17.081   4.278  25.112  0.00  0.00    +0.059 A 
ATOM     19  C   UNL     1     -17.655   3.100  24.607  0.00  0.00    +0.046 A 
ATOM     21  C   UNL     1     -16.287   5.077  24.269  0.00  0.00    +0.023 A 
ATOM     22  C   UNL     1     -17.474   2.786  23.247  0.00  0.00    +0.024 A 
ATOM     23  C   UNL     1     -16.079   4.725  22.936  0.00  0.00    -0.014 A 
ATOM     25  C   UNL     1     -16.684   3.585  22.422  0.00  0.00    +0.010 A 
ATOM     35  H   UNL     1     -19.057   1.589  24.785  0.00  0.00    +0.155 HD
ENDROOT
BRANCH  23  26
ATOM      1  F   UNL     1     -13.277   4.769  23.145  0.00  0.00    -0.205 F 
ATOM      2  F   UNL     1     -12.919   7.938  19.654  0.00  0.00    -0.205 F 
ATOM     26  C   UNL     1     -15.256   5.556  22.086  0.00  0.00    +0.018 A 
ATOM     27  C   UNL     1     -13.868   5.546  22.225  0.00  0.00    +0.134 A 
ATOM     28  C   UNL     1     -15.854   6.372  21.126  0.00  0.00    +0.014 A 
ATOM     30  C   UNL     1     -13.079   6.350  21.404  0.00  0.00    +0.077 A 
ATOM     31  C   UNL     1     -15.065   7.176  20.304  0.00  0.00    +0.039 A 
ATOM     32  C   UNL     1     -13.676   7.165  20.442  0.00  0.00    +0.126 A 
ENDBRANCH  23  26
BRANCH  12  10
ATOM      5  O   UNL     1     -15.358   0.001  29.096  0.00  0.00    -0.273 OA
ATOM     10  N   UNL     1     -15.946   2.215  29.497  0.00  0.00    -0.308 N 
ATOM     20  C   UNL     1     -15.092   1.124  29.517  0.00  0.00    +0.239 C 
ATOM     34  H   UNL     1     -15.601   3.113  29.827  0.00  0.00    +0.149 HD
BRANCH  20  24
ATOM     24  C   UNL     1     -13.753   1.473  30.130  0.00  0.00    +0.256 C 
BRANCH  24   6
ATOM      6  O   UNL     1     -13.727   1.131  31.499  0.00  0.00    -0.359 OA
BRANCH   6  29
ATOM     29  C   UNL     1     -13.686   2.285  32.335  0.00  0.00    +0.280 C 
BRANCH  29  33
ATOM      8  O   UNL     1     -15.958   3.137  32.457  0.00  0.00    -0.248 OA
ATOM     33  C   UNL     1     -15.036   2.510  32.957  0.00  0.00    +0.331 C 
BRANCH  33   7
ATOM      7  O   UNL     1     -15.098   1.911  34.173  0.00  0.00    -0.479 OA
ATOM     36  H   UNL     1     -14.610   1.060  34.187  0.00  0.00    +0.295 HD
ENDBRANCH  33   7
ENDBRANCH  29  33
ENDBRANCH   6  29
ENDBRANCH  24   6
ENDBRANCH  20  24
ENDBRANCH  12  10
TORSDOF 7
ENDMDL
