MODEL 1
REMARK VINA RESULT:      -7.4      0.000      0.000
REMARK  Name = 45783350
REMARK  9 active torsions:
REMARK  status: ('A' for Active; 'I' for Inactive)
REMARK    1  A    between atoms: O_2  and  C_27
REMARK    2  A    between atoms: O_2  and  C_29
REMARK    3  A    between atoms: O_3  and  C_30
REMARK    4  A    between atoms: O_3  and  C_31
REMARK    5  A    between atoms: N_4  and  C_13
REMARK    6  A    between atoms: C_9  and  C_14
REMARK    7  A    between atoms: C_13  and  C_15
REMARK    8  A    between atoms: C_19  and  C_23
REMARK    9  A    between atoms: C_29  and  C_30
REMARK                            x       y       z     vdW  Elec       q    Type
REMARK                         _______ _______ _______ _____ _____    ______ ____
ROOT
ATOM      4  N   UNL     1      13.310   7.691  19.389  0.00  0.00    -0.287 NA
ATOM      9  C   UNL     1      14.270   6.940  18.556  0.00  0.00    +0.146 C 
ATOM     10  C   UNL     1      14.291   7.690  17.210  0.00  0.00    +0.030 C 
ATOM     11  C   UNL     1      12.358   8.308  18.466  0.00  0.00    +0.085 C 
ATOM     12  C   UNL     1      13.267   8.806  17.361  0.00  0.00    +0.017 C 
ENDROOT
BRANCH   9  14
ATOM      1  O   UNL     1      16.461   5.868  18.720  0.00  0.00    -0.336 OA
ATOM      5  N   UNL     1      16.167   7.570  20.145  0.00  0.00    -0.190 NA
ATOM      7  N   UNL     1      17.651   5.974  19.449  0.00  0.00    -0.056 NA
ATOM     14  C   UNL     1      15.641   6.844  19.192  0.00  0.00    +0.245 A 
ATOM     19  C   UNL     1      17.401   7.000  20.269  0.00  0.00    +0.202 A 
BRANCH  19  23
ATOM      8  N   UNL     1      20.234   8.412  23.074  0.00  0.00    -0.221 NA
ATOM     23  C   UNL     1      18.361   7.479  21.221  0.00  0.00    +0.029 A 
ATOM     25  C   UNL     1      19.085   6.579  21.994  0.00  0.00    +0.079 A 
ATOM     26  C   UNL     1      18.573   8.844  21.372  0.00  0.00    +0.031 A 
ATOM     27  C   UNL     1      20.001   7.091  22.899  0.00  0.00    +0.215 A 
ATOM     28  C   UNL     1      19.511   9.256  22.304  0.00  0.00    +0.115 A 
BRANCH  27   2
ATOM      2  O   UNL     1      20.727   6.225  23.674  0.00  0.00    -0.474 OA
BRANCH   2  29
ATOM     29  C   UNL     1      22.143   6.294  23.556  0.00  0.00    +0.258 C 
BRANCH  29  30
ATOM     30  C   UNL     1      22.607   5.255  22.552  0.00  0.00    +0.200 C 
BRANCH  30   3
ATOM      3  O   UNL     1      21.771   4.109  22.650  0.00  0.00    -0.380 OA
ATOM     31  C   UNL     1      21.755   3.373  21.435  0.00  0.00    +0.194 C 
ENDBRANCH  30   3
ENDBRANCH  29  30
ENDBRANCH   2  29
ENDBRANCH  27   2
ENDBRANCH  19  23
ENDBRANCH   9  14
BRANCH   4  13
ATOM     13  C   UNL     1      12.648   6.864  20.389  0.00  0.00    +0.122 C 
BRANCH  13  15
ATOM      6  N   UNL     1      10.016   8.359  22.481  0.00  0.00    -0.360 N 
ATOM     15  C   UNL     1      11.766   7.679  21.297  0.00  0.00    -0.008 A 
ATOM     16  C   UNL     1      12.115   8.895  21.949  0.00  0.00    +0.004 A 
ATOM     17  C   UNL     1      10.470   7.375  21.643  0.00  0.00    +0.088 A 
ATOM     18  C   UNL     1      11.000   9.300  22.685  0.00  0.00    +0.047 A 
ATOM     20  C   UNL     1      13.277   9.692  21.984  0.00  0.00    +0.010 A 
ATOM     21  C   UNL     1      10.987  10.467  23.457  0.00  0.00    +0.026 A 
ATOM     22  C   UNL     1      13.278  10.861  22.751  0.00  0.00    +0.001 A 
ATOM     24  C   UNL     1      12.150  11.241  23.476  0.00  0.00    +0.002 A 
ATOM     32  H   UNL     1       9.092   8.389  22.891  0.00  0.00    +0.165 HD
ENDBRANCH  13  15
ENDBRANCH   4  13
TORSDOF 8
ENDMDL
MODEL 2
REMARK VINA RESULT:      -7.0      2.314      4.766
REMARK  Name = 45783350
REMARK  9 active torsions:
REMARK  status: ('A' for Active; 'I' for Inactive)
REMARK    1  A    between atoms: O_2  and  C_27
REMARK    2  A    between atoms: O_2  and  C_29
REMARK    3  A    between atoms: O_3  and  C_30
REMARK    4  A    between atoms: O_3  and  C_31
REMARK    5  A    between atoms: N_4  and  C_13
REMARK    6  A    between atoms: C_9  and  C_14
REMARK    7  A    between atoms: C_13  and  C_15
REMARK    8  A    between atoms: C_19  and  C_23
REMARK    9  A    between atoms: C_29  and  C_30
REMARK                            x       y       z     vdW  Elec       q    Type
REMARK                         _______ _______ _______ _____ _____    ______ ____
ROOT
ATOM      4  N   UNL     1      13.186  11.401  23.610  0.00  0.00    -0.287 NA
ATOM      9  C   UNL     1      14.507  11.986  23.307  0.00  0.00    +0.146 C 
ATOM     10  C   UNL     1      15.186  12.152  24.680  0.00  0.00    +0.030 C 
ATOM     11  C   UNL     1      12.835  11.849  24.957  0.00  0.00    +0.085 C 
ATOM     12  C   UNL     1      14.149  11.691  25.694  0.00  0.00    +0.017 C 
ENDROOT
BRANCH   9  14
ATOM      1  O   UNL     1      16.326  11.758  21.691  0.00  0.00    -0.336 OA
ATOM      5  N   UNL     1      15.192   9.863  22.064  0.00  0.00    -0.190 NA
ATOM      7  N   UNL     1      16.920  10.781  20.881  0.00  0.00    -0.056 NA
ATOM     14  C   UNL     1      15.317  11.133  22.354  0.00  0.00    +0.245 A 
ATOM     19  C   UNL     1      16.196   9.693  21.157  0.00  0.00    +0.202 A 
BRANCH  19  23
ATOM      8  N   UNL     1      16.950   5.942  19.354  0.00  0.00    -0.221 NA
ATOM     23  C   UNL     1      16.452   8.421  20.545  0.00  0.00    +0.029 A 
ATOM     25  C   UNL     1      17.642   7.750  20.802  0.00  0.00    +0.079 A 
ATOM     26  C   UNL     1      15.510   7.854  19.693  0.00  0.00    +0.031 A 
ATOM     27  C   UNL     1      17.842   6.524  20.187  0.00  0.00    +0.215 A 
ATOM     28  C   UNL     1      15.804   6.624  19.128  0.00  0.00    +0.115 A 
BRANCH  27   2
ATOM      2  O   UNL     1      19.007   5.843  20.424  0.00  0.00    -0.474 OA
BRANCH   2  29
ATOM     29  C   UNL     1      20.144   6.623  20.776  0.00  0.00    +0.258 C 
BRANCH  29  30
ATOM     30  C   UNL     1      20.855   5.961  21.941  0.00  0.00    +0.200 C 
BRANCH  30   3
ATOM      3  O   UNL     1      20.094   6.162  23.125  0.00  0.00    -0.380 OA
ATOM     31  C   UNL     1      20.295   7.464  23.658  0.00  0.00    +0.194 C 
ENDBRANCH  30   3
ENDBRANCH  29  30
ENDBRANCH   2  29
ENDBRANCH  27   2
ENDBRANCH  19  23
ENDBRANCH   9  14
BRANCH   4  13
ATOM     13  C   UNL     1      12.165  11.750  22.631  0.00  0.00    +0.122 C 
BRANCH  13  15
ATOM      6  N   UNL     1      10.565   8.667  21.416  0.00  0.00    -0.360 N 
ATOM     15  C   UNL     1      11.658  10.539  21.894  0.00  0.00    -0.008 A 
ATOM     16  C   UNL     1      12.002  10.149  20.569  0.00  0.00    +0.004 A 
ATOM     17  C   UNL     1      10.773   9.609  22.389  0.00  0.00    +0.088 A 
ATOM     18  C   UNL     1      11.302   8.971  20.295  0.00  0.00    +0.047 A 
ATOM     20  C   UNL     1      12.843  10.685  19.575  0.00  0.00    +0.010 A 
ATOM     21  C   UNL     1      11.403   8.301  19.071  0.00  0.00    +0.026 A 
ATOM     22  C   UNL     1      12.954  10.026  18.346  0.00  0.00    +0.001 A 
ATOM     24  C   UNL     1      12.244   8.852  18.100  0.00  0.00    +0.002 A 
ATOM     32  H   UNL     1       9.956   7.865  21.508  0.00  0.00    +0.165 HD
ENDBRANCH  13  15
ENDBRANCH   4  13
TORSDOF 8
ENDMDL
MODEL 3
REMARK VINA RESULT:      -7.0     28.247     32.482
REMARK  Name = 45783350
REMARK  9 active torsions:
REMARK  status: ('A' for Active; 'I' for Inactive)
REMARK    1  A    between atoms: O_2  and  C_27
REMARK    2  A    between atoms: O_2  and  C_29
REMARK    3  A    between atoms: O_3  and  C_30
REMARK    4  A    between atoms: O_3  and  C_31
REMARK    5  A    between atoms: N_4  and  C_13
REMARK    6  A    between atoms: C_9  and  C_14
REMARK    7  A    between atoms: C_13  and  C_15
REMARK    8  A    between atoms: C_19  and  C_23
REMARK    9  A    between atoms: C_29  and  C_30
REMARK                            x       y       z     vdW  Elec       q    Type
REMARK                         _______ _______ _______ _____ _____    ______ ____
ROOT
ATOM      4  N   UNL     1     -16.577   4.933  21.014  0.00  0.00    -0.287 NA
ATOM      9  C   UNL     1     -17.851   4.466  21.596  0.00  0.00    +0.146 C 
ATOM     10  C   UNL     1     -18.666   3.954  20.393  0.00  0.00    +0.030 C 
ATOM     11  C   UNL     1     -16.875   5.340  19.641  0.00  0.00    +0.085 C 
ATOM     12  C   UNL     1     -17.795   4.230  19.176  0.00  0.00    +0.017 C 
ENDROOT
BRANCH   9  14
ATOM      1  O   UNL     1     -17.458   2.135  22.220  0.00  0.00    -0.336 OA
ATOM      5  N   UNL     1     -17.638   3.531  23.962  0.00  0.00    -0.190 NA
ATOM      7  N   UNL     1     -17.301   1.348  23.368  0.00  0.00    -0.056 NA
ATOM     14  C   UNL     1     -17.652   3.407  22.660  0.00  0.00    +0.245 A 
ATOM     19  C   UNL     1     -17.420   2.242  24.354  0.00  0.00    +0.202 A 
BRANCH  19  23
ATOM      8  N   UNL     1     -17.138   1.177  28.437  0.00  0.00    -0.221 NA
ATOM     23  C   UNL     1     -17.324   1.880  25.739  0.00  0.00    +0.029 A 
ATOM     25  C   UNL     1     -16.362   2.471  26.549  0.00  0.00    +0.079 A 
ATOM     26  C   UNL     1     -18.195   0.939  26.276  0.00  0.00    +0.031 A 
ATOM     27  C   UNL     1     -16.309   2.088  27.880  0.00  0.00    +0.215 A 
ATOM     28  C   UNL     1     -18.062   0.625  27.619  0.00  0.00    +0.115 A 
BRANCH  27   2
ATOM      2  O   UNL     1     -15.369   2.656  28.699  0.00  0.00    -0.474 OA
BRANCH   2  29
ATOM     29  C   UNL     1     -15.195   2.063  29.981  0.00  0.00    +0.258 C 
BRANCH  29  30
ATOM     30  C   UNL     1     -13.821   1.425  30.049  0.00  0.00    +0.200 C 
BRANCH  30   3
ATOM      3  O   UNL     1     -13.968   0.015  30.156  0.00  0.00    -0.380 OA
ATOM     31  C   UNL     1     -15.044  -0.332  31.015  0.00  0.00    +0.194 C 
ENDBRANCH  30   3
ENDBRANCH  29  30
ENDBRANCH   2  29
ENDBRANCH  27   2
ENDBRANCH  19  23
ENDBRANCH   9  14
BRANCH   4  13
ATOM     13  C   UNL     1     -15.953   6.002  21.782  0.00  0.00    +0.122 C 
BRANCH  13  15
ATOM      6  N   UNL     1     -12.322   5.413  21.814  0.00  0.00    -0.360 N 
ATOM     15  C   UNL     1     -14.455   5.998  21.635  0.00  0.00    -0.008 A 
ATOM     16  C   UNL     1     -13.671   6.948  20.922  0.00  0.00    +0.004 A 
ATOM     17  C   UNL     1     -13.597   5.067  22.172  0.00  0.00    +0.088 A 
ATOM     18  C   UNL     1     -12.337   6.557  21.050  0.00  0.00    +0.047 A 
ATOM     20  C   UNL     1     -13.970   8.106  20.176  0.00  0.00    +0.010 A 
ATOM     21  C   UNL     1     -11.282   7.270  20.469  0.00  0.00    +0.026 A 
ATOM     22  C   UNL     1     -12.925   8.828  19.590  0.00  0.00    +0.001 A 
ATOM     24  C   UNL     1     -11.602   8.415  19.735  0.00  0.00    +0.002 A 
ATOM     32  H   UNL     1     -11.488   4.901  22.072  0.00  0.00    +0.165 HD
ENDBRANCH  13  15
ENDBRANCH   4  13
TORSDOF 8
ENDMDL
MODEL 4
REMARK VINA RESULT:      -7.0      1.639      2.190
REMARK  Name = 45783350
REMARK  9 active torsions:
REMARK  status: ('A' for Active; 'I' for Inactive)
REMARK    1  A    between atoms: O_2  and  C_27
REMARK    2  A    between atoms: O_2  and  C_29
REMARK    3  A    between atoms: O_3  and  C_30
REMARK    4  A    between atoms: O_3  and  C_31
REMARK    5  A    between atoms: N_4  and  C_13
REMARK    6  A    between atoms: C_9  and  C_14
REMARK    7  A    between atoms: C_13  and  C_15
REMARK    8  A    between atoms: C_19  and  C_23
REMARK    9  A    between atoms: C_29  and  C_30
REMARK                            x       y       z     vdW  Elec       q    Type
REMARK                         _______ _______ _______ _____ _____    ______ ____
ROOT
ATOM      4  N   UNL     1      13.876   8.464  19.408  0.00  0.00    -0.287 NA
ATOM      9  C   UNL     1      14.346   7.256  18.701  0.00  0.00    +0.146 C 
ATOM     10  C   UNL     1      14.262   7.618  17.207  0.00  0.00    +0.030 C 
ATOM     11  C   UNL     1      12.953   9.141  18.497  0.00  0.00    +0.085 C 
ATOM     12  C   UNL     1      13.677   9.023  17.171  0.00  0.00    +0.017 C 
ENDROOT
BRANCH   9  14
ATOM      1  O   UNL     1      16.301   5.812  18.434  0.00  0.00    -0.336 OA
ATOM      5  N   UNL     1      16.501   7.328  20.070  0.00  0.00    -0.190 NA
ATOM      7  N   UNL     1      17.567   5.612  18.997  0.00  0.00    -0.056 NA
ATOM     14  C   UNL     1      15.740   6.840  19.124  0.00  0.00    +0.245 A 
ATOM     19  C   UNL     1      17.612   6.544  19.955  0.00  0.00    +0.202 A 
BRANCH  19  23
ATOM      8  N   UNL     1      20.969   7.055  22.476  0.00  0.00    -0.221 NA
ATOM     23  C   UNL     1      18.750   6.717  20.810  0.00  0.00    +0.029 A 
ATOM     25  C   UNL     1      19.846   5.871  20.691  0.00  0.00    +0.079 A 
ATOM     26  C   UNL     1      18.761   7.732  21.760  0.00  0.00    +0.031 A 
ATOM     27  C   UNL     1      20.922   6.079  21.541  0.00  0.00    +0.215 A 
ATOM     28  C   UNL     1      19.884   7.858  22.561  0.00  0.00    +0.115 A 
BRANCH  27   2
ATOM      2  O   UNL     1      22.015   5.259  21.444  0.00  0.00    -0.474 OA
BRANCH   2  29
ATOM     29  C   UNL     1      21.884   3.952  21.991  0.00  0.00    +0.258 C 
BRANCH  29  30
ATOM     30  C   UNL     1      22.718   2.987  21.170  0.00  0.00    +0.200 C 
BRANCH  30   3
ATOM      3  O   UNL     1      24.055   3.466  21.107  0.00  0.00    -0.380 OA
ATOM     31  C   UNL     1      24.715   3.013  19.933  0.00  0.00    +0.194 C 
ENDBRANCH  30   3
ENDBRANCH  29  30
ENDBRANCH   2  29
ENDBRANCH  27   2
ENDBRANCH  19  23
ENDBRANCH   9  14
BRANCH   4  13
ATOM     13  C   UNL     1      13.261   8.173  20.696  0.00  0.00    +0.122 C 
BRANCH  13  15
ATOM      6  N   UNL     1      14.695  10.300  23.333  0.00  0.00    -0.360 N 
ATOM     15  C   UNL     1      13.615   9.206  21.733  0.00  0.00    -0.008 A 
ATOM     16  C   UNL     1      12.856  10.360  22.072  0.00  0.00    +0.004 A 
ATOM     17  C   UNL     1      14.740   9.196  22.525  0.00  0.00    +0.088 A 
ATOM     18  C   UNL     1      13.556  11.029  23.079  0.00  0.00    +0.047 A 
ATOM     20  C   UNL     1      11.638  10.903  21.618  0.00  0.00    +0.010 A 
ATOM     21  C   UNL     1      13.096  12.218  23.656  0.00  0.00    +0.026 A 
ATOM     22  C   UNL     1      11.166  12.090  22.186  0.00  0.00    +0.001 A 
ATOM     24  C   UNL     1      11.885  12.736  23.190  0.00  0.00    +0.002 A 
ATOM     32  H   UNL     1      15.398  10.545  24.018  0.00  0.00    +0.165 HD
ENDBRANCH  13  15
ENDBRANCH   4  13
TORSDOF 8
ENDMDL
MODEL 5
REMARK VINA RESULT:      -7.0     26.161     29.857
REMARK  Name = 45783350
REMARK  9 active torsions:
REMARK  status: ('A' for Active; 'I' for Inactive)
REMARK    1  A    between atoms: O_2  and  C_27
REMARK    2  A    between atoms: O_2  and  C_29
REMARK    3  A    between atoms: O_3  and  C_30
REMARK    4  A    between atoms: O_3  and  C_31
REMARK    5  A    between atoms: N_4  and  C_13
REMARK    6  A    between atoms: C_9  and  C_14
REMARK    7  A    between atoms: C_13  and  C_15
REMARK    8  A    between atoms: C_19  and  C_23
REMARK    9  A    between atoms: C_29  and  C_30
REMARK                            x       y       z     vdW  Elec       q    Type
REMARK                         _______ _______ _______ _____ _____    ______ ____
ROOT
ATOM      4  N   UNL     1      -3.183 -10.592  14.584  0.00  0.00    -0.287 NA
ATOM      9  C   UNL     1      -3.103 -11.283  15.887  0.00  0.00    +0.146 C 
ATOM     10  C   UNL     1      -1.783 -10.793  16.509  0.00  0.00    +0.030 C 
ATOM     11  C   UNL     1      -1.804 -10.338  14.166  0.00  0.00    +0.085 C 
ATOM     12  C   UNL     1      -1.163  -9.880  15.460  0.00  0.00    +0.017 C 
ENDROOT
BRANCH   9  14
ATOM      1  O   UNL     1      -4.140 -11.223  18.099  0.00  0.00    -0.336 OA
ATOM      5  N   UNL     1      -5.496 -10.580  16.436  0.00  0.00    -0.190 NA
ATOM      7  N   UNL     1      -5.366 -10.903  18.697  0.00  0.00    -0.056 NA
ATOM     14  C   UNL     1      -4.303 -11.005  16.767  0.00  0.00    +0.245 A 
ATOM     19  C   UNL     1      -6.113 -10.533  17.652  0.00  0.00    +0.202 A 
BRANCH  19  23
ATOM      8  N   UNL     1     -10.133  -9.285  18.058  0.00  0.00    -0.221 NA
ATOM     23  C   UNL     1      -7.476 -10.109  17.790  0.00  0.00    +0.029 A 
ATOM     25  C   UNL     1      -7.969  -9.077  17.001  0.00  0.00    +0.079 A 
ATOM     26  C   UNL     1      -8.310 -10.731  18.713  0.00  0.00    +0.031 A 
ATOM     27  C   UNL     1      -9.293  -8.704  17.172  0.00  0.00    +0.215 A 
ATOM     28  C   UNL     1      -9.619 -10.286  18.807  0.00  0.00    +0.115 A 
BRANCH  27   2
ATOM      2  O   UNL     1      -9.803  -7.689  16.406  0.00  0.00    -0.474 OA
BRANCH   2  29
ATOM     29  C   UNL     1     -10.967  -7.037  16.900  0.00  0.00    +0.258 C 
BRANCH  29  30
ATOM     30  C   UNL     1     -11.907  -6.758  15.743  0.00  0.00    +0.200 C 
BRANCH  30   3
ATOM      3  O   UNL     1     -11.355  -5.727  14.934  0.00  0.00    -0.380 OA
ATOM     31  C   UNL     1     -12.277  -5.292  13.945  0.00  0.00    +0.194 C 
ENDBRANCH  30   3
ENDBRANCH  29  30
ENDBRANCH   2  29
ENDBRANCH  27   2
ENDBRANCH  19  23
ENDBRANCH   9  14
BRANCH   4  13
ATOM     13  C   UNL     1      -3.931 -11.340  13.583  0.00  0.00    +0.122 C 
BRANCH  13  15
ATOM      6  N   UNL     1      -6.656  -9.268  12.233  0.00  0.00    -0.360 N 
ATOM     15  C   UNL     1      -4.870 -10.454  12.807  0.00  0.00    -0.008 A 
ATOM     16  C   UNL     1      -4.626  -9.871  11.532  0.00  0.00    +0.004 A 
ATOM     17  C   UNL     1      -6.126 -10.066  13.212  0.00  0.00    +0.088 A 
ATOM     18  C   UNL     1      -5.762  -9.132  11.196  0.00  0.00    +0.047 A 
ATOM     20  C   UNL     1      -3.544  -9.901  10.630  0.00  0.00    +0.010 A 
ATOM     21  C   UNL     1      -5.870  -8.419   9.997  0.00  0.00    +0.026 A 
ATOM     22  C   UNL     1      -3.638  -9.193   9.428  0.00  0.00    +0.001 A 
ATOM     24  C   UNL     1      -4.785  -8.464   9.117  0.00  0.00    +0.002 A 
ATOM     32  H   UNL     1      -7.571  -8.840  12.267  0.00  0.00    +0.165 HD
ENDBRANCH  13  15
ENDBRANCH   4  13
TORSDOF 8
ENDMDL
MODEL 6
REMARK VINA RESULT:      -6.7      2.060      4.197
REMARK  Name = 45783350
REMARK  9 active torsions:
REMARK  status: ('A' for Active; 'I' for Inactive)
REMARK    1  A    between atoms: O_2  and  C_27
REMARK    2  A    between atoms: O_2  and  C_29
REMARK    3  A    between atoms: O_3  and  C_30
REMARK    4  A    between atoms: O_3  and  C_31
REMARK    5  A    between atoms: N_4  and  C_13
REMARK    6  A    between atoms: C_9  and  C_14
REMARK    7  A    between atoms: C_13  and  C_15
REMARK    8  A    between atoms: C_19  and  C_23
REMARK    9  A    between atoms: C_29  and  C_30
REMARK                            x       y       z     vdW  Elec       q    Type
REMARK                         _______ _______ _______ _____ _____    ______ ____
ROOT
ATOM      4  N   UNL     1      12.455   9.118  20.606  0.00  0.00    -0.287 NA
ATOM      9  C   UNL     1      13.049   8.300  21.683  0.00  0.00    +0.146 C 
ATOM     10  C   UNL     1      11.981   7.238  22.003  0.00  0.00    +0.030 C 
ATOM     11  C   UNL     1      11.005   9.043  20.784  0.00  0.00    +0.085 C 
ATOM     12  C   UNL     1      10.802   7.575  21.101  0.00  0.00    +0.017 C 
ENDROOT
BRANCH   9  14
ATOM      1  O   UNL     1      14.328   6.613  20.461  0.00  0.00    -0.336 OA
ATOM      5  N   UNL     1      15.590   8.054  21.622  0.00  0.00    -0.190 NA
ATOM      7  N   UNL     1      15.657   6.233  20.239  0.00  0.00    -0.056 NA
ATOM     14  C   UNL     1      14.378   7.692  21.286  0.00  0.00    +0.245 A 
ATOM     19  C   UNL     1      16.341   7.130  20.956  0.00  0.00    +0.202 A 
BRANCH  19  23
ATOM      8  N   UNL     1      20.566   7.130  21.162  0.00  0.00    -0.221 NA
ATOM     23  C   UNL     1      17.774   7.130  21.027  0.00  0.00    +0.029 A 
ATOM     25  C   UNL     1      18.497   6.051  20.530  0.00  0.00    +0.079 A 
ATOM     26  C   UNL     1      18.445   8.209  21.591  0.00  0.00    +0.031 A 
ATOM     27  C   UNL     1      19.879   6.099  20.621  0.00  0.00    +0.215 A 
ATOM     28  C   UNL     1      19.829   8.161  21.634  0.00  0.00    +0.115 A 
BRANCH  27   2
ATOM      2  O   UNL     1      20.614   5.048  20.139  0.00  0.00    -0.474 OA
BRANCH   2  29
ATOM     29  C   UNL     1      21.867   4.802  20.767  0.00  0.00    +0.258 C 
BRANCH  29  30
ATOM     30  C   UNL     1      21.777   3.515  21.564  0.00  0.00    +0.200 C 
BRANCH  30   3
ATOM      3  O   UNL     1      22.973   2.769  21.378  0.00  0.00    -0.380 OA
ATOM     31  C   UNL     1      23.943   3.512  20.654  0.00  0.00    +0.194 C 
ENDBRANCH  30   3
ENDBRANCH  29  30
ENDBRANCH   2  29
ENDBRANCH  27   2
ENDBRANCH  19  23
ENDBRANCH   9  14
BRANCH   4  13
ATOM     13  C   UNL     1      12.937  10.493  20.596  0.00  0.00    +0.122 C 
BRANCH  13  15
ATOM      6  N   UNL     1      13.716  12.263  17.467  0.00  0.00    -0.360 N 
ATOM     15  C   UNL     1      13.288  10.954  19.207  0.00  0.00    -0.008 A 
ATOM     16  C   UNL     1      13.587  10.125  18.089  0.00  0.00    +0.004 A 
ATOM     17  C   UNL     1      13.375  12.263  18.793  0.00  0.00    +0.088 A 
ATOM     18  C   UNL     1      13.852  10.972  17.011  0.00  0.00    +0.047 A 
ATOM     20  C   UNL     1      13.659   8.732  17.892  0.00  0.00    +0.010 A 
ATOM     21  C   UNL     1      14.186  10.493  15.739  0.00  0.00    +0.026 A 
ATOM     22  C   UNL     1      13.992   8.239  16.626  0.00  0.00    +0.001 A 
ATOM     24  C   UNL     1      14.251   9.107  15.567  0.00  0.00    +0.002 A 
ATOM     32  H   UNL     1      13.850  13.092  16.903  0.00  0.00    +0.165 HD
ENDBRANCH  13  15
ENDBRANCH   4  13
TORSDOF 8
ENDMDL
MODEL 7
REMARK VINA RESULT:      -6.7     26.139     30.142
REMARK  Name = 45783350
REMARK  9 active torsions:
REMARK  status: ('A' for Active; 'I' for Inactive)
REMARK    1  A    between atoms: O_2  and  C_27
REMARK    2  A    between atoms: O_2  and  C_29
REMARK    3  A    between atoms: O_3  and  C_30
REMARK    4  A    between atoms: O_3  and  C_31
REMARK    5  A    between atoms: N_4  and  C_13
REMARK    6  A    between atoms: C_9  and  C_14
REMARK    7  A    between atoms: C_13  and  C_15
REMARK    8  A    between atoms: C_19  and  C_23
REMARK    9  A    between atoms: C_29  and  C_30
REMARK                            x       y       z     vdW  Elec       q    Type
REMARK                         _______ _______ _______ _____ _____    ______ ____
ROOT
ATOM      4  N   UNL     1      -3.164 -10.610  14.569  0.00  0.00    -0.287 NA
ATOM      9  C   UNL     1      -2.972 -11.362  15.825  0.00  0.00    +0.146 C 
ATOM     10  C   UNL     1      -1.611 -10.883  16.364  0.00  0.00    +0.030 C 
ATOM     11  C   UNL     1      -1.827 -10.315  14.056  0.00  0.00    +0.085 C 
ATOM     12  C   UNL     1      -1.087  -9.912  15.315  0.00  0.00    +0.017 C 
ENDROOT
BRANCH   9  14
ATOM      1  O   UNL     1      -3.789 -11.287  18.127  0.00  0.00    -0.336 OA
ATOM      5  N   UNL     1      -5.352 -10.838  16.587  0.00  0.00    -0.190 NA
ATOM      7  N   UNL     1      -4.974 -11.043  18.834  0.00  0.00    -0.056 NA
ATOM     14  C   UNL     1      -4.100 -11.145  16.812  0.00  0.00    +0.245 A 
ATOM     19  C   UNL     1      -5.849 -10.786  17.857  0.00  0.00    +0.202 A 
BRANCH  19  23
ATOM      8  N   UNL     1      -9.904  -9.860  18.624  0.00  0.00    -0.221 NA
ATOM     23  C   UNL     1      -7.224 -10.472  18.116  0.00  0.00    +0.029 A 
ATOM     25  C   UNL     1      -7.881 -11.054  19.195  0.00  0.00    +0.079 A 
ATOM     26  C   UNL     1      -7.906  -9.584  17.292  0.00  0.00    +0.031 A 
ATOM     27  C   UNL     1      -9.209 -10.719  19.404  0.00  0.00    +0.215 A 
ATOM     28  C   UNL     1      -9.232  -9.314  17.586  0.00  0.00    +0.115 A 
BRANCH  27   2
ATOM      2  O   UNL     1      -9.878 -11.280  20.460  0.00  0.00    -0.474 OA
BRANCH   2  29
ATOM     29  C   UNL     1     -10.618 -12.465  20.192  0.00  0.00    +0.258 C 
BRANCH  29  30
ATOM     30  C   UNL     1     -12.014 -12.317  20.765  0.00  0.00    +0.200 C 
BRANCH  30   3
ATOM      3  O   UNL     1     -12.719 -11.330  20.022  0.00  0.00    -0.380 OA
ATOM     31  C   UNL     1     -13.013 -10.191  20.818  0.00  0.00    +0.194 C 
ENDBRANCH  30   3
ENDBRANCH  29  30
ENDBRANCH   2  29
ENDBRANCH  27   2
ENDBRANCH  19  23
ENDBRANCH   9  14
BRANCH   4  13
ATOM     13  C   UNL     1      -3.983 -11.318  13.595  0.00  0.00    +0.122 C 
BRANCH  13  15
ATOM      6  N   UNL     1      -6.628  -9.102  12.319  0.00  0.00    -0.360 N 
ATOM     15  C   UNL     1      -4.895 -10.385  12.843  0.00  0.00    -0.008 A 
ATOM     16  C   UNL     1      -4.660  -9.824  11.557  0.00  0.00    +0.004 A 
ATOM     17  C   UNL     1      -6.113  -9.923  13.286  0.00  0.00    +0.088 A 
ATOM     18  C   UNL     1      -5.763  -9.024  11.252  0.00  0.00    +0.047 A 
ATOM     20  C   UNL     1      -3.611  -9.921  10.620  0.00  0.00    +0.010 A 
ATOM     21  C   UNL     1      -5.870  -8.312  10.052  0.00  0.00    +0.026 A 
ATOM     22  C   UNL     1      -3.706  -9.215   9.416  0.00  0.00    +0.001 A 
ATOM     24  C   UNL     1      -4.818  -8.424   9.138  0.00  0.00    +0.002 A 
ATOM     32  H   UNL     1      -7.516  -8.622  12.380  0.00  0.00    +0.165 HD
ENDBRANCH  13  15
ENDBRANCH   4  13
TORSDOF 8
ENDMDL
MODEL 8
REMARK VINA RESULT:      -6.6     27.889     30.067
REMARK  Name = 45783350
REMARK  9 active torsions:
REMARK  status: ('A' for Active; 'I' for Inactive)
REMARK    1  A    between atoms: O_2  and  C_27
REMARK    2  A    between atoms: O_2  and  C_29
REMARK    3  A    between atoms: O_3  and  C_30
REMARK    4  A    between atoms: O_3  and  C_31
REMARK    5  A    between atoms: N_4  and  C_13
REMARK    6  A    between atoms: C_9  and  C_14
REMARK    7  A    between atoms: C_13  and  C_15
REMARK    8  A    between atoms: C_19  and  C_23
REMARK    9  A    between atoms: C_29  and  C_30
REMARK                            x       y       z     vdW  Elec       q    Type
REMARK                         _______ _______ _______ _____ _____    ______ ____
ROOT
ATOM      4  N   UNL     1      -3.562 -12.090  13.957  0.00  0.00    -0.287 NA
ATOM      9  C   UNL     1      -2.648 -12.066  12.798  0.00  0.00    +0.146 C 
ATOM     10  C   UNL     1      -2.562 -13.534  12.338  0.00  0.00    +0.030 C 
ATOM     11  C   UNL     1      -3.436 -13.418  14.556  0.00  0.00    +0.085 C 
ATOM     12  C   UNL     1      -3.410 -14.313  13.334  0.00  0.00    +0.017 C 
ENDROOT
BRANCH   9  14
ATOM      1  O   UNL     1      -2.260 -10.159  11.320  0.00  0.00    -0.336 OA
ATOM      5  N   UNL     1      -4.259 -11.131  11.051  0.00  0.00    -0.190 NA
ATOM      7  N   UNL     1      -2.910  -9.439  10.310  0.00  0.00    -0.056 NA
ATOM     14  C   UNL     1      -3.123 -11.137  11.701  0.00  0.00    +0.245 A 
ATOM     19  C   UNL     1      -4.083 -10.072  10.209  0.00  0.00    +0.202 A 
BRANCH  19  23
ATOM      8  N   UNL     1      -7.072  -8.894   7.459  0.00  0.00    -0.221 NA
ATOM     23  C   UNL     1      -5.097  -9.673   9.276  0.00  0.00    +0.029 A 
ATOM     25  C   UNL     1      -6.162  -8.887   9.699  0.00  0.00    +0.079 A 
ATOM     26  C   UNL     1      -5.017 -10.070   7.946  0.00  0.00    +0.031 A 
ATOM     27  C   UNL     1      -7.116  -8.527   8.760  0.00  0.00    +0.215 A 
ATOM     28  C   UNL     1      -6.021  -9.658   7.085  0.00  0.00    +0.115 A 
BRANCH  27   2
ATOM      2  O   UNL     1      -8.177  -7.753   9.151  0.00  0.00    -0.474 OA
BRANCH   2  29
ATOM     29  C   UNL     1      -8.964  -7.176   8.116  0.00  0.00    +0.258 C 
BRANCH  29  30
ATOM     30  C   UNL     1      -9.048  -5.678   8.335  0.00  0.00    +0.200 C 
BRANCH  30   3
ATOM      3  O   UNL     1     -10.409  -5.272   8.255  0.00  0.00    -0.380 OA
ATOM     31  C   UNL     1     -10.669  -4.157   9.096  0.00  0.00    +0.194 C 
ENDBRANCH  30   3
ENDBRANCH  29  30
ENDBRANCH   2  29
ENDBRANCH  27   2
ENDBRANCH  19  23
ENDBRANCH   9  14
BRANCH   4  13
ATOM     13  C   UNL     1      -3.299 -11.027  14.918  0.00  0.00    +0.122 C 
BRANCH  13  15
ATOM      6  N   UNL     1      -6.531  -9.642  15.999  0.00  0.00    -0.360 N 
ATOM     15  C   UNL     1      -4.555 -10.575  15.614  0.00  0.00    -0.008 A 
ATOM     16  C   UNL     1      -4.902 -10.813  16.973  0.00  0.00    +0.004 A 
ATOM     17  C   UNL     1      -5.576  -9.853  15.041  0.00  0.00    +0.088 A 
ATOM     18  C   UNL     1      -6.146 -10.217  17.188  0.00  0.00    +0.047 A 
ATOM     20  C   UNL     1      -4.275 -11.481  18.044  0.00  0.00    +0.010 A 
ATOM     21  C   UNL     1      -6.798 -10.255  18.426  0.00  0.00    +0.026 A 
ATOM     22  C   UNL     1      -4.915 -11.527  19.287  0.00  0.00    +0.001 A 
ATOM     24  C   UNL     1      -6.157 -10.923  19.474  0.00  0.00    +0.002 A 
ATOM     32  H   UNL     1      -7.396  -9.138  15.854  0.00  0.00    +0.165 HD
ENDBRANCH  13  15
ENDBRANCH   4  13
TORSDOF 8
ENDMDL
MODEL 9
REMARK VINA RESULT:      -6.6      2.207      4.502
REMARK  Name = 45783350
REMARK  9 active torsions:
REMARK  status: ('A' for Active; 'I' for Inactive)
REMARK    1  A    between atoms: O_2  and  C_27
REMARK    2  A    between atoms: O_2  and  C_29
REMARK    3  A    between atoms: O_3  and  C_30
REMARK    4  A    between atoms: O_3  and  C_31
REMARK    5  A    between atoms: N_4  and  C_13
REMARK    6  A    between atoms: C_9  and  C_14
REMARK    7  A    between atoms: C_13  and  C_15
REMARK    8  A    between atoms: C_19  and  C_23
REMARK    9  A    between atoms: C_29  and  C_30
REMARK                            x       y       z     vdW  Elec       q    Type
REMARK                         _______ _______ _______ _____ _____    ______ ____
ROOT
ATOM      4  N   UNL     1      12.366   8.639  19.824  0.00  0.00    -0.287 NA
ATOM      9  C   UNL     1      13.181   8.250  20.993  0.00  0.00    +0.146 C 
ATOM     10  C   UNL     1      12.254   7.353  21.834  0.00  0.00    +0.030 C 
ATOM     11  C   UNL     1      10.973   8.616  20.266  0.00  0.00    +0.085 C 
ATOM     12  C   UNL     1      10.925   7.347  21.092  0.00  0.00    +0.017 C 
ENDROOT
BRANCH   9  14
ATOM      1  O   UNL     1      14.444   6.846  19.441  0.00  0.00    -0.336 OA
ATOM      5  N   UNL     1      15.621   7.532  21.218  0.00  0.00    -0.190 NA
ATOM      7  N   UNL     1      15.726   6.303  19.292  0.00  0.00    -0.056 NA
ATOM     14  C   UNL     1      14.468   7.555  20.600  0.00  0.00    +0.245 A 
ATOM     19  C   UNL     1      16.362   6.752  20.379  0.00  0.00    +0.202 A 
BRANCH  19  23
ATOM      8  N   UNL     1      20.409   5.832  21.190  0.00  0.00    -0.221 NA
ATOM     23  C   UNL     1      17.734   6.440  20.654  0.00  0.00    +0.029 A 
ATOM     25  C   UNL     1      18.381   7.030  21.734  0.00  0.00    +0.079 A 
ATOM     26  C   UNL     1      18.424   5.547  19.842  0.00  0.00    +0.031 A 
ATOM     27  C   UNL     1      19.707   6.696  21.958  0.00  0.00    +0.215 A 
ATOM     28  C   UNL     1      19.747   5.278  20.149  0.00  0.00    +0.115 A 
BRANCH  27   2
ATOM      2  O   UNL     1      20.367   7.264  23.016  0.00  0.00    -0.474 OA
BRANCH   2  29
ATOM     29  C   UNL     1      21.788   7.196  22.995  0.00  0.00    +0.258 C 
BRANCH  29  30
ATOM     30  C   UNL     1      22.283   6.779  24.367  0.00  0.00    +0.200 C 
BRANCH  30   3
ATOM      3  O   UNL     1      21.221   6.148  25.072  0.00  0.00    -0.380 OA
ATOM     31  C   UNL     1      21.120   6.632  26.403  0.00  0.00    +0.194 C 
ENDBRANCH  30   3
ENDBRANCH  29  30
ENDBRANCH   2  29
ENDBRANCH  27   2
ENDBRANCH  19  23
ENDBRANCH   9  14
BRANCH   4  13
ATOM     13  C   UNL     1      12.744   9.930  19.264  0.00  0.00    +0.122 C 
BRANCH  13  15
ATOM      6  N   UNL     1      13.287   9.151  15.710  0.00  0.00    -0.360 N 
ATOM     15  C   UNL     1      13.167   9.815  17.824  0.00  0.00    -0.008 A 
ATOM     16  C   UNL     1      14.181  10.575  17.176  0.00  0.00    +0.004 A 
ATOM     17  C   UNL     1      12.636   8.948  16.897  0.00  0.00    +0.088 A 
ATOM     18  C   UNL     1      14.236  10.138  15.851  0.00  0.00    +0.047 A 
ATOM     20  C   UNL     1      15.060  11.595  17.592  0.00  0.00    +0.010 A 
ATOM     21  C   UNL     1      15.129  10.673  14.916  0.00  0.00    +0.026 A 
ATOM     22  C   UNL     1      15.959  12.139  16.668  0.00  0.00    +0.001 A 
ATOM     24  C   UNL     1      15.992  11.684  15.351  0.00  0.00    +0.002 A 
ATOM     32  H   UNL     1      13.098   8.649  14.853  0.00  0.00    +0.165 HD
ENDBRANCH  13  15
ENDBRANCH   4  13
TORSDOF 8
ENDMDL
MODEL 10
REMARK VINA RESULT:      -6.5     28.495     32.305
REMARK  Name = 45783350
REMARK  9 active torsions:
REMARK  status: ('A' for Active; 'I' for Inactive)
REMARK    1  A    between atoms: O_2  and  C_27
REMARK    2  A    between atoms: O_2  and  C_29
REMARK    3  A    between atoms: O_3  and  C_30
REMARK    4  A    between atoms: O_3  and  C_31
REMARK    5  A    between atoms: N_4  and  C_13
REMARK    6  A    between atoms: C_9  and  C_14
REMARK    7  A    between atoms: C_13  and  C_15
REMARK    8  A    between atoms: C_19  and  C_23
REMARK    9  A    between atoms: C_29  and  C_30
REMARK                            x       y       z     vdW  Elec       q    Type
REMARK                         _______ _______ _______ _____ _____    ______ ____
ROOT
ATOM      4  N   UNL     1     -16.463   5.061  23.276  0.00  0.00    -0.287 NA
ATOM      9  C   UNL     1     -17.601   5.119  24.215  0.00  0.00    +0.146 C 
ATOM     10  C   UNL     1     -18.651   4.165  23.617  0.00  0.00    +0.030 C 
ATOM     11  C   UNL     1     -17.026   4.735  21.965  0.00  0.00    +0.085 C 
ATOM     12  C   UNL     1     -18.040   3.666  22.315  0.00  0.00    +0.017 C 
ENDROOT
BRANCH   9  14
ATOM      1  O   UNL     1     -17.548   5.628  26.605  0.00  0.00    -0.336 OA
ATOM      5  N   UNL     1     -16.580   3.682  26.062  0.00  0.00    -0.190 NA
ATOM      7  N   UNL     1     -17.087   5.074  27.806  0.00  0.00    -0.056 NA
ATOM     14  C   UNL     1     -17.209   4.745  25.629  0.00  0.00    +0.245 A 
ATOM     19  C   UNL     1     -16.529   3.928  27.404  0.00  0.00    +0.202 A 
BRANCH  19  23
ATOM      8  N   UNL     1     -14.716   1.216  30.095  0.00  0.00    -0.221 NA
ATOM     23  C   UNL     1     -15.913   3.008  28.316  0.00  0.00    +0.029 A 
ATOM     25  C   UNL     1     -15.027   3.471  29.282  0.00  0.00    +0.079 A 
ATOM     26  C   UNL     1     -16.201   1.650  28.239  0.00  0.00    +0.031 A 
ATOM     27  C   UNL     1     -14.459   2.543  30.140  0.00  0.00    +0.215 A 
ATOM     28  C   UNL     1     -15.583   0.803  29.143  0.00  0.00    +0.115 A 
BRANCH  27   2
ATOM      2  O   UNL     1     -13.582   2.974  31.101  0.00  0.00    -0.474 OA
BRANCH   2  29
ATOM     29  C   UNL     1     -13.711   2.391  32.392  0.00  0.00    +0.258 C 
BRANCH  29  30
ATOM     30  C   UNL     1     -14.394   3.381  33.316  0.00  0.00    +0.200 C 
BRANCH  30   3
ATOM      3  O   UNL     1     -15.797   3.152  33.287  0.00  0.00    -0.380 OA
ATOM     31  C   UNL     1     -16.497   4.275  32.771  0.00  0.00    +0.194 C 
ENDBRANCH  30   3
ENDBRANCH  29  30
ENDBRANCH   2  29
ENDBRANCH  27   2
ENDBRANCH  19  23
ENDBRANCH   9  14
BRANCH   4  13
ATOM     13  C   UNL     1     -15.678   6.288  23.247  0.00  0.00    +0.122 C 
BRANCH  13  15
ATOM      6  N   UNL     1     -12.443   5.206  21.868  0.00  0.00    -0.360 N 
ATOM     15  C   UNL     1     -14.361   6.095  22.543  0.00  0.00    -0.008 A 
ATOM     16  C   UNL     1     -13.743   7.004  21.639  0.00  0.00    +0.004 A 
ATOM     17  C   UNL     1     -13.538   5.000  22.664  0.00  0.00    +0.088 A 
ATOM     18  C   UNL     1     -12.542   6.422  21.231  0.00  0.00    +0.047 A 
ATOM     20  C   UNL     1     -14.093   8.269  21.127  0.00  0.00    +0.010 A 
ATOM     21  C   UNL     1     -11.668   7.044  20.333  0.00  0.00    +0.026 A 
ATOM     22  C   UNL     1     -13.228   8.903  20.228  0.00  0.00    +0.001 A 
ATOM     24  C   UNL     1     -12.035   8.299  19.838  0.00  0.00    +0.002 A 
ATOM     32  H   UNL     1     -11.673   4.559  21.763  0.00  0.00    +0.165 HD
ENDBRANCH  13  15
ENDBRANCH   4  13
TORSDOF 8
ENDMDL
