REMARK  Name = 11887643
REMARK  4 active torsions:
REMARK  status: ('A' for Active; 'I' for Inactive)
REMARK    1  A    between atoms: O_4  and  C_23
REMARK    2  A    between atoms: O_4  and  C_27
REMARK    3  A    between atoms: N_7  and  C_15
REMARK    4  A    between atoms: C_14  and  C_16
REMARK                            x       y       z     vdW  Elec       q    Type
REMARK                         _______ _______ _______ _____ _____    ______ ____
ROOT
ATOM      1  O   UNL     1       0.976   0.464  -0.779  0.00  0.00    -0.273 OA
ATOM      2  O   UNL     1      -1.039  -3.625   0.380  0.00  0.00    -0.252 OA
ATOM      3  O   UNL     1       3.843   0.368  -2.041  0.00  0.00    -0.270 OA
ATOM      5  N   UNL     1       3.359  -0.495   0.066  0.00  0.00    -0.284 N 
ATOM      6  N   UNL     1       1.155  -3.267   0.784  0.00  0.00    -0.293 N 
ATOM      7  N   UNL     1      -0.126  -1.538  -0.222  0.00  0.00    -0.193 N 
ATOM      8  C   UNL     1       2.352  -2.480   0.751  0.00  0.00    +0.105 C 
ATOM      9  C   UNL     1       2.348  -1.460  -0.366  0.00  0.00    +0.183 C 
ATOM     10  C   UNL     1       2.592  -1.633   1.999  0.00  0.00    +0.043 C 
ATOM     11  C   UNL     1       3.607  -0.607   1.507  0.00  0.00    +0.111 C 
ATOM     12  C   UNL     1       1.012  -0.731  -0.476  0.00  0.00    +0.250 C 
ATOM     13  C   UNL     1      -0.081  -2.847   0.330  0.00  0.00    +0.313 C 
ATOM     14  C   UNL     1       4.067   0.288  -0.835  0.00  0.00    +0.247 C 
ATOM     33  H   UNL     1       1.212  -4.196   1.189  0.00  0.00    +0.151 HD
ENDROOT
BRANCH   7  15
ATOM     15  C   UNL     1      -1.428  -0.984  -0.534  0.00  0.00    +0.046 A 
ATOM     17  C   UNL     1      -1.553  -0.067  -1.569  0.00  0.00    +0.027 A 
ATOM     18  C   UNL     1      -2.534  -1.377   0.208  0.00  0.00    +0.027 A 
ATOM     21  C   UNL     1      -2.807   0.466  -1.867  0.00  0.00    +0.048 A 
ATOM     22  C   UNL     1      -3.788  -0.844  -0.091  0.00  0.00    +0.048 A 
ATOM     23  C   UNL     1      -3.924   0.078  -1.128  0.00  0.00    +0.129 A 
BRANCH  23   4
ATOM      4  O   UNL     1      -5.147   0.599  -1.421  0.00  0.00    -0.456 OA
BRANCH   4  27
ATOM     27  C   UNL     1      -5.935   1.024  -0.364  0.00  0.00    +0.128 A 
ATOM     28  C   UNL     1      -5.362   1.779   0.643  0.00  0.00    +0.046 A 
ATOM     29  C   UNL     1      -7.275   0.682  -0.344  0.00  0.00    +0.046 A 
ATOM     30  C   UNL     1      -6.155   2.207   1.707  0.00  0.00    +0.004 A 
ATOM     31  C   UNL     1      -8.069   1.111   0.720  0.00  0.00    +0.004 A 
ATOM     32  C   UNL     1      -7.509   1.873   1.746  0.00  0.00    +0.000 A 
ENDBRANCH   4  27
ENDBRANCH  23   4
ENDBRANCH   7  15
BRANCH  14  16
ATOM     16  C   UNL     1       5.182   1.083  -0.303  0.00  0.00    +0.037 A 
ATOM     19  C   UNL     1       6.462   0.538  -0.259  0.00  0.00    +0.013 A 
ATOM     20  C   UNL     1       4.951   2.377   0.154  0.00  0.00    +0.013 A 
ATOM     24  C   UNL     1       7.520   1.294   0.245  0.00  0.00    +0.001 A 
ATOM     25  C   UNL     1       6.010   3.133   0.658  0.00  0.00    +0.001 A 
ATOM     26  C   UNL     1       7.294   2.591   0.703  0.00  0.00    +0.000 A 
ENDBRANCH  14  16
TORSDOF 4
