REMARK  Name = 11884002
REMARK  7 active torsions:
REMARK  status: ('A' for Active; 'I' for Inactive)
REMARK    1  A    between atoms: O_3  and  C_13
REMARK    2  A    between atoms: O_3  and  C_17
REMARK    3  A    between atoms: N_7  and  C_12
REMARK    4  A    between atoms: N_8  and  C_18
REMARK    5  A    between atoms: N_9  and  C_19
REMARK    6  A    between atoms: C_30  and  C_34
REMARK    7  A    between atoms: C_34  and  C_35
REMARK                            x       y       z     vdW  Elec       q    Type
REMARK                         _______ _______ _______ _____ _____    ______ ____
ROOT
ATOM      1  O   UNL     1       0.603  -1.390  -1.108  0.00  0.00    -0.368 OA
ATOM      2  O   UNL     1      -0.257  -3.147   1.253  0.00  0.00    -0.368 OA
ATOM     10  C   UNL     1      -0.778  -1.899   0.751  0.00  0.00    +0.173 C 
ATOM     11  C   UNL     1       0.411  -1.084   0.283  0.00  0.00    +0.192 C 
ATOM     12  C   UNL     1      -1.573  -2.138  -0.511  0.00  0.00    +0.131 C 
ATOM     13  C   UNL     1       1.534  -1.625   1.135  0.00  0.00    +0.235 C 
ATOM     14  C   UNL     1      -0.485  -2.206  -1.569  0.00  0.00    +0.185 C 
ATOM     15  C   UNL     1       1.177  -3.090   1.241  0.00  0.00    +0.207 C 
ENDROOT
BRANCH  12   7
ATOM      4  O   UNL     1      -4.335  -2.011   0.240  0.00  0.00    -0.252 OA
ATOM      7  N   UNL     1      -2.487  -1.052  -0.767  0.00  0.00    -0.292 N 
ATOM      8  N   UNL     1      -4.467   0.114  -0.748  0.00  0.00    -0.269 N 
ATOM     16  C   UNL     1      -3.829  -1.069  -0.364  0.00  0.00    +0.304 C 
ATOM     36  H   UNL     1      -2.126  -0.209  -1.203  0.00  0.00    +0.151 HD
ATOM     37  H   UNL     1      -3.901   0.797  -1.247  0.00  0.00    +0.156 HD
BRANCH   8  18
ATOM     18  C   UNL     1      -5.814   0.483  -0.530  0.00  0.00    +0.035 A 
ATOM     21  C   UNL     1      -6.283   1.715  -0.989  0.00  0.00    +0.024 A 
ATOM     22  C   UNL     1      -6.675  -0.383   0.145  0.00  0.00    +0.024 A 
ATOM     28  C   UNL     1      -7.612   2.079  -0.773  0.00  0.00    +0.013 A 
ATOM     29  C   UNL     1      -8.004  -0.018   0.361  0.00  0.00    +0.013 A 
ATOM     30  C   UNL     1      -8.472   1.213  -0.098  0.00  0.00    +0.017 A 
BRANCH  30  34
ATOM      6  O   UNL     1     -10.764   0.740   0.197  0.00  0.00    -0.292 OA
ATOM     34  C   UNL     1      -9.858   1.594   0.127  0.00  0.00    +0.160 C 
ATOM     35  C   UNL     1     -10.236   3.063   0.283  0.00  0.00    +0.091 C 
ENDBRANCH  30  34
ENDBRANCH   8  18
ENDBRANCH  12   7
BRANCH  13   3
ATOM      3  O   UNL     1       2.812  -1.429   0.573  0.00  0.00    -0.442 OA
BRANCH   3  17
ATOM      5  O   UNL     1       3.029   0.527   1.739  0.00  0.00    -0.226 OA
ATOM      9  N   UNL     1       4.718  -0.251   0.317  0.00  0.00    -0.251 N 
ATOM     17  C   UNL     1       3.492  -0.290   0.953  0.00  0.00    +0.405 C 
ATOM     38  H   UNL     1       4.896  -1.039  -0.295  0.00  0.00    +0.158 HD
BRANCH   9  19
ATOM     19  C   UNL     1       5.723   0.738   0.423  0.00  0.00    +0.044 A 
ATOM     20  C   UNL     1       6.930   0.645  -0.287  0.00  0.00    +0.003 A 
ATOM     23  C   UNL     1       5.474   1.821   1.267  0.00  0.00    +0.024 A 
ATOM     24  C   UNL     1       7.900   1.666  -0.141  0.00  0.00    -0.016 A 
ATOM     25  C   UNL     1       7.197  -0.438  -1.141  0.00  0.00    +0.010 A 
ATOM     26  C   UNL     1       6.427   2.825   1.412  0.00  0.00    +0.002 A 
ATOM     27  C   UNL     1       7.633   2.749   0.713  0.00  0.00    +0.008 A 
ATOM     31  C   UNL     1       9.107   1.573  -0.851  0.00  0.00    +0.008 A 
ATOM     32  C   UNL     1       8.403  -0.513  -1.839  0.00  0.00    +0.001 A 
ATOM     33  C   UNL     1       9.356   0.490  -1.695  0.00  0.00    +0.001 A 
ENDBRANCH   9  19
ENDBRANCH   3  17
ENDBRANCH  13   3
TORSDOF 6
