MODEL 1
REMARK VINA RESULT:      -7.2      0.000      0.000
REMARK  Name = 11885880
REMARK  6 active torsions:
REMARK  status: ('A' for Active; 'I' for Inactive)
REMARK    1  A    between atoms: O_5  and  C_34
REMARK    2  A    between atoms: O_5  and  C_35
REMARK    3  A    between atoms: N_8  and  C_19
REMARK    4  A    between atoms: C_18  and  C_21
REMARK    5  A    between atoms: C_24  and  C_27
REMARK    6  A    between atoms: C_27  and  C_29
REMARK                            x       y       z     vdW  Elec       q    Type
REMARK                         _______ _______ _______ _____ _____    ______ ____
ROOT
ATOM      2  O   UNL     1      12.552   7.395   3.387  0.00  0.00    -0.266 OA
ATOM      3  O   UNL     1       8.673   9.800   5.823  0.00  0.00    -0.270 OA
ATOM      6  N   UNL     1       9.073   7.784   6.941  0.00  0.00    -0.297 N 
ATOM      7  N   UNL     1      11.573   6.632   5.366  0.00  0.00    -0.310 N 
ATOM      9  C   UNL     1       9.161   5.775   5.476  0.00  0.00    +0.027 C 
ATOM     10  C   UNL     1      10.527   5.857   7.523  0.00  0.00    +0.054 C 
ATOM     11  C   UNL     1       9.659   4.947   6.655  0.00  0.00    +0.018 C 
ATOM     12  C   UNL     1       8.333   6.974   5.974  0.00  0.00    +0.113 C 
ATOM     13  C   UNL     1      10.367   6.215   4.637  0.00  0.00    +0.130 C 
ATOM     14  C   UNL     1       9.676   7.029   8.052  0.00  0.00    +0.117 C 
ATOM     15  C   UNL     1      11.708   6.396   6.738  0.00  0.00    +0.027 A 
ATOM     16  C   UNL     1      12.863   6.679   7.362  0.00  0.00    +0.024 A 
ATOM     17  C   UNL     1      12.618   7.184   4.598  0.00  0.00    +0.273 A 
ATOM     18  C   UNL     1       9.175   9.164   6.748  0.00  0.00    +0.247 C 
ATOM     19  C   UNL     1      13.878   7.512   5.338  0.00  0.00    +0.099 A 
ATOM     20  C   UNL     1      13.968   7.250   6.646  0.00  0.00    +0.030 A 
ENDROOT
BRANCH  18  21
ATOM      1  F   UNL     1      12.176  12.112  10.430  0.00  0.00    -0.205 F 
ATOM     21  C   UNL     1       9.962   9.937   7.714  0.00  0.00    +0.037 A 
ATOM     22  C   UNL     1       9.345  10.468   8.844  0.00  0.00    +0.016 A 
ATOM     23  C   UNL     1      11.323  10.137   7.496  0.00  0.00    +0.016 A 
ATOM     25  C   UNL     1      10.094  11.204   9.762  0.00  0.00    +0.039 A 
ATOM     26  C   UNL     1      12.072  10.872   8.416  0.00  0.00    +0.039 A 
ATOM     28  C   UNL     1      11.458  11.406   9.548  0.00  0.00    +0.123 A 
ENDBRANCH  18  21
BRANCH  19   8
ATOM      4  O   UNL     1      14.690  10.256   5.395  0.00  0.00    -0.275 OA
ATOM      8  N   UNL     1      14.907   8.066   4.634  0.00  0.00    -0.281 N 
ATOM     24  C   UNL     1      15.253   9.410   4.704  0.00  0.00    +0.222 C 
ATOM     36  H   UNL     1      15.278   7.512   3.865  0.00  0.00    +0.155 HD
BRANCH  24  27
ATOM     27  C   UNL     1      16.436   9.722   3.807  0.00  0.00    +0.131 C 
BRANCH  27  29
ATOM     29  C   UNL     1      17.710   9.045   4.242  0.00  0.00    -0.038 A 
ATOM     30  C   UNL     1      18.091   9.100   5.575  0.00  0.00    +0.007 A 
ATOM     31  C   UNL     1      18.483   8.377   3.303  0.00  0.00    +0.007 A 
ATOM     32  C   UNL     1      19.270   8.474   5.977  0.00  0.00    +0.046 A 
ATOM     33  C   UNL     1      19.663   7.750   3.706  0.00  0.00    +0.046 A 
ATOM     34  C   UNL     1      20.056   7.799   5.044  0.00  0.00    +0.120 A 
BRANCH  34   5
ATOM      5  O   UNL     1      21.207   7.188   5.437  0.00  0.00    -0.495 OA
ATOM     35  C   UNL     1      21.980   6.545   4.424  0.00  0.00    +0.277 C 
ENDBRANCH  34   5
ENDBRANCH  27  29
ENDBRANCH  24  27
ENDBRANCH  19   8
TORSDOF 5
ENDMDL
MODEL 2
REMARK VINA RESULT:      -7.1     25.616     29.386
REMARK  Name = 11885880
REMARK  6 active torsions:
REMARK  status: ('A' for Active; 'I' for Inactive)
REMARK    1  A    between atoms: O_5  and  C_34
REMARK    2  A    between atoms: O_5  and  C_35
REMARK    3  A    between atoms: N_8  and  C_19
REMARK    4  A    between atoms: C_18  and  C_21
REMARK    5  A    between atoms: C_24  and  C_27
REMARK    6  A    between atoms: C_27  and  C_29
REMARK                            x       y       z     vdW  Elec       q    Type
REMARK                         _______ _______ _______ _____ _____    ______ ____
ROOT
ATOM      2  O   UNL     1      -4.064 -13.045  15.960  0.00  0.00    -0.266 OA
ATOM      3  O   UNL     1      -8.995 -14.056  17.155  0.00  0.00    -0.270 OA
ATOM      6  N   UNL     1      -8.397 -12.066  18.230  0.00  0.00    -0.297 N 
ATOM      7  N   UNL     1      -5.436 -11.609  17.190  0.00  0.00    -0.310 N 
ATOM      9  C   UNL     1      -6.284 -12.179  19.540  0.00  0.00    +0.027 C 
ATOM     10  C   UNL     1      -6.952 -10.061  18.476  0.00  0.00    +0.054 C 
ATOM     11  C   UNL     1      -6.333 -10.668  19.734  0.00  0.00    +0.018 C 
ATOM     12  C   UNL     1      -7.703 -12.739  19.327  0.00  0.00    +0.113 C 
ATOM     13  C   UNL     1      -5.356 -12.495  18.360  0.00  0.00    +0.130 C 
ATOM     14  C   UNL     1      -8.388 -10.596  18.299  0.00  0.00    +0.117 C 
ATOM     15  C   UNL     1      -6.128 -10.395  17.247  0.00  0.00    +0.027 A 
ATOM     16  C   UNL     1      -6.092  -9.547  16.206  0.00  0.00    +0.024 A 
ATOM     17  C   UNL     1      -4.701 -11.996  16.051  0.00  0.00    +0.273 A 
ATOM     18  C   UNL     1      -8.984 -12.828  17.217  0.00  0.00    +0.247 C 
ATOM     19  C   UNL     1      -4.710 -11.035  14.902  0.00  0.00    +0.099 A 
ATOM     20  C   UNL     1      -5.369  -9.877  15.010  0.00  0.00    +0.030 A 
ENDROOT
BRANCH  18  21
ATOM      1  F   UNL     1     -11.457 -10.118  12.999  0.00  0.00    -0.205 F 
ATOM     21  C   UNL     1      -9.632 -12.117  16.111  0.00  0.00    +0.037 A 
ATOM     22  C   UNL     1      -8.881 -11.720  15.007  0.00  0.00    +0.016 A 
ATOM     23  C   UNL     1     -10.997 -11.843  16.169  0.00  0.00    +0.016 A 
ATOM     25  C   UNL     1      -9.499 -11.044  13.955  0.00  0.00    +0.039 A 
ATOM     26  C   UNL     1     -11.614 -11.167  15.115  0.00  0.00    +0.039 A 
ATOM     28  C   UNL     1     -10.865 -10.767  14.009  0.00  0.00    +0.123 A 
ENDBRANCH  18  21
BRANCH  19   8
ATOM      4  O   UNL     1      -2.022 -10.297  14.257  0.00  0.00    -0.275 OA
ATOM      8  N   UNL     1      -4.026 -11.381  13.774  0.00  0.00    -0.281 N 
ATOM     24  C   UNL     1      -2.717 -10.990  13.517  0.00  0.00    +0.222 C 
ATOM     36  H   UNL     1      -4.580 -11.745  13.003  0.00  0.00    +0.155 HD
BRANCH  24  27
ATOM     27  C   UNL     1      -2.233 -11.530  12.184  0.00  0.00    +0.131 C 
BRANCH  27  29
ATOM     29  C   UNL     1      -3.016 -11.009  11.008  0.00  0.00    -0.038 A 
ATOM     30  C   UNL     1      -2.982  -9.653  10.714  0.00  0.00    +0.007 A 
ATOM     31  C   UNL     1      -3.757 -11.891  10.236  0.00  0.00    +0.007 A 
ATOM     32  C   UNL     1      -3.707  -9.170   9.625  0.00  0.00    +0.046 A 
ATOM     33  C   UNL     1      -4.482 -11.408   9.146  0.00  0.00    +0.046 A 
ATOM     34  C   UNL     1      -4.457 -10.047   8.841  0.00  0.00    +0.120 A 
BRANCH  34   5
ATOM      5  O   UNL     1      -5.164  -9.575   7.777  0.00  0.00    -0.495 OA
ATOM     35  C   UNL     1      -5.574 -10.527   6.796  0.00  0.00    +0.277 C 
ENDBRANCH  34   5
ENDBRANCH  27  29
ENDBRANCH  24  27
ENDBRANCH  19   8
TORSDOF 5
ENDMDL
MODEL 3
REMARK VINA RESULT:      -7.1     25.448     29.772
REMARK  Name = 11885880
REMARK  6 active torsions:
REMARK  status: ('A' for Active; 'I' for Inactive)
REMARK    1  A    between atoms: O_5  and  C_34
REMARK    2  A    between atoms: O_5  and  C_35
REMARK    3  A    between atoms: N_8  and  C_19
REMARK    4  A    between atoms: C_18  and  C_21
REMARK    5  A    between atoms: C_24  and  C_27
REMARK    6  A    between atoms: C_27  and  C_29
REMARK                            x       y       z     vdW  Elec       q    Type
REMARK                         _______ _______ _______ _____ _____    ______ ____
ROOT
ATOM      2  O   UNL     1      -5.913 -10.393  17.092  0.00  0.00    -0.266 OA
ATOM      3  O   UNL     1      -2.104 -10.232  13.596  0.00  0.00    -0.270 OA
ATOM      6  N   UNL     1      -3.362 -12.161  13.187  0.00  0.00    -0.297 N 
ATOM      7  N   UNL     1      -5.689 -11.907  15.327  0.00  0.00    -0.310 N 
ATOM      9  C   UNL     1      -3.764 -13.591  15.184  0.00  0.00    +0.027 C 
ATOM     10  C   UNL     1      -5.446 -13.497  13.388  0.00  0.00    +0.054 C 
ATOM     11  C   UNL     1      -4.747 -14.430  14.375  0.00  0.00    +0.018 C 
ATOM     12  C   UNL     1      -2.727 -12.935  14.253  0.00  0.00    +0.113 C 
ATOM     13  C   UNL     1      -4.551 -12.554  15.995  0.00  0.00    +0.130 C 
ATOM     14  C   UNL     1      -4.404 -12.880  12.434  0.00  0.00    +0.117 C 
ATOM     15  C   UNL     1      -6.190 -12.392  14.115  0.00  0.00    +0.027 A 
ATOM     16  C   UNL     1      -7.302 -11.860  13.581  0.00  0.00    +0.024 A 
ATOM     17  C   UNL     1      -6.307 -10.844  16.017  0.00  0.00    +0.273 A 
ATOM     18  C   UNL     1      -2.973 -10.838  12.971  0.00  0.00    +0.247 C 
ATOM     19  C   UNL     1      -7.526 -10.259  15.373  0.00  0.00    +0.099 A 
ATOM     20  C   UNL     1      -7.980 -10.770  14.224  0.00  0.00    +0.030 A 
ENDROOT
BRANCH  18  21
ATOM      1  F   UNL     1      -5.605  -7.948   8.974  0.00  0.00    -0.205 F 
ATOM     21  C   UNL     1      -3.663 -10.080  11.923  0.00  0.00    +0.037 A 
ATOM     22  C   UNL     1      -3.050  -9.891  10.686  0.00  0.00    +0.016 A 
ATOM     23  C   UNL     1      -4.928  -9.552  12.168  0.00  0.00    +0.016 A 
ATOM     25  C   UNL     1      -3.707  -9.170   9.689  0.00  0.00    +0.039 A 
ATOM     26  C   UNL     1      -5.585  -8.832  11.170  0.00  0.00    +0.039 A 
ATOM     28  C   UNL     1      -4.975  -8.640   9.931  0.00  0.00    +0.123 A 
ENDBRANCH  18  21
BRANCH  19   8
ATOM      4  O   UNL     1      -9.661 -10.444  17.270  0.00  0.00    -0.275 OA
ATOM      8  N   UNL     1      -8.143  -9.217  16.000  0.00  0.00    -0.281 N 
ATOM     24  C   UNL     1      -9.178  -9.371  16.915  0.00  0.00    +0.222 C 
ATOM     36  H   UNL     1      -7.983  -8.294  15.604  0.00  0.00    +0.155 HD
BRANCH  24  27
ATOM     27  C   UNL     1      -9.655  -8.029  17.438  0.00  0.00    +0.131 C 
BRANCH  27  29
ATOM     29  C   UNL     1     -10.781  -7.438  16.630  0.00  0.00    -0.038 A 
ATOM     30  C   UNL     1     -10.532  -6.345  15.813  0.00  0.00    +0.007 A 
ATOM     31  C   UNL     1     -12.048  -7.997  16.714  0.00  0.00    +0.007 A 
ATOM     32  C   UNL     1     -11.574  -5.797  15.065  0.00  0.00    +0.046 A 
ATOM     33  C   UNL     1     -13.090  -7.449  15.965  0.00  0.00    +0.046 A 
ATOM     34  C   UNL     1     -12.853  -6.348  15.140  0.00  0.00    +0.120 A 
BRANCH  34   5
ATOM      5  O   UNL     1     -13.869  -5.814  14.410  0.00  0.00    -0.495 OA
ATOM     35  C   UNL     1     -13.522  -4.839  13.428  0.00  0.00    +0.277 C 
ENDBRANCH  34   5
ENDBRANCH  27  29
ENDBRANCH  24  27
ENDBRANCH  19   8
TORSDOF 5
ENDMDL
MODEL 4
REMARK VINA RESULT:      -6.9     14.005     15.853
REMARK  Name = 11885880
REMARK  6 active torsions:
REMARK  status: ('A' for Active; 'I' for Inactive)
REMARK    1  A    between atoms: O_5  and  C_34
REMARK    2  A    between atoms: O_5  and  C_35
REMARK    3  A    between atoms: N_8  and  C_19
REMARK    4  A    between atoms: C_18  and  C_21
REMARK    5  A    between atoms: C_24  and  C_27
REMARK    6  A    between atoms: C_27  and  C_29
REMARK                            x       y       z     vdW  Elec       q    Type
REMARK                         _______ _______ _______ _____ _____    ______ ____
ROOT
ATOM      2  O   UNL     1      17.555  10.076  22.092  0.00  0.00    -0.266 OA
ATOM      3  O   UNL     1      12.495  10.967  22.695  0.00  0.00    -0.270 OA
ATOM      6  N   UNL     1      12.933  10.887  20.398  0.00  0.00    -0.297 N 
ATOM      7  N   UNL     1      16.020  10.162  20.333  0.00  0.00    -0.310 N 
ATOM      9  C   UNL     1      14.823  12.319  19.644  0.00  0.00    +0.027 C 
ATOM     10  C   UNL     1      14.335  10.216  18.461  0.00  0.00    +0.054 C 
ATOM     11  C   UNL     1      14.753  11.672  18.265  0.00  0.00    +0.018 C 
ATOM     12  C   UNL     1      13.450  12.254  20.338  0.00  0.00    +0.113 C 
ATOM     13  C   UNL     1      15.917  11.622  20.462  0.00  0.00    +0.130 C 
ATOM     14  C   UNL     1      12.940  10.163  19.116  0.00  0.00    +0.117 C 
ATOM     15  C   UNL     1      15.334   9.473  19.327  0.00  0.00    +0.027 A 
ATOM     16  C   UNL     1      15.533   8.155  19.154  0.00  0.00    +0.024 A 
ATOM     17  C   UNL     1      16.917   9.511  21.204  0.00  0.00    +0.273 A 
ATOM     18  C   UNL     1      12.503  10.367  21.621  0.00  0.00    +0.247 C 
ATOM     19  C   UNL     1      17.088   8.038  20.996  0.00  0.00    +0.099 A 
ATOM     20  C   UNL     1      16.426   7.426  20.008  0.00  0.00    +0.030 A 
ENDROOT
BRANCH  18  21
ATOM      1  F   UNL     1      10.713   5.072  21.735  0.00  0.00    -0.205 F 
ATOM     21  C   UNL     1      12.034   8.978  21.651  0.00  0.00    +0.037 A 
ATOM     22  C   UNL     1      12.934   7.938  21.434  0.00  0.00    +0.016 A 
ATOM     23  C   UNL     1      10.690   8.706  21.896  0.00  0.00    +0.016 A 
ATOM     25  C   UNL     1      12.487   6.617  21.463  0.00  0.00    +0.039 A 
ATOM     26  C   UNL     1      10.243   7.385  21.925  0.00  0.00    +0.039 A 
ATOM     28  C   UNL     1      11.142   6.340  21.708  0.00  0.00    +0.123 A 
ENDBRANCH  18  21
BRANCH  19   8
ATOM      4  O   UNL     1      19.905   7.688  20.632  0.00  0.00    -0.275 OA
ATOM      8  N   UNL     1      17.934   7.368  21.830  0.00  0.00    -0.281 N 
ATOM     24  C   UNL     1      19.297   7.231  21.598  0.00  0.00    +0.222 C 
ATOM     36  H   UNL     1      17.499   6.761  22.521  0.00  0.00    +0.155 HD
BRANCH  24  27
ATOM     27  C   UNL     1      19.967   6.435  22.702  0.00  0.00    +0.131 C 
BRANCH  27  29
ATOM     29  C   UNL     1      21.234   5.750  22.261  0.00  0.00    -0.038 A 
ATOM     30  C   UNL     1      22.461   6.280  22.634  0.00  0.00    +0.007 A 
ATOM     31  C   UNL     1      21.155   4.600  21.489  0.00  0.00    +0.007 A 
ATOM     32  C   UNL     1      23.634   5.646  22.225  0.00  0.00    +0.046 A 
ATOM     33  C   UNL     1      22.329   3.965  21.081  0.00  0.00    +0.046 A 
ATOM     34  C   UNL     1      23.568   4.489  21.448  0.00  0.00    +0.120 A 
BRANCH  34   5
ATOM      5  O   UNL     1      24.713   3.870  21.050  0.00  0.00    -0.495 OA
ATOM     35  C   UNL     1      24.920   3.727  19.646  0.00  0.00    +0.277 C 
ENDBRANCH  34   5
ENDBRANCH  27  29
ENDBRANCH  24  27
ENDBRANCH  19   8
TORSDOF 5
ENDMDL
MODEL 5
REMARK VINA RESULT:      -6.9     13.084     14.937
REMARK  Name = 11885880
REMARK  6 active torsions:
REMARK  status: ('A' for Active; 'I' for Inactive)
REMARK    1  A    between atoms: O_5  and  C_34
REMARK    2  A    between atoms: O_5  and  C_35
REMARK    3  A    between atoms: N_8  and  C_19
REMARK    4  A    between atoms: C_18  and  C_21
REMARK    5  A    between atoms: C_24  and  C_27
REMARK    6  A    between atoms: C_27  and  C_29
REMARK                            x       y       z     vdW  Elec       q    Type
REMARK                         _______ _______ _______ _____ _____    ______ ____
ROOT
ATOM      2  O   UNL     1      16.282   7.494  21.598  0.00  0.00    -0.266 OA
ATOM      3  O   UNL     1      12.608   6.785  18.025  0.00  0.00    -0.270 OA
ATOM      6  N   UNL     1      11.874   8.467  19.475  0.00  0.00    -0.297 N 
ATOM      7  N   UNL     1      14.359   8.807  21.417  0.00  0.00    -0.310 N 
ATOM      9  C   UNL     1      12.012   7.897  21.893  0.00  0.00    +0.027 C 
ATOM     10  C   UNL     1      12.297  10.233  21.169  0.00  0.00    +0.054 C 
ATOM     11  C   UNL     1      11.677   9.343  22.245  0.00  0.00    +0.018 C 
ATOM     12  C   UNL     1      11.436   7.534  20.512  0.00  0.00    +0.113 C 
ATOM     13  C   UNL     1      13.533   7.714  21.951  0.00  0.00    +0.130 C 
ATOM     14  C   UNL     1      11.680   9.891  19.798  0.00  0.00    +0.117 C 
ATOM     15  C   UNL     1      13.802  10.053  21.112  0.00  0.00    +0.027 A 
ATOM     16  C   UNL     1      14.592  11.073  20.736  0.00  0.00    +0.024 A 
ATOM     17  C   UNL     1      15.745   8.567  21.325  0.00  0.00    +0.273 A 
ATOM     18  C   UNL     1      12.445   7.972  18.300  0.00  0.00    +0.247 C 
ATOM     19  C   UNL     1      16.586   9.721  20.875  0.00  0.00    +0.099 A 
ATOM     20  C   UNL     1      16.012  10.900  20.614  0.00  0.00    +0.030 A 
ENDROOT
BRANCH  18  21
ATOM      1  F   UNL     1      14.231  11.659  14.496  0.00  0.00    -0.205 F 
ATOM     21  C   UNL     1      12.913   8.939  17.303  0.00  0.00    +0.037 A 
ATOM     22  C   UNL     1      12.111   9.249  16.207  0.00  0.00    +0.016 A 
ATOM     23  C   UNL     1      14.158   9.544  17.455  0.00  0.00    +0.016 A 
ATOM     25  C   UNL     1      12.557  10.169  15.258  0.00  0.00    +0.039 A 
ATOM     26  C   UNL     1      14.604  10.464  16.506  0.00  0.00    +0.039 A 
ATOM     28  C   UNL     1      13.803  10.777  15.407  0.00  0.00    +0.123 A 
ENDBRANCH  18  21
BRANCH  19   8
ATOM      4  O   UNL     1      18.610  10.728  22.629  0.00  0.00    -0.275 OA
ATOM      8  N   UNL     1      17.931   9.524  20.756  0.00  0.00    -0.281 N 
ATOM     24  C   UNL     1      18.867  10.042  21.643  0.00  0.00    +0.222 C 
ATOM     36  H   UNL     1      18.258   9.177  19.857  0.00  0.00    +0.155 HD
BRANCH  24  27
ATOM     27  C   UNL     1      20.278   9.651  21.245  0.00  0.00    +0.131 C 
BRANCH  27  29
ATOM     29  C   UNL     1      20.615   8.219  21.567  0.00  0.00    -0.038 A 
ATOM     30  C   UNL     1      21.257   7.439  20.616  0.00  0.00    +0.007 A 
ATOM     31  C   UNL     1      20.279   7.702  22.810  0.00  0.00    +0.007 A 
ATOM     32  C   UNL     1      21.569   6.113  20.914  0.00  0.00    +0.046 A 
ATOM     33  C   UNL     1      20.592   6.375  23.108  0.00  0.00    +0.046 A 
ATOM     34  C   UNL     1      21.237   5.580  22.159  0.00  0.00    +0.120 A 
BRANCH  34   5
ATOM      5  O   UNL     1      21.542   4.286  22.451  0.00  0.00    -0.495 OA
ATOM     35  C   UNL     1      21.721   3.397  21.350  0.00  0.00    +0.277 C 
ENDBRANCH  34   5
ENDBRANCH  27  29
ENDBRANCH  24  27
ENDBRANCH  19   8
TORSDOF 5
ENDMDL
MODEL 6
REMARK VINA RESULT:      -6.7     16.762     20.225
REMARK  Name = 11885880
REMARK  6 active torsions:
REMARK  status: ('A' for Active; 'I' for Inactive)
REMARK    1  A    between atoms: O_5  and  C_34
REMARK    2  A    between atoms: O_5  and  C_35
REMARK    3  A    between atoms: N_8  and  C_19
REMARK    4  A    between atoms: C_18  and  C_21
REMARK    5  A    between atoms: C_24  and  C_27
REMARK    6  A    between atoms: C_27  and  C_29
REMARK                            x       y       z     vdW  Elec       q    Type
REMARK                         _______ _______ _______ _____ _____    ______ ____
ROOT
ATOM      2  O   UNL     1      19.312  -9.661   1.443  0.00  0.00    -0.266 OA
ATOM      3  O   UNL     1      19.849  -4.522   1.193  0.00  0.00    -0.270 OA
ATOM      6  N   UNL     1      21.425  -5.472  -0.251  0.00  0.00    -0.297 N 
ATOM      7  N   UNL     1      20.754  -8.563  -0.031  0.00  0.00    -0.310 N 
ATOM      9  C   UNL     1      22.819  -7.269   0.758  0.00  0.00    +0.027 C 
ATOM     10  C   UNL     1      22.266  -7.351  -1.640  0.00  0.00    +0.054 C 
ATOM     11  C   UNL     1      23.378  -7.599  -0.622  0.00  0.00    +0.018 C 
ATOM     12  C   UNL     1      22.369  -5.797   0.816  0.00  0.00    +0.113 C 
ATOM     13  C   UNL     1      21.670  -8.236   1.070  0.00  0.00    +0.130 C 
ATOM     14  C   UNL     1      21.856  -5.865  -1.603  0.00  0.00    +0.117 C 
ATOM     15  C   UNL     1      21.058  -8.221  -1.353  0.00  0.00    +0.027 A 
ATOM     16  C   UNL     1      20.265  -8.631  -2.357  0.00  0.00    +0.024 A 
ATOM     17  C   UNL     1      19.613  -9.322   0.299  0.00  0.00    +0.273 A 
ATOM     18  C   UNL     1      20.214  -4.853   0.067  0.00  0.00    +0.247 C 
ATOM     19  C   UNL     1      18.740  -9.734  -0.846  0.00  0.00    +0.099 A 
ATOM     20  C   UNL     1      19.082  -9.402  -2.095  0.00  0.00    +0.030 A 
ENDROOT
BRANCH  18  21
ATOM      1  F   UNL     1      16.626  -3.822  -4.095  0.00  0.00    -0.205 F 
ATOM     21  C   UNL     1      19.272  -4.582  -1.025  0.00  0.00    +0.037 A 
ATOM     22  C   UNL     1      18.447  -5.601  -1.497  0.00  0.00    +0.016 A 
ATOM     23  C   UNL     1      19.208  -3.309  -1.585  0.00  0.00    +0.016 A 
ATOM     25  C   UNL     1      17.552  -5.343  -2.535  0.00  0.00    +0.039 A 
ATOM     26  C   UNL     1      18.312  -3.052  -2.623  0.00  0.00    +0.039 A 
ATOM     28  C   UNL     1      17.484  -4.069  -3.098  0.00  0.00    +0.123 A 
ENDBRANCH  18  21
BRANCH  19   8
ATOM      4  O   UNL     1      18.601 -12.558  -0.400  0.00  0.00    -0.275 OA
ATOM      8  N   UNL     1      17.616 -10.455  -0.567  0.00  0.00    -0.281 N 
ATOM     24  C   UNL     1      17.613 -11.829  -0.360  0.00  0.00    +0.222 C 
ATOM     36  H   UNL     1      16.727  -9.992  -0.745  0.00  0.00    +0.155 HD
BRANCH  24  27
ATOM     27  C   UNL     1      16.214 -12.339  -0.070  0.00  0.00    +0.131 C 
BRANCH  27  29
ATOM     29  C   UNL     1      15.912 -12.454   1.401  0.00  0.00    -0.038 A 
ATOM     30  C   UNL     1      16.255 -11.412   2.251  0.00  0.00    +0.007 A 
ATOM     31  C   UNL     1      15.295 -13.599   1.884  0.00  0.00    +0.007 A 
ATOM     32  C   UNL     1      15.976 -11.519   3.613  0.00  0.00    +0.046 A 
ATOM     33  C   UNL     1      15.015 -13.705   3.247  0.00  0.00    +0.046 A 
ATOM     34  C   UNL     1      15.356 -12.665   4.111  0.00  0.00    +0.120 A 
BRANCH  34   5
ATOM      5  O   UNL     1      15.084 -12.768   5.441  0.00  0.00    -0.495 OA
ATOM     35  C   UNL     1      15.338 -11.620   6.248  0.00  0.00    +0.277 C 
ENDBRANCH  34   5
ENDBRANCH  27  29
ENDBRANCH  24  27
ENDBRANCH  19   8
TORSDOF 5
ENDMDL
MODEL 7
REMARK VINA RESULT:      -6.7     26.324     30.051
REMARK  Name = 11885880
REMARK  6 active torsions:
REMARK  status: ('A' for Active; 'I' for Inactive)
REMARK    1  A    between atoms: O_5  and  C_34
REMARK    2  A    between atoms: O_5  and  C_35
REMARK    3  A    between atoms: N_8  and  C_19
REMARK    4  A    between atoms: C_18  and  C_21
REMARK    5  A    between atoms: C_24  and  C_27
REMARK    6  A    between atoms: C_27  and  C_29
REMARK                            x       y       z     vdW  Elec       q    Type
REMARK                         _______ _______ _______ _____ _____    ______ ____
ROOT
ATOM      2  O   UNL     1     -13.980   8.208  17.866  0.00  0.00    -0.266 OA
ATOM      3  O   UNL     1     -16.343  10.437  21.892  0.00  0.00    -0.270 OA
ATOM      6  N   UNL     1     -15.975   8.192  22.438  0.00  0.00    -0.297 N 
ATOM      7  N   UNL     1     -14.382   7.141  19.905  0.00  0.00    -0.310 N 
ATOM      9  C   UNL     1     -16.739   6.560  20.722  0.00  0.00    +0.027 C 
ATOM     10  C   UNL     1     -14.789   6.032  22.130  0.00  0.00    +0.054 C 
ATOM     11  C   UNL     1     -16.044   5.441  21.489  0.00  0.00    +0.018 C 
ATOM     12  C   UNL     1     -17.125   7.705  21.677  0.00  0.00    +0.113 C 
ATOM     13  C   UNL     1     -15.814   7.035  19.594  0.00  0.00    +0.130 C 
ATOM     14  C   UNL     1     -15.191   7.147  23.116  0.00  0.00    +0.117 C 
ATOM     15  C   UNL     1     -13.852   6.594  21.078  0.00  0.00    +0.027 A 
ATOM     16  C   UNL     1     -12.525   6.600  21.287  0.00  0.00    +0.024 A 
ATOM     17  C   UNL     1     -13.562   7.728  18.920  0.00  0.00    +0.273 A 
ATOM     18  C   UNL     1     -15.692   9.560  22.456  0.00  0.00    +0.247 C 
ATOM     19  C   UNL     1     -12.092   7.740  19.205  0.00  0.00    +0.099 A 
ATOM     20  C   UNL     1     -11.630   7.186  20.331  0.00  0.00    +0.030 A 
ENDROOT
BRANCH  18  21
ATOM      1  F   UNL     1     -11.167  11.261  25.265  0.00  0.00    -0.205 F 
ATOM     21  C   UNL     1     -14.505  10.006  23.193  0.00  0.00    +0.037 A 
ATOM     22  C   UNL     1     -13.325  10.282  22.505  0.00  0.00    +0.016 A 
ATOM     23  C   UNL     1     -14.563  10.152  24.576  0.00  0.00    +0.016 A 
ATOM     25  C   UNL     1     -12.197  10.707  23.206  0.00  0.00    +0.039 A 
ATOM     26  C   UNL     1     -13.434  10.577  25.277  0.00  0.00    +0.039 A 
ATOM     28  C   UNL     1     -12.250  10.854  24.592  0.00  0.00    +0.123 A 
ENDBRANCH  18  21
BRANCH  19   8
ATOM      4  O   UNL     1     -11.019  10.391  19.311  0.00  0.00    -0.275 OA
ATOM      8  N   UNL     1     -11.266   8.316  18.284  0.00  0.00    -0.281 N 
ATOM     24  C   UNL     1     -10.778   9.612  18.392  0.00  0.00    +0.222 C 
ATOM     36  H   UNL     1     -11.200   7.849  17.383  0.00  0.00    +0.155 HD
BRANCH  24  27
ATOM     27  C   UNL     1      -9.888   9.965  17.215  0.00  0.00    +0.131 C 
BRANCH  27  29
ATOM     29  C   UNL     1     -10.568   9.802  15.881  0.00  0.00    -0.038 A 
ATOM     30  C   UNL     1     -10.473   8.591  15.210  0.00  0.00    +0.007 A 
ATOM     31  C   UNL     1     -11.280  10.865  15.343  0.00  0.00    +0.007 A 
ATOM     32  C   UNL     1     -11.103   8.440  13.975  0.00  0.00    +0.046 A 
ATOM     33  C   UNL     1     -11.911  10.713  14.108  0.00  0.00    +0.046 A 
ATOM     34  C   UNL     1     -11.821   9.501  13.423  0.00  0.00    +0.120 A 
BRANCH  34   5
ATOM      5  O   UNL     1     -12.437   9.353  12.218  0.00  0.00    -0.495 OA
ATOM     35  C   UNL     1     -12.046  10.245  11.176  0.00  0.00    +0.277 C 
ENDBRANCH  34   5
ENDBRANCH  27  29
ENDBRANCH  24  27
ENDBRANCH  19   8
TORSDOF 5
ENDMDL
MODEL 8
REMARK VINA RESULT:      -6.7      5.578      9.683
REMARK  Name = 11885880
REMARK  6 active torsions:
REMARK  status: ('A' for Active; 'I' for Inactive)
REMARK    1  A    between atoms: O_5  and  C_34
REMARK    2  A    between atoms: O_5  and  C_35
REMARK    3  A    between atoms: N_8  and  C_19
REMARK    4  A    between atoms: C_18  and  C_21
REMARK    5  A    between atoms: C_24  and  C_27
REMARK    6  A    between atoms: C_27  and  C_29
REMARK                            x       y       z     vdW  Elec       q    Type
REMARK                         _______ _______ _______ _____ _____    ______ ____
ROOT
ATOM      2  O   UNL     1      13.102   7.194   2.972  0.00  0.00    -0.266 OA
ATOM      3  O   UNL     1      13.449   7.701  -2.165  0.00  0.00    -0.270 OA
ATOM      6  N   UNL     1      14.251   5.576  -1.605  0.00  0.00    -0.297 N 
ATOM      7  N   UNL     1      13.759   5.480   1.527  0.00  0.00    -0.310 N 
ATOM      9  C   UNL     1      15.955   5.547   0.209  0.00  0.00    +0.027 C 
ATOM     10  C   UNL     1      14.422   3.639  -0.060  0.00  0.00    +0.054 C 
ATOM     11  C   UNL     1      15.865   4.025   0.258  0.00  0.00    +0.018 C 
ATOM     12  C   UNL     1      15.567   6.062  -1.189  0.00  0.00    +0.113 C 
ATOM     13  C   UNL     1      15.059   6.130   1.309  0.00  0.00    +0.130 C 
ATOM     14  C   UNL     1      14.059   4.122  -1.479  0.00  0.00    +0.117 C 
ATOM     15  C   UNL     1      13.461   4.243   0.946  0.00  0.00    +0.027 A 
ATOM     16  C   UNL     1      12.314   3.613   1.251  0.00  0.00    +0.024 A 
ATOM     17  C   UNL     1      12.877   6.115   2.424  0.00  0.00    +0.273 A 
ATOM     18  C   UNL     1      13.293   6.486  -2.057  0.00  0.00    +0.247 C 
ATOM     19  C   UNL     1      11.598   5.393   2.715  0.00  0.00    +0.099 A 
ATOM     20  C   UNL     1      11.365   4.202   2.152  0.00  0.00    +0.030 A 
ENDROOT
BRANCH  18  21
ATOM      1  F   UNL     1       8.254   4.507  -3.451  0.00  0.00    -0.205 F 
ATOM     21  C   UNL     1      11.971   5.967  -2.423  0.00  0.00    +0.037 A 
ATOM     22  C   UNL     1      10.987   5.828  -1.447  0.00  0.00    +0.016 A 
ATOM     23  C   UNL     1      11.706   5.615  -3.744  0.00  0.00    +0.016 A 
ATOM     25  C   UNL     1       9.730   5.335  -1.795  0.00  0.00    +0.039 A 
ATOM     26  C   UNL     1      10.448   5.122  -4.092  0.00  0.00    +0.039 A 
ATOM     28  C   UNL     1       9.460   4.981  -3.117  0.00  0.00    +0.123 A 
ENDBRANCH  18  21
BRANCH  19   8
ATOM      4  O   UNL     1       9.375   7.035   1.972  0.00  0.00    -0.275 OA
ATOM      8  N   UNL     1      10.709   5.983   3.564  0.00  0.00    -0.281 N 
ATOM     24  C   UNL     1       9.646   6.772   3.141  0.00  0.00    +0.222 C 
ATOM     36  H   UNL     1      10.980   6.024   4.544  0.00  0.00    +0.155 HD
BRANCH  24  27
ATOM     27  C   UNL     1       8.838   7.286   4.318  0.00  0.00    +0.131 C 
BRANCH  27  29
ATOM     29  C   UNL     1       9.271   6.705   5.639  0.00  0.00    -0.038 A 
ATOM     30  C   UNL     1       9.119   5.345   5.869  0.00  0.00    +0.007 A 
ATOM     31  C   UNL     1       9.816   7.539   6.605  0.00  0.00    +0.007 A 
ATOM     32  C   UNL     1       9.520   4.808   7.092  0.00  0.00    +0.046 A 
ATOM     33  C   UNL     1      10.218   7.000   7.829  0.00  0.00    +0.046 A 
ATOM     34  C   UNL     1      10.069   5.635   8.072  0.00  0.00    +0.120 A 
BRANCH  34   5
ATOM      5  O   UNL     1      10.460   5.110   9.265  0.00  0.00    -0.495 OA
ATOM     35  C   UNL     1       9.434   4.626  10.130  0.00  0.00    +0.277 C 
ENDBRANCH  34   5
ENDBRANCH  27  29
ENDBRANCH  24  27
ENDBRANCH  19   8
TORSDOF 5
ENDMDL
MODEL 9
REMARK VINA RESULT:      -6.6     24.389     26.762
REMARK  Name = 11885880
REMARK  6 active torsions:
REMARK  status: ('A' for Active; 'I' for Inactive)
REMARK    1  A    between atoms: O_5  and  C_34
REMARK    2  A    between atoms: O_5  and  C_35
REMARK    3  A    between atoms: N_8  and  C_19
REMARK    4  A    between atoms: C_18  and  C_21
REMARK    5  A    between atoms: C_24  and  C_27
REMARK    6  A    between atoms: C_27  and  C_29
REMARK                            x       y       z     vdW  Elec       q    Type
REMARK                         _______ _______ _______ _____ _____    ______ ____
ROOT
ATOM      2  O   UNL     1      18.865  -2.822  29.885  0.00  0.00    -0.266 OA
ATOM      3  O   UNL     1      19.719  -0.492  25.346  0.00  0.00    -0.270 OA
ATOM      6  N   UNL     1      20.500  -2.690  25.174  0.00  0.00    -0.297 N 
ATOM      7  N   UNL     1      19.696  -3.907  27.990  0.00  0.00    -0.310 N 
ATOM      9  C   UNL     1      22.012  -3.410  27.015  0.00  0.00    +0.027 C 
ATOM     10  C   UNL     1      20.548  -5.059  25.919  0.00  0.00    +0.054 C 
ATOM     11  C   UNL     1      21.945  -4.843  26.498  0.00  0.00    +0.018 C 
ATOM     12  C   UNL     1      21.757  -2.414  25.868  0.00  0.00    +0.113 C 
ATOM     13  C   UNL     1      20.999  -3.248  28.155  0.00  0.00    +0.130 C 
ATOM     14  C   UNL     1      20.322  -4.087  24.743  0.00  0.00    +0.117 C 
ATOM     15  C   UNL     1      19.480  -4.842  26.973  0.00  0.00    +0.027 A 
ATOM     16  C   UNL     1      18.320  -5.518  26.911  0.00  0.00    +0.024 A 
ATOM     17  C   UNL     1      18.716  -3.624  28.963  0.00  0.00    +0.273 A 
ATOM     18  C   UNL     1      19.575  -1.660  24.989  0.00  0.00    +0.247 C 
ATOM     19  C   UNL     1      17.427  -4.377  28.841  0.00  0.00    +0.099 A 
ATOM     20  C   UNL     1      17.274  -5.277  27.864  0.00  0.00    +0.030 A 
ENDROOT
BRANCH  18  21
ATOM      1  F   UNL     1      14.739  -2.898  22.472  0.00  0.00    -0.205 F 
ATOM     21  C   UNL     1      18.307  -1.985  24.329  0.00  0.00    +0.037 A 
ATOM     22  C   UNL     1      17.258  -2.526  25.069  0.00  0.00    +0.016 A 
ATOM     23  C   UNL     1      18.156  -1.750  22.964  0.00  0.00    +0.016 A 
ATOM     25  C   UNL     1      16.052  -2.834  24.441  0.00  0.00    +0.039 A 
ATOM     26  C   UNL     1      16.949  -2.059  22.336  0.00  0.00    +0.039 A 
ATOM     28  C   UNL     1      15.897  -2.601  23.075  0.00  0.00    +0.123 A 
ENDBRANCH  18  21
BRANCH  19   8
ATOM      4  O   UNL     1      16.897  -5.862  31.229  0.00  0.00    -0.275 OA
ATOM      8  N   UNL     1      16.446  -4.119  29.753  0.00  0.00    -0.281 N 
ATOM     24  C   UNL     1      16.238  -4.879  30.897  0.00  0.00    +0.222 C 
ATOM     36  H   UNL     1      15.709  -3.484  29.455  0.00  0.00    +0.155 HD
BRANCH  24  27
ATOM     27  C   UNL     1      15.075  -4.344  31.710  0.00  0.00    +0.131 C 
BRANCH  27  29
ATOM     29  C   UNL     1      13.885  -5.268  31.733  0.00  0.00    -0.038 A 
ATOM     30  C   UNL     1      13.143  -5.395  32.898  0.00  0.00    +0.007 A 
ATOM     31  C   UNL     1      13.549  -5.976  30.588  0.00  0.00    +0.007 A 
ATOM     32  C   UNL     1      12.042  -6.251  32.919  0.00  0.00    +0.046 A 
ATOM     33  C   UNL     1      12.447  -6.832  30.609  0.00  0.00    +0.046 A 
ATOM     34  C   UNL     1      11.693  -6.969  31.775  0.00  0.00    +0.120 A 
BRANCH  34   5
ATOM      5  O   UNL     1      10.618  -7.804  31.795  0.00  0.00    -0.495 OA
ATOM     35  C   UNL     1       9.759  -7.729  32.931  0.00  0.00    +0.277 C 
ENDBRANCH  34   5
ENDBRANCH  27  29
ENDBRANCH  24  27
ENDBRANCH  19   8
TORSDOF 5
ENDMDL
MODEL 10
REMARK VINA RESULT:      -6.6     25.731     27.873
REMARK  Name = 11885880
REMARK  6 active torsions:
REMARK  status: ('A' for Active; 'I' for Inactive)
REMARK    1  A    between atoms: O_5  and  C_34
REMARK    2  A    between atoms: O_5  and  C_35
REMARK    3  A    between atoms: N_8  and  C_19
REMARK    4  A    between atoms: C_18  and  C_21
REMARK    5  A    between atoms: C_24  and  C_27
REMARK    6  A    between atoms: C_27  and  C_29
REMARK                            x       y       z     vdW  Elec       q    Type
REMARK                         _______ _______ _______ _____ _____    ______ ____
ROOT
ATOM      2  O   UNL     1      -6.305 -10.701  12.265  0.00  0.00    -0.266 OA
ATOM      3  O   UNL     1      -8.277 -12.521   7.842  0.00  0.00    -0.270 OA
ATOM      6  N   UNL     1      -8.190 -10.189   7.675  0.00  0.00    -0.297 N 
ATOM      7  N   UNL     1      -6.798  -9.375  10.406  0.00  0.00    -0.310 N 
ATOM      9  C   UNL     1      -9.194  -8.965   9.595  0.00  0.00    +0.027 C 
ATOM     10  C   UNL     1      -7.299  -7.977   8.371  0.00  0.00    +0.054 C 
ATOM     11  C   UNL     1      -8.633  -7.658   9.046  0.00  0.00    +0.018 C 
ATOM     12  C   UNL     1      -9.409  -9.978   8.455  0.00  0.00    +0.113 C 
ATOM     13  C   UNL     1      -8.239  -9.500  10.670  0.00  0.00    +0.130 C 
ATOM     14  C   UNL     1      -7.533  -8.958   7.204  0.00  0.00    +0.117 C 
ATOM     15  C   UNL     1      -6.319  -8.583   9.358  0.00  0.00    +0.027 A 
ATOM     16  C   UNL     1      -4.999  -8.390   9.205  0.00  0.00    +0.024 A 
ATOM     17  C   UNL     1      -5.931 -10.009  11.319  0.00  0.00    +0.273 A 
ATOM     18  C   UNL     1      -7.732 -11.489   7.451  0.00  0.00    +0.247 C 
ATOM     19  C   UNL     1      -4.466  -9.792  11.096  0.00  0.00    +0.099 A 
ATOM     20  C   UNL     1      -4.055  -9.009  10.092  0.00  0.00    +0.030 A 
ENDROOT
BRANCH  18  21
ATOM      1  F   UNL     1      -2.970 -12.138   4.596  0.00  0.00    -0.205 F 
ATOM     21  C   UNL     1      -6.483 -11.659   6.703  0.00  0.00    +0.037 A 
ATOM     22  C   UNL     1      -6.508 -11.692   5.310  0.00  0.00    +0.016 A 
ATOM     23  C   UNL     1      -5.277 -11.787   7.387  0.00  0.00    +0.016 A 
ATOM     25  C   UNL     1      -5.320 -11.854   4.598  0.00  0.00    +0.039 A 
ATOM     26  C   UNL     1      -4.088 -11.948   6.674  0.00  0.00    +0.039 A 
ATOM     28  C   UNL     1      -4.110 -11.982   5.280  0.00  0.00    +0.123 A 
ENDBRANCH  18  21
BRANCH  19   8
ATOM      4  O   UNL     1      -3.336 -12.402  10.780  0.00  0.00    -0.275 OA
ATOM      8  N   UNL     1      -3.592 -10.403  11.947  0.00  0.00    -0.281 N 
ATOM     24  C   UNL     1      -3.077 -11.677  11.738  0.00  0.00    +0.222 C 
ATOM     36  H   UNL     1      -3.502  -9.992  12.873  0.00  0.00    +0.155 HD
BRANCH  24  27
ATOM     27  C   UNL     1      -2.135 -12.080  12.857  0.00  0.00    +0.131 C 
BRANCH  27  29
ATOM     29  C   UNL     1      -2.692 -11.818  14.232  0.00  0.00    -0.038 A 
ATOM     30  C   UNL     1      -2.049 -10.914  15.066  0.00  0.00    +0.007 A 
ATOM     31  C   UNL     1      -3.838 -12.482  14.642  0.00  0.00    +0.007 A 
ATOM     32  C   UNL     1      -2.564 -10.672  16.339  0.00  0.00    +0.046 A 
ATOM     33  C   UNL     1      -4.354 -12.238  15.916  0.00  0.00    +0.046 A 
ATOM     34  C   UNL     1      -3.716 -11.333  16.764  0.00  0.00    +0.120 A 
BRANCH  34   5
ATOM      5  O   UNL     1      -4.219 -11.096  18.007  0.00  0.00    -0.495 OA
ATOM     35  C   UNL     1      -4.055 -12.124  18.982  0.00  0.00    +0.277 C 
ENDBRANCH  34   5
ENDBRANCH  27  29
ENDBRANCH  24  27
ENDBRANCH  19   8
TORSDOF 5
ENDMDL
