MODEL 1
REMARK VINA RESULT:      -7.2      0.000      0.000
REMARK  Name = 51136669
REMARK  9 active torsions:
REMARK  status: ('A' for Active; 'I' for Inactive)
REMARK    1  A    between atoms: O_1  and  C_18
REMARK    2  A    between atoms: O_4  and  C_26
REMARK    3  A    between atoms: O_4  and  C_28
REMARK    4  A    between atoms: N_7  and  C_24
REMARK    5  A    between atoms: C_8  and  C_12
REMARK    6  A    between atoms: C_9  and  C_14
REMARK    7  A    between atoms: C_12  and  C_15
REMARK    8  A    between atoms: C_14  and  C_18
REMARK    9  A    between atoms: C_24  and  C_27
REMARK                            x       y       z     vdW  Elec       q    Type
REMARK                         _______ _______ _______ _____ _____    ______ ____
ROOT
ATOM      2  O   UNL     1      13.040   9.243  14.932  0.00  0.00    -0.253 OA
ATOM      5  N   UNL     1      12.855   9.583  17.219  0.00  0.00    -0.285 N 
ATOM      7  N   UNL     1      14.613  10.551  15.969  0.00  0.00    -0.300 N 
ATOM      8  C   UNL     1      13.598   9.049  19.522  0.00  0.00    +0.016 C 
ATOM      9  C   UNL     1      12.363   8.120  19.667  0.00  0.00    +0.006 C 
ATOM     10  C   UNL     1      11.870   7.608  18.302  0.00  0.00    +0.023 C 
ATOM     11  C   UNL     1      13.292  10.156  18.500  0.00  0.00    +0.113 C 
ATOM     13  C   UNL     1      11.651   8.757  17.318  0.00  0.00    +0.109 C 
ATOM     16  C   UNL     1      13.470   9.759  15.969  0.00  0.00    +0.302 C 
ATOM     29  H   UNL     1      15.007  10.915  16.824  0.00  0.00    +0.150 HD
ENDROOT
BRANCH   7  24
ATOM     24  C   UNL     1      15.363  10.818  14.761  0.00  0.00    +0.102 C 
ATOM     27  C   UNL     1      15.003  12.164  14.171  0.00  0.00    +0.024 C 
ENDBRANCH   7  24
BRANCH   8  12
ATOM     12  C   UNL     1      14.890   8.315  19.147  0.00  0.00    +0.061 C 
BRANCH  12  15
ATOM      6  N   UNL     1      15.767   9.520  21.031  0.00  0.00    -0.287 NA
ATOM     15  C   UNL     1      15.932   8.527  20.219  0.00  0.00    +0.044 C 
ATOM     17  C   UNL     1      17.089   7.599  20.288  0.00  0.00    -0.001 A 
ATOM     19  C   UNL     1      18.204   8.035  21.013  0.00  0.00    -0.033 A 
ATOM     20  C   UNL     1      18.166   9.391  21.650  0.00  0.00    +0.059 C 
ATOM     21  C   UNL     1      16.744   9.689  22.110  0.00  0.00    +0.146 C 
ATOM     22  C   UNL     1      17.095   6.354  19.656  0.00  0.00    +0.013 A 
ATOM     23  C   UNL     1      19.342   7.224  21.082  0.00  0.00    +0.050 A 
ATOM     25  C   UNL     1      18.230   5.545  19.744  0.00  0.00    +0.046 A 
ATOM     26  C   UNL     1      19.350   5.980  20.452  0.00  0.00    +0.120 A 
BRANCH  26   4
ATOM      4  O   UNL     1      20.456   5.188  20.525  0.00  0.00    -0.495 OA
ATOM     28  C   UNL     1      21.689   5.825  20.855  0.00  0.00    +0.277 C 
ENDBRANCH  26   4
ENDBRANCH  12  15
ENDBRANCH   8  12
BRANCH   9  14
ATOM     14  C   UNL     1      12.599   6.954  20.627  0.00  0.00    +0.124 C 
BRANCH  14  18
ATOM      3  O   UNL     1      10.574   7.165  21.969  0.00  0.00    -0.251 OA
ATOM     18  C   UNL     1      11.319   6.495  21.268  0.00  0.00    +0.305 C 
BRANCH  18   1
ATOM      1  O   UNL     1      11.090   5.194  20.953  0.00  0.00    -0.481 OA
ATOM     30  H   UNL     1      10.480   4.766  21.590  0.00  0.00    +0.295 HD
ENDBRANCH  18   1
ENDBRANCH  14  18
ENDBRANCH   9  14
TORSDOF 7
ENDMDL
MODEL 2
REMARK VINA RESULT:      -6.7      2.830      4.645
REMARK  Name = 51136669
REMARK  9 active torsions:
REMARK  status: ('A' for Active; 'I' for Inactive)
REMARK    1  A    between atoms: O_1  and  C_18
REMARK    2  A    between atoms: O_4  and  C_26
REMARK    3  A    between atoms: O_4  and  C_28
REMARK    4  A    between atoms: N_7  and  C_24
REMARK    5  A    between atoms: C_8  and  C_12
REMARK    6  A    between atoms: C_9  and  C_14
REMARK    7  A    between atoms: C_12  and  C_15
REMARK    8  A    between atoms: C_14  and  C_18
REMARK    9  A    between atoms: C_24  and  C_27
REMARK                            x       y       z     vdW  Elec       q    Type
REMARK                         _______ _______ _______ _____ _____    ______ ____
ROOT
ATOM      2  O   UNL     1      12.360  11.486  22.628  0.00  0.00    -0.253 OA
ATOM      5  N   UNL     1      12.536   9.274  21.954  0.00  0.00    -0.285 N 
ATOM      7  N   UNL     1      14.215  10.298  23.264  0.00  0.00    -0.300 N 
ATOM      8  C   UNL     1      13.513   7.579  20.431  0.00  0.00    +0.016 C 
ATOM      9  C   UNL     1      12.200   7.616  19.605  0.00  0.00    +0.006 C 
ATOM     10  C   UNL     1      11.462   8.957  19.764  0.00  0.00    +0.023 C 
ATOM     11  C   UNL     1      13.215   7.972  21.888  0.00  0.00    +0.113 C 
ATOM     13  C   UNL     1      11.261   9.314  21.237  0.00  0.00    +0.109 C 
ATOM     16  C   UNL     1      12.991  10.424  22.617  0.00  0.00    +0.302 C 
ATOM     29  H   UNL     1      14.767   9.455  23.198  0.00  0.00    +0.150 HD
ENDROOT
BRANCH   7  24
ATOM     24  C   UNL     1      14.821  11.397  23.984  0.00  0.00    +0.102 C 
ATOM     27  C   UNL     1      15.909  12.062  23.168  0.00  0.00    +0.024 C 
ENDBRANCH   7  24
BRANCH   8  12
ATOM     12  C   UNL     1      14.636   8.452  19.860  0.00  0.00    +0.061 C 
BRANCH  12  15
ATOM      6  N   UNL     1      15.899   6.626  18.944  0.00  0.00    -0.287 NA
ATOM     15  C   UNL     1      15.905   7.643  19.741  0.00  0.00    +0.044 C 
ATOM     17  C   UNL     1      17.088   8.046  20.543  0.00  0.00    -0.001 A 
ATOM     19  C   UNL     1      18.093   7.086  20.711  0.00  0.00    -0.033 A 
ATOM     20  C   UNL     1      17.907   5.732  20.095  0.00  0.00    +0.059 C 
ATOM     21  C   UNL     1      17.149   5.878  18.781  0.00  0.00    +0.146 C 
ATOM     22  C   UNL     1      17.211   9.310  21.123  0.00  0.00    +0.013 A 
ATOM     23  C   UNL     1      19.214   7.390  21.489  0.00  0.00    +0.050 A 
ATOM     25  C   UNL     1      18.342   9.609  21.885  0.00  0.00    +0.046 A 
ATOM     26  C   UNL     1      19.339   8.651  22.070  0.00  0.00    +0.120 A 
BRANCH  26   4
ATOM      4  O   UNL     1      20.435   8.948  22.821  0.00  0.00    -0.495 OA
ATOM     28  C   UNL     1      21.578   8.110  22.662  0.00  0.00    +0.277 C 
ENDBRANCH  26   4
ENDBRANCH  12  15
ENDBRANCH   8  12
BRANCH   9  14
ATOM     14  C   UNL     1      12.412   7.290  18.126  0.00  0.00    +0.124 C 
BRANCH  14  18
ATOM      3  O   UNL     1      12.246   9.457  17.021  0.00  0.00    -0.251 OA
ATOM     18  C   UNL     1      11.805   8.337  17.235  0.00  0.00    +0.305 C 
BRANCH  18   1
ATOM      1  O   UNL     1      10.662   7.858  16.679  0.00  0.00    -0.481 OA
ATOM     30  H   UNL     1      10.220   7.204  17.258  0.00  0.00    +0.295 HD
ENDBRANCH  18   1
ENDBRANCH  14  18
ENDBRANCH   9  14
TORSDOF 7
ENDMDL
MODEL 3
REMARK VINA RESULT:      -6.6      2.586      4.256
REMARK  Name = 51136669
REMARK  9 active torsions:
REMARK  status: ('A' for Active; 'I' for Inactive)
REMARK    1  A    between atoms: O_1  and  C_18
REMARK    2  A    between atoms: O_4  and  C_26
REMARK    3  A    between atoms: O_4  and  C_28
REMARK    4  A    between atoms: N_7  and  C_24
REMARK    5  A    between atoms: C_8  and  C_12
REMARK    6  A    between atoms: C_9  and  C_14
REMARK    7  A    between atoms: C_12  and  C_15
REMARK    8  A    between atoms: C_14  and  C_18
REMARK    9  A    between atoms: C_24  and  C_27
REMARK                            x       y       z     vdW  Elec       q    Type
REMARK                         _______ _______ _______ _____ _____    ______ ____
ROOT
ATOM      2  O   UNL     1      11.052  11.078  22.700  0.00  0.00    -0.253 OA
ATOM      5  N   UNL     1      12.039   9.117  21.954  0.00  0.00    -0.285 N 
ATOM      7  N   UNL     1      13.211  10.637  23.332  0.00  0.00    -0.300 N 
ATOM      8  C   UNL     1      13.583   7.966  20.393  0.00  0.00    +0.016 C 
ATOM      9  C   UNL     1      12.355   7.547  19.542  0.00  0.00    +0.006 C 
ATOM     10  C   UNL     1      11.172   8.513  19.733  0.00  0.00    +0.023 C 
ATOM     11  C   UNL     1      13.152   8.163  21.857  0.00  0.00    +0.113 C 
ATOM     13  C   UNL     1      10.844   8.711  21.213  0.00  0.00    +0.109 C 
ATOM     16  C   UNL     1      12.032  10.327  22.666  0.00  0.00    +0.302 C 
ATOM     29  H   UNL     1      14.036  10.061  23.249  0.00  0.00    +0.150 HD
ENDROOT
BRANCH   7  24
ATOM     24  C   UNL     1      13.363  11.852  24.102  0.00  0.00    +0.102 C 
ATOM     27  C   UNL     1      13.832  13.002  23.236  0.00  0.00    +0.024 C 
ENDBRANCH   7  24
BRANCH   8  12
ATOM     12  C   UNL     1      14.306   9.214  19.875  0.00  0.00    +0.061 C 
BRANCH  12  15
ATOM      6  N   UNL     1      15.560  10.582  21.399  0.00  0.00    -0.287 NA
ATOM     15  C   UNL     1      15.530   9.485  20.716  0.00  0.00    +0.044 C 
ATOM     17  C   UNL     1      16.634   8.492  20.716  0.00  0.00    -0.001 A 
ATOM     19  C   UNL     1      17.881   8.934  21.175  0.00  0.00    -0.033 A 
ATOM     20  C   UNL     1      18.022  10.360  21.616  0.00  0.00    +0.059 C 
ATOM     21  C   UNL     1      16.721  10.817  22.263  0.00  0.00    +0.146 C 
ATOM     22  C   UNL     1      16.468   7.179  20.270  0.00  0.00    +0.013 A 
ATOM     23  C   UNL     1      18.971   8.059  21.162  0.00  0.00    +0.050 A 
ATOM     25  C   UNL     1      17.559   6.308  20.276  0.00  0.00    +0.046 A 
ATOM     26  C   UNL     1      18.807   6.747  20.717  0.00  0.00    +0.120 A 
BRANCH  26   4
ATOM      4  O   UNL     1      19.868   5.894  20.711  0.00  0.00    -0.495 OA
ATOM     28  C   UNL     1      21.161   6.466  20.518  0.00  0.00    +0.277 C 
ENDBRANCH  26   4
ENDBRANCH  12  15
ENDBRANCH   8  12
BRANCH   9  14
ATOM     14  C   UNL     1      12.682   7.382  18.058  0.00  0.00    +0.124 C 
BRANCH  14  18
ATOM      3  O   UNL     1      12.189   9.512  16.979  0.00  0.00    -0.251 OA
ATOM     18  C   UNL     1      11.902   8.346  17.208  0.00  0.00    +0.305 C 
BRANCH  18   1
ATOM      1  O   UNL     1      10.800   7.729  16.709  0.00  0.00    -0.481 OA
ATOM     30  H   UNL     1      10.107   7.611  17.392  0.00  0.00    +0.295 HD
ENDBRANCH  18   1
ENDBRANCH  14  18
ENDBRANCH   9  14
TORSDOF 7
ENDMDL
MODEL 4
REMARK VINA RESULT:      -6.3     26.487     29.112
REMARK  Name = 51136669
REMARK  9 active torsions:
REMARK  status: ('A' for Active; 'I' for Inactive)
REMARK    1  A    between atoms: O_1  and  C_18
REMARK    2  A    between atoms: O_4  and  C_26
REMARK    3  A    between atoms: O_4  and  C_28
REMARK    4  A    between atoms: N_7  and  C_24
REMARK    5  A    between atoms: C_8  and  C_12
REMARK    6  A    between atoms: C_9  and  C_14
REMARK    7  A    between atoms: C_12  and  C_15
REMARK    8  A    between atoms: C_14  and  C_18
REMARK    9  A    between atoms: C_24  and  C_27
REMARK                            x       y       z     vdW  Elec       q    Type
REMARK                         _______ _______ _______ _____ _____    ______ ____
ROOT
ATOM      2  O   UNL     1      -1.545  -9.944  12.485  0.00  0.00    -0.253 OA
ATOM      5  N   UNL     1      -2.907 -11.265  13.819  0.00  0.00    -0.285 N 
ATOM      7  N   UNL     1      -3.674 -10.392  11.760  0.00  0.00    -0.300 N 
ATOM      8  C   UNL     1      -4.766 -11.447  15.449  0.00  0.00    +0.016 C 
ATOM      9  C   UNL     1      -3.713 -11.574  16.582  0.00  0.00    +0.006 C 
ATOM     10  C   UNL     1      -2.375 -10.919  16.195  0.00  0.00    +0.023 C 
ATOM     11  C   UNL     1      -4.165 -11.958  14.128  0.00  0.00    +0.113 C 
ATOM     13  C   UNL     1      -1.874 -11.425  14.843  0.00  0.00    +0.109 C 
ATOM     16  C   UNL     1      -2.633 -10.498  12.675  0.00  0.00    +0.302 C 
ATOM     29  H   UNL     1      -4.586 -10.784  11.945  0.00  0.00    +0.150 HD
ENDROOT
BRANCH   7  24
ATOM     24  C   UNL     1      -3.548  -9.630  10.537  0.00  0.00    +0.102 C 
ATOM     27  C   UNL     1      -4.604  -8.549  10.447  0.00  0.00    +0.024 C 
ENDBRANCH   7  24
BRANCH   8  12
ATOM     12  C   UNL     1      -5.324 -10.031  15.271  0.00  0.00    +0.061 C 
BRANCH  12  15
ATOM      6  N   UNL     1      -7.069 -10.188  13.629  0.00  0.00    -0.287 NA
ATOM     15  C   UNL     1      -6.782 -10.098  14.886  0.00  0.00    +0.044 C 
ATOM     17  C   UNL     1      -7.809 -10.052  15.957  0.00  0.00    -0.001 A 
ATOM     19  C   UNL     1      -9.114  -9.729  15.567  0.00  0.00    -0.033 A 
ATOM     20  C   UNL     1      -9.384  -9.441  14.120  0.00  0.00    +0.059 C 
ATOM     21  C   UNL     1      -8.482 -10.315  13.258  0.00  0.00    +0.146 C 
ATOM     22  C   UNL     1      -7.511 -10.301  17.299  0.00  0.00    +0.013 A 
ATOM     23  C   UNL     1     -10.119  -9.630  16.534  0.00  0.00    +0.050 A 
ATOM     25  C   UNL     1      -8.525 -10.215  18.254  0.00  0.00    +0.046 A 
ATOM     26  C   UNL     1      -9.824  -9.877  17.874  0.00  0.00    +0.120 A 
BRANCH  26   4
ATOM      4  O   UNL     1     -10.805  -9.787  18.814  0.00  0.00    -0.495 OA
ATOM     28  C   UNL     1     -10.566 -10.430  20.065  0.00  0.00    +0.277 C 
ENDBRANCH  26   4
ENDBRANCH  12  15
ENDBRANCH   8  12
BRANCH   9  14
ATOM     14  C   UNL     1      -4.208 -11.036  17.924  0.00  0.00    +0.124 C 
BRANCH  14  18
ATOM      3  O   UNL     1      -3.325 -12.217  19.865  0.00  0.00    -0.251 OA
ATOM     18  C   UNL     1      -4.172 -12.093  18.993  0.00  0.00    +0.305 C 
BRANCH  18   1
ATOM      1  O   UNL     1      -5.242 -12.919  18.857  0.00  0.00    -0.481 OA
ATOM     30  H   UNL     1      -5.046 -13.676  18.267  0.00  0.00    +0.295 HD
ENDBRANCH  18   1
ENDBRANCH  14  18
ENDBRANCH   9  14
TORSDOF 7
ENDMDL
MODEL 5
REMARK VINA RESULT:      -6.2     26.488     29.879
REMARK  Name = 51136669
REMARK  9 active torsions:
REMARK  status: ('A' for Active; 'I' for Inactive)
REMARK    1  A    between atoms: O_1  and  C_18
REMARK    2  A    between atoms: O_4  and  C_26
REMARK    3  A    between atoms: O_4  and  C_28
REMARK    4  A    between atoms: N_7  and  C_24
REMARK    5  A    between atoms: C_8  and  C_12
REMARK    6  A    between atoms: C_9  and  C_14
REMARK    7  A    between atoms: C_12  and  C_15
REMARK    8  A    between atoms: C_14  and  C_18
REMARK    9  A    between atoms: C_24  and  C_27
REMARK                            x       y       z     vdW  Elec       q    Type
REMARK                         _______ _______ _______ _____ _____    ______ ____
ROOT
ATOM      2  O   UNL     1     -10.467  -9.433  12.918  0.00  0.00    -0.253 OA
ATOM      5  N   UNL     1     -10.121  -8.936  15.157  0.00  0.00    -0.285 N 
ATOM      7  N   UNL     1      -8.309  -9.293  13.681  0.00  0.00    -0.300 N 
ATOM      8  C   UNL     1      -9.558  -9.695  17.448  0.00  0.00    +0.016 C 
ATOM      9  C   UNL     1     -11.073  -9.679  17.788  0.00  0.00    +0.006 C 
ATOM     10  C   UNL     1     -11.942  -9.856  16.530  0.00  0.00    +0.023 C 
ATOM     11  C   UNL     1      -9.271  -8.681  16.328  0.00  0.00    +0.113 C 
ATOM     13  C   UNL     1     -11.555  -8.860  15.437  0.00  0.00    +0.109 C 
ATOM     16  C   UNL     1      -9.687  -9.232  13.855  0.00  0.00    +0.302 C 
ATOM     29  H   UNL     1      -7.671  -9.199  14.458  0.00  0.00    +0.150 HD
ENDROOT
BRANCH   7  24
ATOM     24  C   UNL     1      -7.707  -9.595  12.401  0.00  0.00    +0.102 C 
ATOM     27  C   UNL     1      -6.220  -9.311  12.407  0.00  0.00    +0.024 C 
ENDBRANCH   7  24
BRANCH   8  12
ATOM     12  C   UNL     1      -9.018 -11.078  17.071  0.00  0.00    +0.061 C 
BRANCH  12  15
ATOM      6  N   UNL     1      -7.912 -11.601  19.137  0.00  0.00    -0.287 NA
ATOM     15  C   UNL     1      -7.774 -11.380  17.871  0.00  0.00    +0.044 C 
ATOM     17  C   UNL     1      -6.462 -11.403  17.175  0.00  0.00    -0.001 A 
ATOM     19  C   UNL     1      -5.320 -11.299  17.979  0.00  0.00    -0.033 A 
ATOM     20  C   UNL     1      -5.492 -11.158  19.461  0.00  0.00    +0.059 C 
ATOM     21  C   UNL     1      -6.713 -11.955  19.903  0.00  0.00    +0.146 C 
ATOM     22  C   UNL     1      -6.346 -11.509  15.788  0.00  0.00    +0.013 A 
ATOM     23  C   UNL     1      -4.056 -11.274  17.381  0.00  0.00    +0.050 A 
ATOM     25  C   UNL     1      -5.079 -11.499  15.202  0.00  0.00    +0.046 A 
ATOM     26  C   UNL     1      -3.938 -11.379  15.995  0.00  0.00    +0.120 A 
BRANCH  26   4
ATOM      4  O   UNL     1      -2.707 -11.361  15.415  0.00  0.00    -0.495 OA
ATOM     28  C   UNL     1      -1.678 -10.644  16.095  0.00  0.00    +0.277 C 
ENDBRANCH  26   4
ENDBRANCH  12  15
ENDBRANCH   8  12
BRANCH   9  14
ATOM     14  C   UNL     1     -11.458 -10.700  18.858  0.00  0.00    +0.124 C 
BRANCH  14  18
ATOM      3  O   UNL     1     -12.379  -9.636  20.849  0.00  0.00    -0.251 OA
ATOM     18  C   UNL     1     -11.428 -10.098  20.235  0.00  0.00    +0.305 C 
BRANCH  18   1
ATOM      1  O   UNL     1     -10.162 -10.137  20.725  0.00  0.00    -0.481 OA
ATOM     30  H   UNL     1      -9.513 -10.406  20.040  0.00  0.00    +0.295 HD
ENDBRANCH  18   1
ENDBRANCH  14  18
ENDBRANCH   9  14
TORSDOF 7
ENDMDL
MODEL 6
REMARK VINA RESULT:      -6.2     26.410     29.409
REMARK  Name = 51136669
REMARK  9 active torsions:
REMARK  status: ('A' for Active; 'I' for Inactive)
REMARK    1  A    between atoms: O_1  and  C_18
REMARK    2  A    between atoms: O_4  and  C_26
REMARK    3  A    between atoms: O_4  and  C_28
REMARK    4  A    between atoms: N_7  and  C_24
REMARK    5  A    between atoms: C_8  and  C_12
REMARK    6  A    between atoms: C_9  and  C_14
REMARK    7  A    between atoms: C_12  and  C_15
REMARK    8  A    between atoms: C_14  and  C_18
REMARK    9  A    between atoms: C_24  and  C_27
REMARK                            x       y       z     vdW  Elec       q    Type
REMARK                         _______ _______ _______ _____ _____    ______ ____
ROOT
ATOM      2  O   UNL     1      -7.689 -11.813  20.050  0.00  0.00    -0.253 OA
ATOM      5  N   UNL     1      -6.358 -10.556  18.627  0.00  0.00    -0.285 N 
ATOM      7  N   UNL     1      -8.716 -10.409  18.556  0.00  0.00    -0.300 N 
ATOM      8  C   UNL     1      -5.382 -10.202  16.376  0.00  0.00    +0.016 C 
ATOM      9  C   UNL     1      -4.058 -10.827  16.891  0.00  0.00    +0.006 C 
ATOM     10  C   UNL     1      -4.299 -11.781  18.075  0.00  0.00    +0.023 C 
ATOM     11  C   UNL     1      -6.146  -9.574  17.553  0.00  0.00    +0.113 C 
ATOM     13  C   UNL     1      -5.120 -11.111  19.175  0.00  0.00    +0.109 C 
ATOM     16  C   UNL     1      -7.593 -10.981  19.141  0.00  0.00    +0.302 C 
ATOM     29  H   UNL     1      -8.643  -9.783  17.767  0.00  0.00    +0.150 HD
ENDROOT
BRANCH   7  24
ATOM     24  C   UNL     1     -10.059 -10.751  18.971  0.00  0.00    +0.102 C 
ATOM     27  C   UNL     1     -11.034  -9.633  18.667  0.00  0.00    +0.024 C 
ENDBRANCH   7  24
BRANCH   8  12
ATOM     12  C   UNL     1      -6.281 -11.182  15.615  0.00  0.00    +0.061 C 
BRANCH  12  15
ATOM      6  N   UNL     1      -8.405 -10.140  15.204  0.00  0.00    -0.287 NA
ATOM     15  C   UNL     1      -7.237 -10.421  14.728  0.00  0.00    +0.044 C 
ATOM     17  C   UNL     1      -6.797 -10.040  13.362  0.00  0.00    -0.001 A 
ATOM     19  C   UNL     1      -7.801  -9.694  12.450  0.00  0.00    -0.033 A 
ATOM     20  C   UNL     1      -9.231  -9.744  12.898  0.00  0.00    +0.059 C 
ATOM     21  C   UNL     1      -9.311  -9.347  14.367  0.00  0.00    +0.146 C 
ATOM     22  C   UNL     1      -5.455 -10.032  12.976  0.00  0.00    +0.013 A 
ATOM     23  C   UNL     1      -7.455  -9.364  11.136  0.00  0.00    +0.050 A 
ATOM     25  C   UNL     1      -5.119  -9.686  11.666  0.00  0.00    +0.046 A 
ATOM     26  C   UNL     1      -6.116  -9.356  10.748  0.00  0.00    +0.120 A 
BRANCH  26   4
ATOM      4  O   UNL     1      -5.780  -9.028   9.470  0.00  0.00    -0.495 OA
ATOM     28  C   UNL     1      -4.389  -8.934   9.168  0.00  0.00    +0.277 C 
ENDBRANCH  26   4
ENDBRANCH  12  15
ENDBRANCH   8  12
BRANCH   9  14
ATOM     14  C   UNL     1      -3.257 -11.525  15.791  0.00  0.00    +0.124 C 
BRANCH  14  18
ATOM      3  O   UNL     1      -1.752 -10.113  14.492  0.00  0.00    -0.251 OA
ATOM     18  C   UNL     1      -1.981 -10.791  15.484  0.00  0.00    +0.305 C 
BRANCH  18   1
ATOM      1  O   UNL     1      -1.087 -10.985  16.487  0.00  0.00    -0.481 OA
ATOM     30  H   UNL     1      -0.730 -10.139  16.829  0.00  0.00    +0.295 HD
ENDBRANCH  18   1
ENDBRANCH  14  18
ENDBRANCH   9  14
TORSDOF 7
ENDMDL
MODEL 7
REMARK VINA RESULT:      -6.1     26.604     29.266
REMARK  Name = 51136669
REMARK  9 active torsions:
REMARK  status: ('A' for Active; 'I' for Inactive)
REMARK    1  A    between atoms: O_1  and  C_18
REMARK    2  A    between atoms: O_4  and  C_26
REMARK    3  A    between atoms: O_4  and  C_28
REMARK    4  A    between atoms: N_7  and  C_24
REMARK    5  A    between atoms: C_8  and  C_12
REMARK    6  A    between atoms: C_9  and  C_14
REMARK    7  A    between atoms: C_12  and  C_15
REMARK    8  A    between atoms: C_14  and  C_18
REMARK    9  A    between atoms: C_24  and  C_27
REMARK                            x       y       z     vdW  Elec       q    Type
REMARK                         _______ _______ _______ _____ _____    ______ ____
ROOT
ATOM      2  O   UNL     1      -7.967  -9.392  11.751  0.00  0.00    -0.253 OA
ATOM      5  N   UNL     1      -6.450 -10.902  12.644  0.00  0.00    -0.285 N 
ATOM      7  N   UNL     1      -8.555 -10.530  13.653  0.00  0.00    -0.300 N 
ATOM      8  C   UNL     1      -4.736 -11.448  14.349  0.00  0.00    +0.016 C 
ATOM      9  C   UNL     1      -3.639 -11.130  13.298  0.00  0.00    +0.006 C 
ATOM     10  C   UNL     1      -4.146 -10.153  12.222  0.00  0.00    +0.023 C 
ATOM     11  C   UNL     1      -6.020 -11.900  13.633  0.00  0.00    +0.113 C 
ATOM     13  C   UNL     1      -5.458 -10.634  11.602  0.00  0.00    +0.109 C 
ATOM     16  C   UNL     1      -7.677 -10.221  12.621  0.00  0.00    +0.302 C 
ATOM     29  H   UNL     1      -8.294 -11.153  14.404  0.00  0.00    +0.150 HD
ENDROOT
BRANCH   7  24
ATOM     24  C   UNL     1      -9.854  -9.905  13.771  0.00  0.00    +0.102 C 
ATOM     27  C   UNL     1      -9.875  -8.877  14.882  0.00  0.00    +0.024 C 
ENDBRANCH   7  24
BRANCH   8  12
ATOM     12  C   UNL     1      -5.036 -10.291  15.308  0.00  0.00    +0.061 C 
BRANCH  12  15
ATOM      6  N   UNL     1      -3.745 -11.152  17.140  0.00  0.00    -0.287 NA
ATOM     15  C   UNL     1      -4.909 -10.762  16.737  0.00  0.00    +0.044 C 
ATOM     17  C   UNL     1      -6.116 -10.760  17.602  0.00  0.00    -0.001 A 
ATOM     19  C   UNL     1      -6.062 -11.543  18.761  0.00  0.00    -0.033 A 
ATOM     20  C   UNL     1      -4.818 -12.330  19.043  0.00  0.00    +0.059 C 
ATOM     21  C   UNL     1      -3.607 -11.551  18.545  0.00  0.00    +0.146 C 
ATOM     22  C   UNL     1      -7.267 -10.033  17.290  0.00  0.00    +0.013 A 
ATOM     23  C   UNL     1      -7.180 -11.615  19.598  0.00  0.00    +0.050 A 
ATOM     25  C   UNL     1      -8.372 -10.100  18.139  0.00  0.00    +0.046 A 
ATOM     26  C   UNL     1      -8.331 -10.891  19.287  0.00  0.00    +0.120 A 
BRANCH  26   4
ATOM      4  O   UNL     1      -9.417 -10.957  20.106  0.00  0.00    -0.495 OA
ATOM     28  C   UNL     1     -10.437 -11.891  19.757  0.00  0.00    +0.277 C 
ENDBRANCH  26   4
ENDBRANCH  12  15
ENDBRANCH   8  12
BRANCH   9  14
ATOM     14  C   UNL     1      -2.341 -10.619  13.922  0.00  0.00    +0.124 C 
BRANCH  14  18
ATOM      3  O   UNL     1      -1.320 -12.827  14.081  0.00  0.00    -0.251 OA
ATOM     18  C   UNL     1      -1.559 -11.730  14.565  0.00  0.00    +0.305 C 
BRANCH  18   1
ATOM      1  O   UNL     1      -1.140 -11.342  15.797  0.00  0.00    -0.481 OA
ATOM     30  H   UNL     1      -0.610 -10.518  15.760  0.00  0.00    +0.295 HD
ENDBRANCH  18   1
ENDBRANCH  14  18
ENDBRANCH   9  14
TORSDOF 7
ENDMDL
MODEL 8
REMARK VINA RESULT:      -6.1     25.830     28.879
REMARK  Name = 51136669
REMARK  9 active torsions:
REMARK  status: ('A' for Active; 'I' for Inactive)
REMARK    1  A    between atoms: O_1  and  C_18
REMARK    2  A    between atoms: O_4  and  C_26
REMARK    3  A    between atoms: O_4  and  C_28
REMARK    4  A    between atoms: N_7  and  C_24
REMARK    5  A    between atoms: C_8  and  C_12
REMARK    6  A    between atoms: C_9  and  C_14
REMARK    7  A    between atoms: C_12  and  C_15
REMARK    8  A    between atoms: C_14  and  C_18
REMARK    9  A    between atoms: C_24  and  C_27
REMARK                            x       y       z     vdW  Elec       q    Type
REMARK                         _______ _______ _______ _____ _____    ______ ____
ROOT
ATOM      2  O   UNL     1      -7.925 -11.557  18.694  0.00  0.00    -0.253 OA
ATOM      5  N   UNL     1      -6.325 -10.399  17.479  0.00  0.00    -0.285 N 
ATOM      7  N   UNL     1      -8.531 -10.659  16.673  0.00  0.00    -0.300 N 
ATOM      8  C   UNL     1      -4.701 -10.335  15.607  0.00  0.00    +0.016 C 
ATOM      9  C   UNL     1      -3.567 -10.622  16.627  0.00  0.00    +0.006 C 
ATOM     10  C   UNL     1      -4.093 -11.353  17.875  0.00  0.00    +0.023 C 
ATOM     11  C   UNL     1      -5.865  -9.625  16.317  0.00  0.00    +0.113 C 
ATOM     13  C   UNL     1      -5.289 -10.625  18.488  0.00  0.00    +0.109 C 
ATOM     16  C   UNL     1      -7.614 -10.913  17.686  0.00  0.00    +0.302 C 
ATOM     29  H   UNL     1      -8.263 -10.195  15.817  0.00  0.00    +0.150 HD
ENDROOT
BRANCH   7  24
ATOM     24  C   UNL     1      -9.898 -11.130  16.735  0.00  0.00    +0.102 C 
ATOM     27  C   UNL     1     -10.742 -10.529  15.632  0.00  0.00    +0.024 C 
ENDBRANCH   7  24
BRANCH   8  12
ATOM     12  C   UNL     1      -5.204 -11.579  14.866  0.00  0.00    +0.061 C 
BRANCH  12  15
ATOM      6  N   UNL     1      -3.710 -12.586  13.279  0.00  0.00    -0.287 NA
ATOM     15  C   UNL     1      -4.576 -11.651  13.495  0.00  0.00    +0.044 C 
ATOM     17  C   UNL     1      -4.974 -10.651  12.472  0.00  0.00    -0.001 A 
ATOM     19  C   UNL     1      -4.119 -10.499  11.374  0.00  0.00    -0.033 A 
ATOM     20  C   UNL     1      -2.873 -11.329  11.309  0.00  0.00    +0.059 C 
ATOM     21  C   UNL     1      -3.146 -12.694  11.930  0.00  0.00    +0.146 C 
ATOM     22  C   UNL     1      -6.131  -9.877  12.583  0.00  0.00    +0.013 A 
ATOM     23  C   UNL     1      -4.417  -9.546  10.395  0.00  0.00    +0.050 A 
ATOM     25  C   UNL     1      -6.427  -8.939  11.593  0.00  0.00    +0.046 A 
ATOM     26  C   UNL     1      -5.572  -8.771  10.504  0.00  0.00    +0.120 A 
BRANCH  26   4
ATOM      4  O   UNL     1      -5.864  -7.848   9.547  0.00  0.00    -0.495 OA
ATOM     28  C   UNL     1      -7.071  -8.035   8.811  0.00  0.00    +0.277 C 
ENDBRANCH  26   4
ENDBRANCH  12  15
ENDBRANCH   8  12
BRANCH   9  14
ATOM     14  C   UNL     1      -2.388 -11.378  16.015  0.00  0.00    +0.124 C 
BRANCH  14  18
ATOM      3  O   UNL     1      -1.541  -9.924  14.251  0.00  0.00    -0.251 OA
ATOM     18  C   UNL     1      -1.415 -10.445  15.350  0.00  0.00    +0.305 C 
BRANCH  18   1
ATOM      1  O   UNL     1      -0.341 -10.250  16.158  0.00  0.00    -0.481 OA
ATOM     30  H   UNL     1       0.484 -10.120  15.644  0.00  0.00    +0.295 HD
ENDBRANCH  18   1
ENDBRANCH  14  18
ENDBRANCH   9  14
TORSDOF 7
ENDMDL
MODEL 9
REMARK VINA RESULT:      -6.1     12.441     16.546
REMARK  Name = 51136669
REMARK  9 active torsions:
REMARK  status: ('A' for Active; 'I' for Inactive)
REMARK    1  A    between atoms: O_1  and  C_18
REMARK    2  A    between atoms: O_4  and  C_26
REMARK    3  A    between atoms: O_4  and  C_28
REMARK    4  A    between atoms: N_7  and  C_24
REMARK    5  A    between atoms: C_8  and  C_12
REMARK    6  A    between atoms: C_9  and  C_14
REMARK    7  A    between atoms: C_12  and  C_15
REMARK    8  A    between atoms: C_14  and  C_18
REMARK    9  A    between atoms: C_24  and  C_27
REMARK                            x       y       z     vdW  Elec       q    Type
REMARK                         _______ _______ _______ _____ _____    ______ ____
ROOT
ATOM      2  O   UNL     1      10.114  11.270   5.765  0.00  0.00    -0.253 OA
ATOM      5  N   UNL     1      10.908   9.189   6.412  0.00  0.00    -0.285 N 
ATOM      7  N   UNL     1      11.045   9.915   4.166  0.00  0.00    -0.300 N 
ATOM      8  C   UNL     1      10.603   6.732   6.530  0.00  0.00    +0.016 C 
ATOM      9  C   UNL     1      10.140   6.896   8.002  0.00  0.00    +0.006 C 
ATOM     10  C   UNL     1       9.562   8.298   8.267  0.00  0.00    +0.023 C 
ATOM     11  C   UNL     1      11.544   7.889   6.155  0.00  0.00    +0.113 C 
ATOM     13  C   UNL     1      10.522   9.395   7.809  0.00  0.00    +0.109 C 
ATOM     16  C   UNL     1      10.654  10.198   5.470  0.00  0.00    +0.302 C 
ATOM     29  H   UNL     1      11.422   9.014   3.909  0.00  0.00    +0.150 HD
ENDROOT
BRANCH   7  24
ATOM     24  C   UNL     1      10.844  10.850   3.082  0.00  0.00    +0.102 C 
ATOM     27  C   UNL     1      11.781  10.569   1.926  0.00  0.00    +0.024 C 
ENDBRANCH   7  24
BRANCH   8  12
ATOM     12  C   UNL     1       9.454   6.627   5.522  0.00  0.00    +0.061 C 
BRANCH  12  15
ATOM      6  N   UNL     1      10.623   4.951   4.261  0.00  0.00    -0.287 NA
ATOM     15  C   UNL     1       9.965   6.062   4.218  0.00  0.00    +0.044 C 
ATOM     17  C   UNL     1       9.694   6.804   2.961  0.00  0.00    -0.001 A 
ATOM     19  C   UNL     1      10.487   6.478   1.854  0.00  0.00    -0.033 A 
ATOM     20  C   UNL     1      11.548   5.431   2.009  0.00  0.00    +0.059 C 
ATOM     21  C   UNL     1      11.066   4.370   2.990  0.00  0.00    +0.146 C 
ATOM     22  C   UNL     1       8.713   7.793   2.865  0.00  0.00    +0.013 A 
ATOM     23  C   UNL     1      10.309   7.169   0.651  0.00  0.00    +0.050 A 
ATOM     25  C   UNL     1       8.533   8.466   1.655  0.00  0.00    +0.046 A 
ATOM     26  C   UNL     1       9.330   8.158   0.553  0.00  0.00    +0.120 A 
BRANCH  26   4
ATOM      4  O   UNL     1       9.153   8.825  -0.621  0.00  0.00    -0.495 OA
ATOM     28  C   UNL     1       8.450   8.142  -1.657  0.00  0.00    +0.277 C 
ENDBRANCH  26   4
ENDBRANCH  12  15
ENDBRANCH   8  12
BRANCH   9  14
ATOM     14  C   UNL     1       9.155   5.814   8.445  0.00  0.00    +0.124 C 
BRANCH  14  18
ATOM      3  O   UNL     1       9.999   4.677  10.429  0.00  0.00    -0.251 OA
ATOM     18  C   UNL     1       9.840   4.722   9.218  0.00  0.00    +0.305 C 
BRANCH  18   1
ATOM      1  O   UNL     1      10.274   3.759   8.364  0.00  0.00    -0.481 OA
ATOM     30  H   UNL     1      11.103   3.340   8.676  0.00  0.00    +0.295 HD
ENDBRANCH  18   1
ENDBRANCH  14  18
ENDBRANCH   9  14
TORSDOF 7
ENDMDL
MODEL 10
REMARK VINA RESULT:      -6.0      4.013      5.451
REMARK  Name = 51136669
REMARK  9 active torsions:
REMARK  status: ('A' for Active; 'I' for Inactive)
REMARK    1  A    between atoms: O_1  and  C_18
REMARK    2  A    between atoms: O_4  and  C_26
REMARK    3  A    between atoms: O_4  and  C_28
REMARK    4  A    between atoms: N_7  and  C_24
REMARK    5  A    between atoms: C_8  and  C_12
REMARK    6  A    between atoms: C_9  and  C_14
REMARK    7  A    between atoms: C_12  and  C_15
REMARK    8  A    between atoms: C_14  and  C_18
REMARK    9  A    between atoms: C_24  and  C_27
REMARK                            x       y       z     vdW  Elec       q    Type
REMARK                         _______ _______ _______ _____ _____    ______ ____
ROOT
ATOM      2  O   UNL     1      14.534  14.972  19.407  0.00  0.00    -0.253 OA
ATOM      5  N   UNL     1      14.305  13.449  21.141  0.00  0.00    -0.285 N 
ATOM      7  N   UNL     1      15.258  12.823  19.070  0.00  0.00    -0.300 N 
ATOM      8  C   UNL     1      13.086  11.548  22.163  0.00  0.00    +0.016 C 
ATOM      9  C   UNL     1      12.366  12.558  23.097  0.00  0.00    +0.006 C 
ATOM     10  C   UNL     1      12.307  13.966  22.478  0.00  0.00    +0.023 C 
ATOM     11  C   UNL     1      14.452  12.117  21.745  0.00  0.00    +0.113 C 
ATOM     13  C   UNL     1      13.689  14.437  22.026  0.00  0.00    +0.109 C 
ATOM     16  C   UNL     1      14.690  13.827  19.845  0.00  0.00    +0.302 C 
ATOM     29  H   UNL     1      15.322  11.870  19.399  0.00  0.00    +0.150 HD
ENDROOT
BRANCH   7  24
ATOM     24  C   UNL     1      15.698  13.055  17.712  0.00  0.00    +0.102 C 
ATOM     27  C   UNL     1      15.501  11.827  16.848  0.00  0.00    +0.024 C 
ENDBRANCH   7  24
BRANCH   8  12
ATOM     12  C   UNL     1      12.271  11.149  20.928  0.00  0.00    +0.061 C 
BRANCH  12  15
ATOM      6  N   UNL     1      10.967   9.199  21.440  0.00  0.00    -0.287 NA
ATOM     15  C   UNL     1      12.056   9.655  20.914  0.00  0.00    +0.044 C 
ATOM     17  C   UNL     1      13.097   8.787  20.309  0.00  0.00    -0.001 A 
ATOM     19  C   UNL     1      13.062   7.429  20.649  0.00  0.00    -0.033 A 
ATOM     20  C   UNL     1      12.003   6.950  21.596  0.00  0.00    +0.059 C 
ATOM     21  C   UNL     1      10.728   7.754  21.373  0.00  0.00    +0.146 C 
ATOM     22  C   UNL     1      14.084   9.278  19.452  0.00  0.00    +0.013 A 
ATOM     23  C   UNL     1      14.039   6.566  20.144  0.00  0.00    +0.050 A 
ATOM     25  C   UNL     1      15.046   8.405  18.941  0.00  0.00    +0.046 A 
ATOM     26  C   UNL     1      15.026   7.054  19.288  0.00  0.00    +0.120 A 
BRANCH  26   4
ATOM      4  O   UNL     1      15.973   6.211  18.792  0.00  0.00    -0.495 OA
ATOM     28  C   UNL     1      17.249   6.220  19.429  0.00  0.00    +0.277 C 
ENDBRANCH  26   4
ENDBRANCH  12  15
ENDBRANCH   8  12
BRANCH   9  14
ATOM     14  C   UNL     1      10.971  12.096  23.518  0.00  0.00    +0.124 C 
BRANCH  14  18
ATOM      3  O   UNL     1      10.418  12.756  25.799  0.00  0.00    -0.251 OA
ATOM     18  C   UNL     1      10.867  11.937  25.010  0.00  0.00    +0.305 C 
BRANCH  18   1
ATOM      1  O   UNL     1      11.353  10.724  25.377  0.00  0.00    -0.481 OA
ATOM     30  H   UNL     1      10.670  10.023  25.318  0.00  0.00    +0.295 HD
ENDBRANCH  18   1
ENDBRANCH  14  18
ENDBRANCH   9  14
TORSDOF 7
ENDMDL
