MODEL 1
REMARK VINA RESULT:      -7.0      0.000      0.000
REMARK  Name = 51136761
REMARK  11 active torsions:
REMARK  status: ('A' for Active; 'I' for Inactive)
REMARK    1  A    between atoms: S_1  and  N_6
REMARK    2  A    between atoms: S_1  and  C_19
REMARK    3  A    between atoms: O_4  and  C_17
REMARK    4  A    between atoms: C_8  and  C_13
REMARK    5  A    between atoms: C_9  and  C_14
REMARK    6  A    between atoms: C_13  and  C_15
REMARK    7  A    between atoms: C_14  and  C_17
REMARK    8  A    between atoms: C_23  and  C_24
REMARK    9  A    between atoms: C_24  and  C_27
REMARK   10  A    between atoms: C_24  and  C_28
REMARK   11  A    between atoms: C_24  and  C_29
REMARK                            x       y       z     vdW  Elec       q    Type
REMARK                         _______ _______ _______ _____ _____    ______ ____
ROOT
ATOM      6  N   UNL     1      10.055   8.625   6.509  0.00  0.00    -0.181 NA
ATOM      8  C   UNL     1      10.375   6.171   6.718  0.00  0.00    +0.014 C 
ATOM      9  C   UNL     1       9.895   6.255   8.187  0.00  0.00    +0.006 C 
ATOM     10  C   UNL     1      11.017   7.503   6.300  0.00  0.00    +0.113 C 
ATOM     11  C   UNL     1       8.987   7.474   8.411  0.00  0.00    +0.021 C 
ATOM     12  C   UNL     1       9.654   8.761   7.938  0.00  0.00    +0.109 C 
ENDROOT
BRANCH   6   1
ATOM      1  S   UNL     1      10.458  10.092   5.718  0.00  0.00    +0.029 S 
ATOM      2  O   UNL     1       9.301  10.961   5.735  0.00  0.00    -0.158 OA
ATOM      3  O   UNL     1      11.158   9.780   4.492  0.00  0.00    -0.158 OA
ATOM     19  C   UNL     1      11.639  10.725   6.881  0.00  0.00    +0.215 C 
ENDBRANCH   6   1
BRANCH   8  13
ATOM     13  C   UNL     1       9.279   5.767   5.724  0.00  0.00    +0.060 C 
BRANCH  13  15
ATOM      7  N   UNL     1      10.536   4.399   4.203  0.00  0.00    -0.287 NA
ATOM     15  C   UNL     1       9.888   5.504   4.367  0.00  0.00    +0.044 C 
ATOM     16  C   UNL     1       9.721   6.523   3.300  0.00  0.00    -0.001 A 
ATOM     18  C   UNL     1      10.598   6.443   2.209  0.00  0.00    -0.037 A 
ATOM     20  C   UNL     1      11.637   5.362   2.199  0.00  0.00    +0.059 C 
ATOM     21  C   UNL     1      11.075   4.115   2.868  0.00  0.00    +0.146 C 
ATOM     22  C   UNL     1       8.757   7.530   3.360  0.00  0.00    +0.014 A 
ATOM     23  C   UNL     1       8.677   8.468   2.329  0.00  0.00    -0.041 A 
ATOM     25  C   UNL     1      10.520   7.397   1.190  0.00  0.00    +0.004 A 
ATOM     26  C   UNL     1       9.557   8.404   1.249  0.00  0.00    +0.004 A 
BRANCH  23  24
ATOM     24  C   UNL     1       7.642   9.541   2.380  0.00  0.00    -0.013 C 
ATOM     27  C   UNL     1       8.293  10.958   2.302  0.00  0.00    +0.015 C 
ATOM     28  C   UNL     1       6.822   9.473   3.706  0.00  0.00    +0.015 C 
ATOM     29  C   UNL     1       6.581   9.507   1.232  0.00  0.00    +0.015 C 
ENDBRANCH  23  24
ENDBRANCH  13  15
ENDBRANCH   8  13
BRANCH   9  14
ATOM     14  C   UNL     1       9.211   4.977   8.670  0.00  0.00    +0.124 C 
BRANCH  14  17
ATOM      5  O   UNL     1      10.427   4.644  10.755  0.00  0.00    -0.251 OA
ATOM     17  C   UNL     1       9.374   4.785  10.152  0.00  0.00    +0.305 C 
BRANCH  17   4
ATOM      4  O   UNL     1       8.156   4.790  10.753  0.00  0.00    -0.481 OA
ATOM     30  H   UNL     1       7.433   4.955  10.112  0.00  0.00    +0.295 HD
ENDBRANCH  17   4
ENDBRANCH  14  17
ENDBRANCH   9  14
TORSDOF 7
ENDMDL
MODEL 2
REMARK VINA RESULT:      -6.2     14.321     17.929
REMARK  Name = 51136761
REMARK  11 active torsions:
REMARK  status: ('A' for Active; 'I' for Inactive)
REMARK    1  A    between atoms: S_1  and  N_6
REMARK    2  A    between atoms: S_1  and  C_19
REMARK    3  A    between atoms: O_4  and  C_17
REMARK    4  A    between atoms: C_8  and  C_13
REMARK    5  A    between atoms: C_9  and  C_14
REMARK    6  A    between atoms: C_13  and  C_15
REMARK    7  A    between atoms: C_14  and  C_17
REMARK    8  A    between atoms: C_23  and  C_24
REMARK    9  A    between atoms: C_24  and  C_27
REMARK   10  A    between atoms: C_24  and  C_28
REMARK   11  A    between atoms: C_24  and  C_29
REMARK                            x       y       z     vdW  Elec       q    Type
REMARK                         _______ _______ _______ _____ _____    ______ ____
ROOT
ATOM      6  N   UNL     1      17.948   7.216  21.262  0.00  0.00    -0.181 NA
ATOM      8  C   UNL     1      15.699   8.105  20.697  0.00  0.00    +0.014 C 
ATOM      9  C   UNL     1      15.771   7.366  19.339  0.00  0.00    +0.006 C 
ATOM     10  C   UNL     1      17.115   8.452  21.180  0.00  0.00    +0.113 C 
ATOM     11  C   UNL     1      16.713   6.155  19.409  0.00  0.00    +0.021 C 
ATOM     12  C   UNL     1      18.089   6.547  19.937  0.00  0.00    +0.109 C 
ENDROOT
BRANCH   6   1
ATOM      1  S   UNL     1      19.398   7.368  22.164  0.00  0.00    +0.029 S 
ATOM      2  O   UNL     1      19.543   6.203  23.009  0.00  0.00    -0.158 OA
ATOM      3  O   UNL     1      19.474   8.710  22.697  0.00  0.00    -0.158 OA
ATOM     19  C   UNL     1      20.570   7.235  20.839  0.00  0.00    +0.215 C 
ENDBRANCH   6   1
BRANCH   8  13
ATOM     13  C   UNL     1      14.932   7.341  21.784  0.00  0.00    +0.060 C 
BRANCH  13  15
ATOM      7  N   UNL     1      12.619   6.753  21.513  0.00  0.00    -0.287 NA
ATOM     15  C   UNL     1      13.467   7.704  21.729  0.00  0.00    +0.044 C 
ATOM     16  C   UNL     1      13.075   9.123  21.917  0.00  0.00    -0.001 A 
ATOM     18  C   UNL     1      11.792   9.486  21.485  0.00  0.00    -0.037 A 
ATOM     20  C   UNL     1      10.920   8.439  20.859  0.00  0.00    +0.059 C 
ATOM     21  C   UNL     1      11.192   7.094  21.521  0.00  0.00    +0.146 C 
ATOM     22  C   UNL     1      13.927  10.075  22.481  0.00  0.00    +0.014 A 
ATOM     23  C   UNL     1      13.497  11.397  22.602  0.00  0.00    -0.041 A 
ATOM     25  C   UNL     1      11.377  10.816  21.595  0.00  0.00    +0.004 A 
ATOM     26  C   UNL     1      12.227  11.768  22.159  0.00  0.00    +0.004 A 
BRANCH  23  24
ATOM     24  C   UNL     1      14.397  12.418  23.212  0.00  0.00    -0.013 C 
ATOM     27  C   UNL     1      15.012  11.901  24.551  0.00  0.00    +0.015 C 
ATOM     28  C   UNL     1      13.625  13.737  23.528  0.00  0.00    +0.015 C 
ATOM     29  C   UNL     1      15.617  12.850  22.334  0.00  0.00    +0.015 C 
ENDBRANCH  23  24
ENDBRANCH  13  15
ENDBRANCH   8  13
BRANCH   9  14
ATOM     14  C   UNL     1      14.400   6.953  18.805  0.00  0.00    +0.124 C 
BRANCH  14  17
ATOM      5  O   UNL     1      13.271   9.058  18.321  0.00  0.00    -0.251 OA
ATOM     17  C   UNL     1      13.796   8.024  17.938  0.00  0.00    +0.305 C 
BRANCH  17   4
ATOM      4  O   UNL     1      13.915   7.677  16.631  0.00  0.00    -0.481 OA
ATOM     30  H   UNL     1      14.705   7.119  16.471  0.00  0.00    +0.295 HD
ENDBRANCH  17   4
ENDBRANCH  14  17
ENDBRANCH   9  14
TORSDOF 7
ENDMDL
MODEL 3
REMARK VINA RESULT:      -6.1     23.249     25.699
REMARK  Name = 51136761
REMARK  11 active torsions:
REMARK  status: ('A' for Active; 'I' for Inactive)
REMARK    1  A    between atoms: S_1  and  N_6
REMARK    2  A    between atoms: S_1  and  C_19
REMARK    3  A    between atoms: O_4  and  C_17
REMARK    4  A    between atoms: C_8  and  C_13
REMARK    5  A    between atoms: C_9  and  C_14
REMARK    6  A    between atoms: C_13  and  C_15
REMARK    7  A    between atoms: C_14  and  C_17
REMARK    8  A    between atoms: C_23  and  C_24
REMARK    9  A    between atoms: C_24  and  C_27
REMARK   10  A    between atoms: C_24  and  C_28
REMARK   11  A    between atoms: C_24  and  C_29
REMARK                            x       y       z     vdW  Elec       q    Type
REMARK                         _______ _______ _______ _____ _____    ______ ____
ROOT
ATOM      6  N   UNL     1      -8.116 -10.278  15.908  0.00  0.00    -0.181 NA
ATOM      8  C   UNL     1      -5.755 -10.588  16.618  0.00  0.00    +0.014 C 
ATOM      9  C   UNL     1      -6.245 -11.487  17.779  0.00  0.00    +0.006 C 
ATOM     10  C   UNL     1      -6.846  -9.571  16.248  0.00  0.00    +0.113 C 
ATOM     11  C   UNL     1      -7.603 -12.128  17.457  0.00  0.00    +0.021 C 
ATOM     12  C   UNL     1      -8.634 -11.080  17.053  0.00  0.00    +0.109 C 
ENDROOT
BRANCH   6   1
ATOM      1  S   UNL     1      -9.285  -9.331  15.087  0.00  0.00    +0.029 S 
ATOM      2  O   UNL     1      -8.992  -9.358  13.671  0.00  0.00    -0.158 OA
ATOM      3  O   UNL     1      -9.461  -8.089  15.805  0.00  0.00    -0.158 OA
ATOM     19  C   UNL     1     -10.716 -10.340  15.373  0.00  0.00    +0.215 C 
ENDBRANCH   6   1
BRANCH   8  13
ATOM     13  C   UNL     1      -5.301 -11.364  15.376  0.00  0.00    +0.060 C 
BRANCH  13  15
ATOM      7  N   UNL     1      -3.036 -11.104  16.133  0.00  0.00    -0.287 NA
ATOM     15  C   UNL     1      -3.835 -11.106  15.118  0.00  0.00    +0.044 C 
ATOM     16  C   UNL     1      -3.387 -10.861  13.723  0.00  0.00    -0.001 A 
ATOM     18  C   UNL     1      -2.134 -10.255  13.561  0.00  0.00    -0.037 A 
ATOM     20  C   UNL     1      -1.349  -9.885  14.783  0.00  0.00    +0.059 C 
ATOM     21  C   UNL     1      -1.604 -10.914  15.876  0.00  0.00    +0.146 C 
ATOM     22  C   UNL     1      -4.161 -11.196  12.611  0.00  0.00    +0.014 A 
ATOM     23  C   UNL     1      -3.684 -10.912  11.330  0.00  0.00    -0.041 A 
ATOM     25  C   UNL     1      -1.673  -9.959  12.274  0.00  0.00    +0.004 A 
ATOM     26  C   UNL     1      -2.445 -10.294  11.162  0.00  0.00    +0.004 A 
BRANCH  23  24
ATOM     24  C   UNL     1      -4.500 -11.276  10.136  0.00  0.00    -0.013 C 
ATOM     27  C   UNL     1      -4.033 -12.634   9.524  0.00  0.00    +0.015 C 
ATOM     28  C   UNL     1      -4.384 -10.193   9.019  0.00  0.00    +0.015 C 
ATOM     29  C   UNL     1      -6.034 -11.443  10.396  0.00  0.00    +0.015 C 
ENDBRANCH  23  24
ENDBRANCH  13  15
ENDBRANCH   8  13
BRANCH   9  14
ATOM     14  C   UNL     1      -5.228 -12.553  18.185  0.00  0.00    +0.124 C 
BRANCH  14  17
ATOM      5  O   UNL     1      -4.778 -11.693  20.420  0.00  0.00    -0.251 OA
ATOM     17  C   UNL     1      -4.378 -12.099  19.340  0.00  0.00    +0.305 C 
BRANCH  17   4
ATOM      4  O   UNL     1      -3.065 -12.205  19.013  0.00  0.00    -0.481 OA
ATOM     30  H   UNL     1      -2.517 -12.473  19.780  0.00  0.00    +0.295 HD
ENDBRANCH  17   4
ENDBRANCH  14  17
ENDBRANCH   9  14
TORSDOF 7
ENDMDL
MODEL 4
REMARK VINA RESULT:      -6.0     15.737     18.586
REMARK  Name = 51136761
REMARK  11 active torsions:
REMARK  status: ('A' for Active; 'I' for Inactive)
REMARK    1  A    between atoms: S_1  and  N_6
REMARK    2  A    between atoms: S_1  and  C_19
REMARK    3  A    between atoms: O_4  and  C_17
REMARK    4  A    between atoms: C_8  and  C_13
REMARK    5  A    between atoms: C_9  and  C_14
REMARK    6  A    between atoms: C_13  and  C_15
REMARK    7  A    between atoms: C_14  and  C_17
REMARK    8  A    between atoms: C_23  and  C_24
REMARK    9  A    between atoms: C_24  and  C_27
REMARK   10  A    between atoms: C_24  and  C_28
REMARK   11  A    between atoms: C_24  and  C_29
REMARK                            x       y       z     vdW  Elec       q    Type
REMARK                         _______ _______ _______ _____ _____    ______ ____
ROOT
ATOM      6  N   UNL     1      12.595   8.778  21.421  0.00  0.00    -0.181 NA
ATOM      8  C   UNL     1      14.900   9.095  20.552  0.00  0.00    +0.014 C 
ATOM      9  C   UNL     1      14.939  10.489  21.224  0.00  0.00    +0.006 C 
ATOM     10  C   UNL     1      13.451   8.725  20.200  0.00  0.00    +0.113 C 
ATOM     11  C   UNL     1      13.975  10.563  22.418  0.00  0.00    +0.021 C 
ATOM     12  C   UNL     1      12.564  10.141  22.024  0.00  0.00    +0.109 C 
ENDROOT
BRANCH   6   1
ATOM      1  S   UNL     1      11.072   8.004  21.283  0.00  0.00    +0.029 S 
ATOM      2  O   UNL     1      10.507   8.320  19.990  0.00  0.00    -0.158 OA
ATOM      3  O   UNL     1      10.333   8.212  22.508  0.00  0.00    -0.158 OA
ATOM     19  C   UNL     1      11.616   6.315  21.248  0.00  0.00    +0.215 C 
ENDBRANCH   6   1
BRANCH   8  13
ATOM     13  C   UNL     1      15.553   7.983  21.382  0.00  0.00    +0.060 C 
BRANCH  13  15
ATOM      7  N   UNL     1      16.064   6.564  19.513  0.00  0.00    -0.287 NA
ATOM     15  C   UNL     1      16.532   7.213  20.527  0.00  0.00    +0.044 C 
ATOM     16  C   UNL     1      17.970   7.231  20.895  0.00  0.00    -0.001 A 
ATOM     18  C   UNL     1      18.775   6.226  20.342  0.00  0.00    -0.037 A 
ATOM     20  C   UNL     1      18.141   5.208  19.443  0.00  0.00    +0.059 C 
ATOM     21  C   UNL     1      17.022   5.866  18.647  0.00  0.00    +0.146 C 
ATOM     22  C   UNL     1      18.518   8.182  21.758  0.00  0.00    +0.014 A 
ATOM     23  C   UNL     1      19.875   8.120  22.078  0.00  0.00    -0.041 A 
ATOM     25  C   UNL     1      20.130   6.163  20.681  0.00  0.00    +0.004 A 
ATOM     26  C   UNL     1      20.679   7.113  21.543  0.00  0.00    +0.004 A 
BRANCH  23  24
ATOM     24  C   UNL     1      20.470   9.139  22.990  0.00  0.00    -0.013 C 
ATOM     27  C   UNL     1      21.908   9.538  22.532  0.00  0.00    +0.015 C 
ATOM     28  C   UNL     1      20.576   8.598  24.450  0.00  0.00    +0.015 C 
ATOM     29  C   UNL     1      19.681  10.485  23.102  0.00  0.00    +0.015 C 
ENDBRANCH  23  24
ENDBRANCH  13  15
ENDBRANCH   8  13
BRANCH   9  14
ATOM     14  C   UNL     1      16.346  10.918  21.639  0.00  0.00    +0.124 C 
BRANCH  14  17
ATOM      5  O   UNL     1      16.545  12.440  23.531  0.00  0.00    -0.251 OA
ATOM     17  C   UNL     1      16.336  12.246  22.343  0.00  0.00    +0.305 C 
BRANCH  17   4
ATOM      4  O   UNL     1      16.057  13.234  21.455  0.00  0.00    -0.481 OA
ATOM     30  H   UNL     1      15.361  13.839  21.788  0.00  0.00    +0.295 HD
ENDBRANCH  17   4
ENDBRANCH  14  17
ENDBRANCH   9  14
TORSDOF 7
ENDMDL
MODEL 5
REMARK VINA RESULT:      -5.9     31.917     34.849
REMARK  Name = 51136761
REMARK  11 active torsions:
REMARK  status: ('A' for Active; 'I' for Inactive)
REMARK    1  A    between atoms: S_1  and  N_6
REMARK    2  A    between atoms: S_1  and  C_19
REMARK    3  A    between atoms: O_4  and  C_17
REMARK    4  A    between atoms: C_8  and  C_13
REMARK    5  A    between atoms: C_9  and  C_14
REMARK    6  A    between atoms: C_13  and  C_15
REMARK    7  A    between atoms: C_14  and  C_17
REMARK    8  A    between atoms: C_23  and  C_24
REMARK    9  A    between atoms: C_24  and  C_27
REMARK   10  A    between atoms: C_24  and  C_28
REMARK   11  A    between atoms: C_24  and  C_29
REMARK                            x       y       z     vdW  Elec       q    Type
REMARK                         _______ _______ _______ _____ _____    ______ ____
ROOT
ATOM      6  N   UNL     1       3.429 -13.197  35.121  0.00  0.00    -0.181 NA
ATOM      8  C   UNL     1       4.030 -10.797  35.347  0.00  0.00    +0.014 C 
ATOM      9  C   UNL     1       3.607 -10.853  36.835  0.00  0.00    +0.006 C 
ATOM     10  C   UNL     1       3.237 -11.836  34.539  0.00  0.00    +0.113 C 
ATOM     11  C   UNL     1       3.712 -12.281  37.394  0.00  0.00    +0.021 C 
ATOM     12  C   UNL     1       2.946 -13.277  36.528  0.00  0.00    +0.109 C 
ENDROOT
BRANCH   6   1
ATOM      1  S   UNL     1       2.960 -14.499  34.110  0.00  0.00    +0.029 S 
ATOM      2  O   UNL     1       1.574 -14.817  34.377  0.00  0.00    -0.158 OA
ATOM      3  O   UNL     1       3.993 -15.509  34.146  0.00  0.00    -0.158 OA
ATOM     19  C   UNL     1       3.044 -13.681  32.538  0.00  0.00    +0.215 C 
ENDBRANCH   6   1
BRANCH   8  13
ATOM     13  C   UNL     1       5.536 -10.972  35.118  0.00  0.00    +0.060 C 
BRANCH  13  15
ATOM      7  N   UNL     1       6.257  -8.686  34.977  0.00  0.00    -0.287 NA
ATOM     15  C   UNL     1       6.078  -9.796  34.341  0.00  0.00    +0.044 C 
ATOM     16  C   UNL     1       6.368  -9.967  32.895  0.00  0.00    -0.001 A 
ATOM     18  C   UNL     1       6.490  -8.798  32.133  0.00  0.00    -0.037 A 
ATOM     20  C   UNL     1       6.308  -7.474  32.813  0.00  0.00    +0.059 C 
ATOM     21  C   UNL     1       6.840  -7.561  34.237  0.00  0.00    +0.146 C 
ATOM     22  C   UNL     1       6.503 -11.221  32.295  0.00  0.00    +0.014 A 
ATOM     23  C   UNL     1       6.751 -11.303  30.923  0.00  0.00    -0.041 A 
ATOM     25  C   UNL     1       6.722  -8.891  30.758  0.00  0.00    +0.004 A 
ATOM     26  C   UNL     1       6.858 -10.143  30.157  0.00  0.00    +0.004 A 
BRANCH  23  24
ATOM     24  C   UNL     1       6.908 -12.637  30.276  0.00  0.00    -0.013 C 
ATOM     27  C   UNL     1       7.799 -12.545  28.998  0.00  0.00    +0.015 C 
ATOM     28  C   UNL     1       5.527 -13.223  29.845  0.00  0.00    +0.015 C 
ATOM     29  C   UNL     1       7.569 -13.742  31.165  0.00  0.00    +0.015 C 
ENDBRANCH  23  24
ENDBRANCH  13  15
ENDBRANCH   8  13
BRANCH   9  14
ATOM     14  C   UNL     1       4.377  -9.872  37.717  0.00  0.00    +0.124 C 
BRANCH  14  17
ATOM      5  O   UNL     1       2.610  -8.239  38.104  0.00  0.00    -0.251 OA
ATOM     17  C   UNL     1       3.738  -8.511  37.723  0.00  0.00    +0.305 C 
BRANCH  17   4
ATOM      4  O   UNL     1       4.610  -7.592  37.232  0.00  0.00    -0.481 OA
ATOM     30  H   UNL     1       4.361  -7.296  36.331  0.00  0.00    +0.295 HD
ENDBRANCH  17   4
ENDBRANCH  14  17
ENDBRANCH   9  14
TORSDOF 7
ENDMDL
MODEL 6
REMARK VINA RESULT:      -5.9     25.874     28.807
REMARK  Name = 51136761
REMARK  11 active torsions:
REMARK  status: ('A' for Active; 'I' for Inactive)
REMARK    1  A    between atoms: S_1  and  N_6
REMARK    2  A    between atoms: S_1  and  C_19
REMARK    3  A    between atoms: O_4  and  C_17
REMARK    4  A    between atoms: C_8  and  C_13
REMARK    5  A    between atoms: C_9  and  C_14
REMARK    6  A    between atoms: C_13  and  C_15
REMARK    7  A    between atoms: C_14  and  C_17
REMARK    8  A    between atoms: C_23  and  C_24
REMARK    9  A    between atoms: C_24  and  C_27
REMARK   10  A    between atoms: C_24  and  C_28
REMARK   11  A    between atoms: C_24  and  C_29
REMARK                            x       y       z     vdW  Elec       q    Type
REMARK                         _______ _______ _______ _____ _____    ______ ____
ROOT
ATOM      6  N   UNL     1     -11.617   8.681  19.159  0.00  0.00    -0.181 NA
ATOM      8  C   UNL     1     -13.461   8.643  20.822  0.00  0.00    +0.014 C 
ATOM      9  C   UNL     1     -13.319   7.104  20.914  0.00  0.00    +0.006 C 
ATOM     10  C   UNL     1     -13.014   9.128  19.434  0.00  0.00    +0.113 C 
ATOM     11  C   UNL     1     -11.903   6.649  20.528  0.00  0.00    +0.021 C 
ATOM     12  C   UNL     1     -11.493   7.195  19.165  0.00  0.00    +0.109 C 
ENDROOT
BRANCH   6   1
ATOM      1  S   UNL     1     -10.836   9.476  17.856  0.00  0.00    +0.029 S 
ATOM      2  O   UNL     1     -10.483   8.491  16.857  0.00  0.00    -0.158 OA
ATOM      3  O   UNL     1      -9.862  10.398  18.394  0.00  0.00    -0.158 OA
ATOM     19  C   UNL     1     -12.206  10.419  17.239  0.00  0.00    +0.215 C 
ENDBRANCH   6   1
BRANCH   8  13
ATOM     13  C   UNL     1     -12.717   9.407  21.924  0.00  0.00    +0.060 C 
BRANCH  13  15
ATOM      7  N   UNL     1     -14.264  11.144  21.327  0.00  0.00    -0.287 NA
ATOM     15  C   UNL     1     -13.418  10.716  22.203  0.00  0.00    +0.044 C 
ATOM     16  C   UNL     1     -13.097  11.445  23.457  0.00  0.00    -0.001 A 
ATOM     18  C   UNL     1     -13.449  12.800  23.506  0.00  0.00    -0.037 A 
ATOM     20  C   UNL     1     -14.102  13.418  22.306  0.00  0.00    +0.059 C 
ATOM     21  C   UNL     1     -14.990  12.384  21.626  0.00  0.00    +0.146 C 
ATOM     22  C   UNL     1     -12.463  10.838  24.543  0.00  0.00    +0.014 A 
ATOM     23  C   UNL     1     -12.170  11.595  25.679  0.00  0.00    -0.041 A 
ATOM     25  C   UNL     1     -13.137  13.553  24.642  0.00  0.00    +0.004 A 
ATOM     26  C   UNL     1     -12.504  12.948  25.728  0.00  0.00    +0.004 A 
BRANCH  23  24
ATOM     24  C   UNL     1     -11.503  10.952  26.847  0.00  0.00    -0.013 C 
ATOM     27  C   UNL     1     -12.346   9.756  27.392  0.00  0.00    +0.015 C 
ATOM     28  C   UNL     1     -11.314  11.966  28.019  0.00  0.00    +0.015 C 
ATOM     29  C   UNL     1     -10.079  10.366  26.570  0.00  0.00    +0.015 C 
ENDBRANCH  23  24
ENDBRANCH  13  15
ENDBRANCH   8  13
BRANCH   9  14
ATOM     14  C   UNL     1     -13.711   6.545  22.281  0.00  0.00    +0.124 C 
BRANCH  14  17
ATOM      5  O   UNL     1     -14.714   4.384  21.768  0.00  0.00    -0.251 OA
ATOM     17  C   UNL     1     -13.811   5.045  22.259  0.00  0.00    +0.305 C 
BRANCH  17   4
ATOM      4  O   UNL     1     -12.729   4.504  22.876  0.00  0.00    -0.481 OA
ATOM     30  H   UNL     1     -12.701   3.529  22.777  0.00  0.00    +0.295 HD
ENDBRANCH  17   4
ENDBRANCH  14  17
ENDBRANCH   9  14
TORSDOF 7
ENDMDL
MODEL 7
REMARK VINA RESULT:      -5.9     23.514     26.478
REMARK  Name = 51136761
REMARK  11 active torsions:
REMARK  status: ('A' for Active; 'I' for Inactive)
REMARK    1  A    between atoms: S_1  and  N_6
REMARK    2  A    between atoms: S_1  and  C_19
REMARK    3  A    between atoms: O_4  and  C_17
REMARK    4  A    between atoms: C_8  and  C_13
REMARK    5  A    between atoms: C_9  and  C_14
REMARK    6  A    between atoms: C_13  and  C_15
REMARK    7  A    between atoms: C_14  and  C_17
REMARK    8  A    between atoms: C_23  and  C_24
REMARK    9  A    between atoms: C_24  and  C_27
REMARK   10  A    between atoms: C_24  and  C_28
REMARK   11  A    between atoms: C_24  and  C_29
REMARK                            x       y       z     vdW  Elec       q    Type
REMARK                         _______ _______ _______ _____ _____    ______ ____
ROOT
ATOM      6  N   UNL     1      -6.955 -12.218  18.069  0.00  0.00    -0.181 NA
ATOM      8  C   UNL     1      -4.820 -12.729  16.907  0.00  0.00    +0.014 C 
ATOM      9  C   UNL     1      -5.458 -14.025  16.350  0.00  0.00    +0.006 C 
ATOM     10  C   UNL     1      -5.478 -12.354  18.243  0.00  0.00    +0.113 C 
ATOM     11  C   UNL     1      -6.988 -13.908  16.272  0.00  0.00    +0.021 C 
ATOM     12  C   UNL     1      -7.585 -13.489  17.612  0.00  0.00    +0.109 C 
ENDROOT
BRANCH   6   1
ATOM      1  S   UNL     1      -7.772 -11.412  19.342  0.00  0.00    +0.029 S 
ATOM      2  O   UNL     1      -6.810 -10.631  20.088  0.00  0.00    -0.158 OA
ATOM      3  O   UNL     1      -8.658 -12.352  19.992  0.00  0.00    -0.158 OA
ATOM     19  C   UNL     1      -8.761 -10.296  18.382  0.00  0.00    +0.215 C 
ENDBRANCH   6   1
BRANCH   8  13
ATOM     13  C   UNL     1      -4.862 -11.544  15.935  0.00  0.00    +0.060 C 
BRANCH  13  15
ATOM      7  N   UNL     1      -2.588 -10.982  16.466  0.00  0.00    -0.287 NA
ATOM     15  C   UNL     1      -3.458 -11.163  15.528  0.00  0.00    +0.044 C 
ATOM     16  C   UNL     1      -3.150 -11.009  14.084  0.00  0.00    -0.001 A 
ATOM     18  C   UNL     1      -1.988 -10.296  13.760  0.00  0.00    -0.037 A 
ATOM     20  C   UNL     1      -1.155  -9.732  14.872  0.00  0.00    +0.059 C 
ATOM     21  C   UNL     1      -1.210 -10.672  16.069  0.00  0.00    +0.146 C 
ATOM     22  C   UNL     1      -3.967 -11.527  13.077  0.00  0.00    +0.014 A 
ATOM     23  C   UNL     1      -3.624 -11.319  11.739  0.00  0.00    -0.041 A 
ATOM     25  C   UNL     1      -1.663 -10.080  12.417  0.00  0.00    +0.004 A 
ATOM     26  C   UNL     1      -2.478 -10.597  11.410  0.00  0.00    +0.004 A 
BRANCH  23  24
ATOM     24  C   UNL     1      -4.486 -11.878  10.658  0.00  0.00    -0.013 C 
ATOM     27  C   UNL     1      -4.473 -10.962   9.394  0.00  0.00    +0.015 C 
ATOM     28  C   UNL     1      -5.968 -12.012  11.126  0.00  0.00    +0.015 C 
ATOM     29  C   UNL     1      -4.082 -13.300  10.144  0.00  0.00    +0.015 C 
ENDBRANCH  23  24
ENDBRANCH  13  15
ENDBRANCH   8  13
BRANCH   9  14
ATOM     14  C   UNL     1      -4.880 -14.448  15.000  0.00  0.00    +0.124 C 
BRANCH  14  17
ATOM      5  O   UNL     1      -3.518 -16.393  15.546  0.00  0.00    -0.251 OA
ATOM     17  C   UNL     1      -3.611 -15.237  15.162  0.00  0.00    +0.305 C 
BRANCH  17   4
ATOM      4  O   UNL     1      -2.546 -14.471  14.813  0.00  0.00    -0.481 OA
ATOM     30  H   UNL     1      -1.796 -15.012  14.488  0.00  0.00    +0.295 HD
ENDBRANCH  17   4
ENDBRANCH  14  17
ENDBRANCH   9  14
TORSDOF 7
ENDMDL
MODEL 8
REMARK VINA RESULT:      -5.8     13.401     17.148
REMARK  Name = 51136761
REMARK  11 active torsions:
REMARK  status: ('A' for Active; 'I' for Inactive)
REMARK    1  A    between atoms: S_1  and  N_6
REMARK    2  A    between atoms: S_1  and  C_19
REMARK    3  A    between atoms: O_4  and  C_17
REMARK    4  A    between atoms: C_8  and  C_13
REMARK    5  A    between atoms: C_9  and  C_14
REMARK    6  A    between atoms: C_13  and  C_15
REMARK    7  A    between atoms: C_14  and  C_17
REMARK    8  A    between atoms: C_23  and  C_24
REMARK    9  A    between atoms: C_24  and  C_27
REMARK   10  A    between atoms: C_24  and  C_28
REMARK   11  A    between atoms: C_24  and  C_29
REMARK                            x       y       z     vdW  Elec       q    Type
REMARK                         _______ _______ _______ _____ _____    ______ ____
ROOT
ATOM      6  N   UNL     1      15.849   8.784  20.945  0.00  0.00    -0.181 NA
ATOM      8  C   UNL     1      15.388  10.704  22.452  0.00  0.00    +0.014 C 
ATOM      9  C   UNL     1      16.871  11.129  22.329  0.00  0.00    +0.006 C 
ATOM     10  C   UNL     1      15.261   9.185  22.258  0.00  0.00    +0.113 C 
ATOM     11  C   UNL     1      17.494  10.620  21.020  0.00  0.00    +0.021 C 
ATOM     12  C   UNL     1      17.299   9.117  20.856  0.00  0.00    +0.109 C 
ENDROOT
BRANCH   6   1
ATOM      1  S   UNL     1      15.423   7.215  20.401  0.00  0.00    +0.029 S 
ATOM      2  O   UNL     1      15.834   7.075  19.022  0.00  0.00    -0.158 OA
ATOM      3  O   UNL     1      14.070   6.929  20.826  0.00  0.00    -0.158 OA
ATOM     19  C   UNL     1      16.529   6.257  21.405  0.00  0.00    +0.215 C 
ENDBRANCH   6   1
BRANCH   8  13
ATOM     13  C   UNL     1      14.444  11.449  21.500  0.00  0.00    +0.060 C 
BRANCH  13  15
ATOM      7  N   UNL     1      12.394  11.073  22.693  0.00  0.00    -0.287 NA
ATOM     15  C   UNL     1      13.052  10.870  21.601  0.00  0.00    +0.044 C 
ATOM     16  C   UNL     1      12.516  10.096  20.453  0.00  0.00    -0.001 A 
ATOM     18  C   UNL     1      11.419   9.263  20.711  0.00  0.00    -0.037 A 
ATOM     20  C   UNL     1      10.878   9.198  22.108  0.00  0.00    +0.059 C 
ATOM     21  C   UNL     1      11.020  10.563  22.768  0.00  0.00    +0.146 C 
ATOM     22  C   UNL     1      13.066  10.164  19.171  0.00  0.00    +0.014 A 
ATOM     23  C   UNL     1      12.523   9.387  18.147  0.00  0.00    -0.041 A 
ATOM     25  C   UNL     1      10.892   8.476  19.683  0.00  0.00    +0.004 A 
ATOM     26  C   UNL     1      11.441   8.544  18.402  0.00  0.00    +0.004 A 
BRANCH  23  24
ATOM     24  C   UNL     1      13.098   9.462  16.773  0.00  0.00    -0.013 C 
ATOM     27  C   UNL     1      14.045   8.254  16.490  0.00  0.00    +0.015 C 
ATOM     28  C   UNL     1      13.930  10.767  16.579  0.00  0.00    +0.015 C 
ATOM     29  C   UNL     1      12.055   9.456  15.607  0.00  0.00    +0.015 C 
ENDBRANCH  23  24
ENDBRANCH  13  15
ENDBRANCH   8  13
BRANCH   9  14
ATOM     14  C   UNL     1      17.079  12.636  22.475  0.00  0.00    +0.124 C 
BRANCH  14  17
ATOM      5  O   UNL     1      17.314  14.115  24.398  0.00  0.00    -0.251 OA
ATOM     17  C   UNL     1      17.437  13.013  23.887  0.00  0.00    +0.305 C 
BRANCH  17   4
ATOM      4  O   UNL     1      17.931  11.929  24.540  0.00  0.00    -0.481 OA
ATOM     30  H   UNL     1      18.440  12.184  25.337  0.00  0.00    +0.295 HD
ENDBRANCH  17   4
ENDBRANCH  14  17
ENDBRANCH   9  14
TORSDOF 7
ENDMDL
MODEL 9
REMARK VINA RESULT:      -5.8     24.061     27.094
REMARK  Name = 51136761
REMARK  11 active torsions:
REMARK  status: ('A' for Active; 'I' for Inactive)
REMARK    1  A    between atoms: S_1  and  N_6
REMARK    2  A    between atoms: S_1  and  C_19
REMARK    3  A    between atoms: O_4  and  C_17
REMARK    4  A    between atoms: C_8  and  C_13
REMARK    5  A    between atoms: C_9  and  C_14
REMARK    6  A    between atoms: C_13  and  C_15
REMARK    7  A    between atoms: C_14  and  C_17
REMARK    8  A    between atoms: C_23  and  C_24
REMARK    9  A    between atoms: C_24  and  C_27
REMARK   10  A    between atoms: C_24  and  C_28
REMARK   11  A    between atoms: C_24  and  C_29
REMARK                            x       y       z     vdW  Elec       q    Type
REMARK                         _______ _______ _______ _____ _____    ______ ____
ROOT
ATOM      6  N   UNL     1      -6.706 -10.833  12.774  0.00  0.00    -0.181 NA
ATOM      8  C   UNL     1      -4.930 -11.399  14.416  0.00  0.00    +0.014 C 
ATOM      9  C   UNL     1      -3.864 -11.098  13.334  0.00  0.00    +0.006 C 
ATOM     10  C   UNL     1      -6.236 -11.860  13.749  0.00  0.00    +0.113 C 
ATOM     11  C   UNL     1      -4.398 -10.118  12.278  0.00  0.00    +0.021 C 
ATOM     12  C   UNL     1      -5.717 -10.601  11.684  0.00  0.00    +0.109 C 
ENDROOT
BRANCH   6   1
ATOM      1  S   UNL     1      -8.334 -10.999  12.262  0.00  0.00    +0.029 S 
ATOM      2  O   UNL     1      -8.346 -11.554  10.926  0.00  0.00    -0.158 OA
ATOM      3  O   UNL     1      -9.049  -9.786  12.590  0.00  0.00    -0.158 OA
ATOM     19  C   UNL     1      -8.856 -12.267  13.389  0.00  0.00    +0.215 C 
ENDBRANCH   6   1
BRANCH   8  13
ATOM     13  C   UNL     1      -5.198 -10.229  15.371  0.00  0.00    +0.060 C 
BRANCH  13  15
ATOM      7  N   UNL     1      -4.080 -11.104  17.309  0.00  0.00    -0.287 NA
ATOM     15  C   UNL     1      -5.205 -10.724  16.799  0.00  0.00    +0.044 C 
ATOM     16  C   UNL     1      -6.492 -10.758  17.537  0.00  0.00    -0.001 A 
ATOM     18  C   UNL     1      -6.541 -11.562  18.684  0.00  0.00    -0.037 A 
ATOM     20  C   UNL     1      -5.316 -12.334  19.074  0.00  0.00    +0.059 C 
ATOM     21  C   UNL     1      -4.076 -11.527  18.714  0.00  0.00    +0.146 C 
ATOM     22  C   UNL     1      -7.619 -10.044  17.124  0.00  0.00    +0.014 A 
ATOM     23  C   UNL     1      -8.803 -10.146  17.857  0.00  0.00    -0.041 A 
ATOM     25  C   UNL     1      -7.736 -11.669  19.401  0.00  0.00    +0.004 A 
ATOM     26  C   UNL     1      -8.863 -10.957  18.990  0.00  0.00    +0.004 A 
BRANCH  23  24
ATOM     24  C   UNL     1     -10.009  -9.379  17.429  0.00  0.00    -0.013 C 
ATOM     27  C   UNL     1     -11.175  -9.539  18.455  0.00  0.00    +0.015 C 
ATOM     28  C   UNL     1     -10.530  -9.871  16.043  0.00  0.00    +0.015 C 
ATOM     29  C   UNL     1      -9.803  -7.836  17.272  0.00  0.00    +0.015 C 
ENDBRANCH  23  24
ENDBRANCH  13  15
ENDBRANCH   8  13
BRANCH   9  14
ATOM     14  C   UNL     1      -2.543 -10.598  13.915  0.00  0.00    +0.124 C 
BRANCH  14  17
ATOM      5  O   UNL     1      -1.423 -12.758  14.057  0.00  0.00    -0.251 OA
ATOM     17  C   UNL     1      -1.770 -11.707  14.574  0.00  0.00    +0.305 C 
BRANCH  17   4
ATOM      4  O   UNL     1      -1.500 -11.375  15.863  0.00  0.00    -0.481 OA
ATOM     30  H   UNL     1      -0.991 -12.076  16.322  0.00  0.00    +0.295 HD
ENDBRANCH  17   4
ENDBRANCH  14  17
ENDBRANCH   9  14
TORSDOF 7
ENDMDL
MODEL 10
REMARK VINA RESULT:      -5.7     22.867     25.757
REMARK  Name = 51136761
REMARK  11 active torsions:
REMARK  status: ('A' for Active; 'I' for Inactive)
REMARK    1  A    between atoms: S_1  and  N_6
REMARK    2  A    between atoms: S_1  and  C_19
REMARK    3  A    between atoms: O_4  and  C_17
REMARK    4  A    between atoms: C_8  and  C_13
REMARK    5  A    between atoms: C_9  and  C_14
REMARK    6  A    between atoms: C_13  and  C_15
REMARK    7  A    between atoms: C_14  and  C_17
REMARK    8  A    between atoms: C_23  and  C_24
REMARK    9  A    between atoms: C_24  and  C_27
REMARK   10  A    between atoms: C_24  and  C_28
REMARK   11  A    between atoms: C_24  and  C_29
REMARK                            x       y       z     vdW  Elec       q    Type
REMARK                         _______ _______ _______ _____ _____    ______ ____
ROOT
ATOM      6  N   UNL     1      -6.005  -9.925  10.210  0.00  0.00    -0.181 NA
ATOM      8  C   UNL     1      -6.042  -9.663  12.680  0.00  0.00    +0.014 C 
ATOM      9  C   UNL     1      -7.589  -9.713  12.641  0.00  0.00    +0.006 C 
ATOM     10  C   UNL     1      -5.503  -9.107  11.353  0.00  0.00    +0.113 C 
ATOM     11  C   UNL     1      -8.094 -10.470  11.403  0.00  0.00    +0.021 C 
ATOM     12  C   UNL     1      -7.493  -9.907  10.119  0.00  0.00    +0.109 C 
ENDROOT
BRANCH   6   1
ATOM      1  S   UNL     1      -5.178  -9.695   8.726  0.00  0.00    +0.029 S 
ATOM      2  O   UNL     1      -4.801 -10.989   8.201  0.00  0.00    -0.158 OA
ATOM      3  O   UNL     1      -4.215  -8.630   8.892  0.00  0.00    -0.158 OA
ATOM     19  C   UNL     1      -6.522  -9.075   7.747  0.00  0.00    +0.215 C 
ENDBRANCH   6   1
BRANCH   8  13
ATOM     13  C   UNL     1      -5.382 -11.008  13.007  0.00  0.00    +0.060 C 
BRANCH  13  15
ATOM      7  N   UNL     1      -3.029 -10.538  13.112  0.00  0.00    -0.287 NA
ATOM     15  C   UNL     1      -4.106 -10.778  13.783  0.00  0.00    +0.044 C 
ATOM     16  C   UNL     1      -4.150 -10.846  15.265  0.00  0.00    -0.001 A 
ATOM     18  C   UNL     1      -2.925 -11.016  15.925  0.00  0.00    -0.037 A 
ATOM     20  C   UNL     1      -1.675 -11.131  15.105  0.00  0.00    +0.059 C 
ATOM     21  C   UNL     1      -1.803 -10.254  13.866  0.00  0.00    +0.146 C 
ATOM     22  C   UNL     1      -5.339 -10.762  15.992  0.00  0.00    +0.014 A 
ATOM     23  C   UNL     1      -5.303 -10.860  17.384  0.00  0.00    -0.041 A 
ATOM     25  C   UNL     1      -2.902 -11.130  17.318  0.00  0.00    +0.004 A 
ATOM     26  C   UNL     1      -4.090 -11.045  18.045  0.00  0.00    +0.004 A 
BRANCH  23  24
ATOM     24  C   UNL     1      -6.568 -10.760  18.168  0.00  0.00    -0.013 C 
ATOM     27  C   UNL     1      -7.360 -12.106  18.138  0.00  0.00    +0.015 C 
ATOM     28  C   UNL     1      -7.504  -9.652  17.593  0.00  0.00    +0.015 C 
ATOM     29  C   UNL     1      -6.394 -10.413  19.683  0.00  0.00    +0.015 C 
ENDBRANCH  23  24
ENDBRANCH  13  15
ENDBRANCH   8  13
BRANCH   9  14
ATOM     14  C   UNL     1      -8.204 -10.290  13.915  0.00  0.00    +0.124 C 
BRANCH  14  17
ATOM      5  O   UNL     1     -10.622 -10.075  14.132  0.00  0.00    -0.251 OA
ATOM     17  C   UNL     1      -9.500  -9.610  14.263  0.00  0.00    +0.305 C 
BRANCH  17   4
ATOM      4  O   UNL     1      -9.249  -8.371  14.758  0.00  0.00    -0.481 OA
ATOM     30  H   UNL     1      -9.052  -8.394  15.718  0.00  0.00    +0.295 HD
ENDBRANCH  17   4
ENDBRANCH  14  17
ENDBRANCH   9  14
TORSDOF 7
ENDMDL
