REMARK  Name = 45783275
REMARK  7 active torsions:
REMARK  status: ('A' for Active; 'I' for Inactive)
REMARK    1  A    between atoms: O_2  and  C_21
REMARK    2  A    between atoms: O_2  and  C_22
REMARK    3  A    between atoms: N_3  and  C_13
REMARK    4  A    between atoms: N_6  and  C_19
REMARK    5  A    between atoms: C_8  and  C_12
REMARK    6  A    between atoms: C_14  and  C_15
REMARK    7  A    between atoms: C_19  and  C_21
REMARK                            x       y       z     vdW  Elec       q    Type
REMARK                         _______ _______ _______ _____ _____    ______ ____
ROOT
ATOM      6  N   UNL     1       3.654  -0.119   0.253  0.00  0.00    -0.327 N 
ATOM      7  N   UNL     1       3.294   2.223   0.003  0.00  0.00    -0.240 NA
ATOM     15  C   UNL     1       0.533   1.782   0.025  0.00  0.00    +0.027 A 
ATOM     16  C   UNL     1       1.413   0.711   0.144  0.00  0.00    +0.055 A 
ATOM     17  C   UNL     1       1.033   3.073  -0.106  0.00  0.00    +0.031 A 
ATOM     18  C   UNL     1       2.771   0.983   0.128  0.00  0.00    +0.119 A 
ATOM     20  C   UNL     1       2.409   3.239  -0.111  0.00  0.00    +0.113 A 
ATOM     23  H   UNL     1       4.645   0.093   0.236  0.00  0.00    +0.148 HD
ENDROOT
BRANCH  15  14
ATOM      1  O   UNL     1      -2.995   1.871  -0.018  0.00  0.00    -0.336 OA
ATOM      4  N   UNL     1      -1.407   0.302   0.160  0.00  0.00    -0.190 NA
ATOM      5  N   UNL     1      -1.770   2.548  -0.078  0.00  0.00    -0.056 NA
ATOM     12  C   UNL     1      -2.691   0.555   0.122  0.00  0.00    +0.245 A 
ATOM     14  C   UNL     1      -0.883   1.555   0.034  0.00  0.00    +0.202 A 
BRANCH  12   8
ATOM      3  N   UNL     1      -3.822  -1.445  -0.834  0.00  0.00    -0.294 NA
ATOM      8  C   UNL     1      -3.861  -0.402   0.211  0.00  0.00    +0.146 C 
ATOM      9  C   UNL     1      -3.894  -1.181   1.539  0.00  0.00    +0.030 C 
ATOM     10  C   UNL     1      -3.932  -2.649   1.139  0.00  0.00    +0.017 C 
ATOM     11  C   UNL     1      -4.487  -2.620  -0.271  0.00  0.00    +0.085 C 
ATOM     13  C   UNL     1      -4.427  -1.022  -2.091  0.00  0.00    +0.105 C 
ENDBRANCH  12   8
ENDBRANCH  15  14
BRANCH   6  19
ATOM     19  C   UNL     1       3.195  -1.462   0.391  0.00  0.00    +0.131 C 
BRANCH  19  21
ATOM     21  C   UNL     1       4.378  -2.404   0.536  0.00  0.00    +0.178 C 
BRANCH  21   2
ATOM      2  O   UNL     1       5.186  -2.334  -0.632  0.00  0.00    -0.381 OA
ATOM     22  C   UNL     1       6.305  -3.205  -0.545  0.00  0.00    +0.194 C 
ENDBRANCH  21   2
ENDBRANCH  19  21
ENDBRANCH   6  19
TORSDOF 5
