REMARK  Name = 25338539
REMARK  7 active torsions:
REMARK  status: ('A' for Active; 'I' for Inactive)
REMARK    1  A    between atoms: N_3  and  C_13
REMARK    2  A    between atoms: N_4  and  C_8
REMARK    3  A    between atoms: N_6  and  C_16
REMARK    4  A    between atoms: C_9  and  C_12
REMARK    5  A    between atoms: C_15  and  C_17
REMARK    6  A    between atoms: C_16  and  C_18
REMARK    7  A    between atoms: C_16  and  C_19
REMARK                            x       y       z     vdW  Elec       q    Type
REMARK                         _______ _______ _______ _____ _____    ______ ____
ROOT
ATOM      3  N   UNL     1      -2.505  -2.425   1.255  0.00  0.00    -0.293 NA
ATOM      8  C   UNL     1      -3.910  -1.139  -0.088  0.00  0.00    +0.090 C 
ATOM      9  C   UNL     1      -2.029  -2.697  -0.114  0.00  0.00    +0.147 C 
ATOM     10  C   UNL     1      -2.846  -1.740  -1.005  0.00  0.00    +0.052 C 
ATOM     11  C   UNL     1      -3.918  -2.058   1.124  0.00  0.00    +0.107 C 
ATOM     13  C   UNL     1      -2.316  -3.550   2.163  0.00  0.00    +0.105 C 
ENDROOT
BRANCH   8   4
ATOM      2  O   UNL     1      -4.740   1.277  -1.430  0.00  0.00    -0.253 OA
ATOM      4  N   UNL     1      -3.587   0.218   0.284  0.00  0.00    -0.295 N 
ATOM      6  N   UNL     1      -3.574   2.513   0.149  0.00  0.00    -0.297 N 
ATOM     14  C   UNL     1      -4.033   1.331  -0.425  0.00  0.00    +0.300 C 
ATOM     29  H   UNL     1      -2.945   0.367   1.057  0.00  0.00    +0.151 HD
ATOM     30  H   UNL     1      -3.059   2.458   1.023  0.00  0.00    +0.150 HD
BRANCH   6  16
ATOM     16  C   UNL     1      -3.889   3.817  -0.386  0.00  0.00    +0.068 C 
ATOM     18  C   UNL     1      -2.744   4.787  -0.126  0.00  0.00    +0.027 C 
ATOM     19  C   UNL     1      -5.196   4.335   0.202  0.00  0.00    +0.027 C 
ENDBRANCH   6  16
ENDBRANCH   8   4
BRANCH   9  12
ATOM      1  O   UNL     1       0.158  -3.592  -0.735  0.00  0.00    -0.336 OA
ATOM      5  N   UNL     1       0.203  -1.460  -0.052  0.00  0.00    -0.190 NA
ATOM      7  N   UNL     1       1.498  -3.188  -0.807  0.00  0.00    -0.056 NA
ATOM     12  C   UNL     1      -0.536  -2.515  -0.282  0.00  0.00    +0.245 A 
ATOM     15  C   UNL     1       1.443  -1.920  -0.388  0.00  0.00    +0.202 A 
BRANCH  15  17
ATOM     17  C   UNL     1       2.607  -1.087  -0.295  0.00  0.00    +0.023 A 
ATOM     20  C   UNL     1       2.488   0.230   0.148  0.00  0.00    +0.020 A 
ATOM     21  C   UNL     1       3.854  -1.594  -0.648  0.00  0.00    +0.012 A 
ATOM     22  C   UNL     1       3.618   1.058   0.245  0.00  0.00    -0.017 A 
ATOM     23  C   UNL     1       4.886   0.543  -0.113  0.00  0.00    -0.018 A 
ATOM     24  C   UNL     1       4.988  -0.785  -0.558  0.00  0.00    +0.009 A 
ATOM     25  C   UNL     1       3.517   2.386   0.690  0.00  0.00    +0.008 A 
ATOM     26  C   UNL     1       6.016   1.371  -0.016  0.00  0.00    +0.008 A 
ATOM     27  C   UNL     1       4.650   3.195   0.780  0.00  0.00    +0.001 A 
ATOM     28  C   UNL     1       5.897   2.689   0.427  0.00  0.00    +0.001 A 
ENDBRANCH  15  17
ENDBRANCH   9  12
TORSDOF 4
