MODEL 1
REMARK VINA RESULT:      -7.6      0.000      0.000
REMARK  Name = 26744419
REMARK  5 active torsions:
REMARK  status: ('A' for Active; 'I' for Inactive)
REMARK    1  A    between atoms: O_2  and  C_11
REMARK    2  A    between atoms: N_4  and  C_13
REMARK    3  A    between atoms: C_9  and  C_14
REMARK    4  A    between atoms: C_13  and  C_15
REMARK    5  A    between atoms: C_16  and  C_18
REMARK                            x       y       z     vdW  Elec       q    Type
REMARK                         _______ _______ _______ _____ _____    ______ ____
ROOT
ATOM      4  N   UNL     1      14.273   8.472  20.090  0.00  0.00    -0.282 NA
ATOM      9  C   UNL     1      14.413   7.249  19.275  0.00  0.00    +0.149 C 
ATOM     10  C   UNL     1      14.018   7.679  17.850  0.00  0.00    +0.061 C 
ATOM     11  C   UNL     1      13.628   9.147  17.974  0.00  0.00    +0.130 C 
ATOM     12  C   UNL     1      13.253   9.291  19.437  0.00  0.00    +0.117 C 
ENDROOT
BRANCH   9  14
ATOM      3  O   UNL     1      16.185   5.876  18.300  0.00  0.00    -0.336 OA
ATOM      5  N   UNL     1      16.719   6.792  20.273  0.00  0.00    -0.190 NA
ATOM      8  N   UNL     1      17.489   5.453  18.585  0.00  0.00    -0.056 NA
ATOM     14  C   UNL     1      15.807   6.660  19.344  0.00  0.00    +0.245 A 
ATOM     16  C   UNL     1      17.733   6.034  19.764  0.00  0.00    +0.202 A 
BRANCH  16  18
ATOM      1  F   UNL     1      22.565   5.431  22.453  0.00  0.00    -0.205 F 
ATOM     18  C   UNL     1      18.979   5.878  20.457  0.00  0.00    +0.023 A 
ATOM     20  C   UNL     1      19.326   6.765  21.476  0.00  0.00    +0.014 A 
ATOM     21  C   UNL     1      19.844   4.840  20.112  0.00  0.00    +0.014 A 
ATOM     22  C   UNL     1      20.537   6.614  22.151  0.00  0.00    +0.039 A 
ATOM     23  C   UNL     1      21.055   4.689  20.787  0.00  0.00    +0.039 A 
ATOM     24  C   UNL     1      21.402   5.576  21.805  0.00  0.00    +0.123 A 
ENDBRANCH  16  18
ENDBRANCH   9  14
BRANCH  11   2
ATOM      2  O   UNL     1      12.543   9.451  17.121  0.00  0.00    -0.390 OA
ATOM     25  H   UNL     1      11.907   9.979  17.633  0.00  0.00    +0.210 HD
ENDBRANCH  11   2
BRANCH   4  13
ATOM     13  C   UNL     1      13.945   8.199  21.484  0.00  0.00    +0.159 C 
BRANCH  13  15
ATOM      6  N   UNL     1      12.434   6.204  21.379  0.00  0.00    -0.347 N 
ATOM      7  N   UNL     1      11.472   8.113  21.979  0.00  0.00    -0.239 NA
ATOM     15  C   UNL     1      12.600   7.538  21.625  0.00  0.00    +0.121 A 
ATOM     17  C   UNL     1      11.116   5.909  21.590  0.00  0.00    +0.104 A 
ATOM     19  C   UNL     1      10.543   7.103  21.960  0.00  0.00    +0.130 A 
ATOM     26  H   UNL     1      13.152   5.553  21.091  0.00  0.00    +0.167 HD
ENDBRANCH  13  15
ENDBRANCH   4  13
TORSDOF 5
ENDMDL
MODEL 2
REMARK VINA RESULT:      -6.9      3.865      6.586
REMARK  Name = 26744419
REMARK  5 active torsions:
REMARK  status: ('A' for Active; 'I' for Inactive)
REMARK    1  A    between atoms: O_2  and  C_11
REMARK    2  A    between atoms: N_4  and  C_13
REMARK    3  A    between atoms: C_9  and  C_14
REMARK    4  A    between atoms: C_13  and  C_15
REMARK    5  A    between atoms: C_16  and  C_18
REMARK                            x       y       z     vdW  Elec       q    Type
REMARK                         _______ _______ _______ _____ _____    ______ ____
ROOT
ATOM      4  N   UNL     1      13.278   7.831  20.606  0.00  0.00    -0.282 NA
ATOM      9  C   UNL     1      12.427   7.719  19.405  0.00  0.00    +0.149 C 
ATOM     10  C   UNL     1      11.100   8.395  19.798  0.00  0.00    +0.061 C 
ATOM     11  C   UNL     1      11.287   8.814  21.251  0.00  0.00    +0.130 C 
ATOM     12  C   UNL     1      12.373   7.881  21.752  0.00  0.00    +0.117 C 
ENDROOT
BRANCH   9  14
ATOM      3  O   UNL     1      12.917   7.666  17.010  0.00  0.00    -0.336 OA
ATOM      5  N   UNL     1      13.744   9.456  18.074  0.00  0.00    -0.190 NA
ATOM      8  N   UNL     1      13.579   8.426  16.038  0.00  0.00    -0.056 NA
ATOM     14  C   UNL     1      13.063   8.344  18.180  0.00  0.00    +0.245 A 
ATOM     16  C   UNL     1      14.040   9.464  16.742  0.00  0.00    +0.202 A 
BRANCH  16  18
ATOM      1  F   UNL     1      16.976  13.583  14.427  0.00  0.00    -0.205 F 
ATOM     18  C   UNL     1      14.797  10.525  16.145  0.00  0.00    +0.023 A 
ATOM     20  C   UNL     1      15.092  11.673  16.882  0.00  0.00    +0.014 A 
ATOM     21  C   UNL     1      15.239  10.412  14.827  0.00  0.00    +0.014 A 
ATOM     22  C   UNL     1      15.828  12.705  16.302  0.00  0.00    +0.039 A 
ATOM     23  C   UNL     1      15.975  11.444  14.247  0.00  0.00    +0.039 A 
ATOM     24  C   UNL     1      16.270  12.591  14.984  0.00  0.00    +0.123 A 
ENDBRANCH  16  18
ENDBRANCH   9  14
BRANCH  11   2
ATOM      2  O   UNL     1      10.083   8.657  21.976  0.00  0.00    -0.390 OA
ATOM     25  H   UNL     1      10.252   8.018  22.689  0.00  0.00    +0.210 HD
ENDBRANCH  11   2
BRANCH   4  13
ATOM     13  C   UNL     1      14.252   6.752  20.724  0.00  0.00    +0.159 C 
BRANCH  13  15
ATOM      6  N   UNL     1      15.961   8.574  20.534  0.00  0.00    -0.347 N 
ATOM      7  N   UNL     1      16.720   6.606  21.226  0.00  0.00    -0.239 NA
ATOM     15  C   UNL     1      15.658   7.277  20.840  0.00  0.00    +0.121 A 
ATOM     17  C   UNL     1      17.303   8.741  20.738  0.00  0.00    +0.104 A 
ATOM     19  C   UNL     1      17.749   7.513  21.165  0.00  0.00    +0.130 A 
ATOM     26  H   UNL     1      15.314   9.282  20.213  0.00  0.00    +0.167 HD
ENDBRANCH  13  15
ENDBRANCH   4  13
TORSDOF 5
ENDMDL
MODEL 3
REMARK VINA RESULT:      -6.7     15.475     17.637
REMARK  Name = 26744419
REMARK  5 active torsions:
REMARK  status: ('A' for Active; 'I' for Inactive)
REMARK    1  A    between atoms: O_2  and  C_11
REMARK    2  A    between atoms: N_4  and  C_13
REMARK    3  A    between atoms: C_9  and  C_14
REMARK    4  A    between atoms: C_13  and  C_15
REMARK    5  A    between atoms: C_16  and  C_18
REMARK                            x       y       z     vdW  Elec       q    Type
REMARK                         _______ _______ _______ _____ _____    ______ ____
ROOT
ATOM      4  N   UNL     1      10.177   7.566   5.808  0.00  0.00    -0.282 NA
ATOM      9  C   UNL     1       9.274   6.485   5.365  0.00  0.00    +0.149 C 
ATOM     10  C   UNL     1       8.085   7.210   4.707  0.00  0.00    +0.061 C 
ATOM     11  C   UNL     1       8.389   8.694   4.871  0.00  0.00    +0.130 C 
ATOM     12  C   UNL     1       9.334   8.734   6.056  0.00  0.00    +0.117 C 
ENDROOT
BRANCH   9  14
ATOM      3  O   UNL     1      10.182   4.259   4.921  0.00  0.00    -0.336 OA
ATOM      5  N   UNL     1      10.363   5.681   3.199  0.00  0.00    -0.190 NA
ATOM      8  N   UNL     1      10.809   3.547   3.892  0.00  0.00    -0.056 NA
ATOM     14  C   UNL     1       9.953   5.506   4.430  0.00  0.00    +0.245 A 
ATOM     16  C   UNL     1      10.881   4.452   2.911  0.00  0.00    +0.202 A 
BRANCH  16  18
ATOM      1  F   UNL     1      13.133   3.318  -2.048  0.00  0.00    -0.205 F 
ATOM     18  C   UNL     1      11.462   4.160   1.633  0.00  0.00    +0.023 A 
ATOM     20  C   UNL     1      10.743   4.415   0.465  0.00  0.00    +0.014 A 
ATOM     21  C   UNL     1      12.746   3.621   1.557  0.00  0.00    +0.014 A 
ATOM     22  C   UNL     1      11.307   4.131  -0.778  0.00  0.00    +0.039 A 
ATOM     23  C   UNL     1      13.310   3.336   0.313  0.00  0.00    +0.039 A 
ATOM     24  C   UNL     1      12.591   3.591  -0.854  0.00  0.00    +0.123 A 
ENDBRANCH  16  18
ENDBRANCH   9  14
BRANCH  11   2
ATOM      2  O   UNL     1       7.204   9.425   5.118  0.00  0.00    -0.390 OA
ATOM     25  H   UNL     1       6.622   8.863   5.658  0.00  0.00    +0.210 HD
ENDBRANCH  11   2
BRANCH   4  13
ATOM     13  C   UNL     1      10.974   7.208   6.975  0.00  0.00    +0.159 C 
BRANCH  13  15
ATOM      6  N   UNL     1      10.653   4.908   7.914  0.00  0.00    -0.347 N 
ATOM      7  N   UNL     1       9.234   6.454   8.641  0.00  0.00    -0.239 NA
ATOM     15  C   UNL     1      10.262   6.216   7.857  0.00  0.00    +0.121 A 
ATOM     17  C   UNL     1       9.821   4.270   8.792  0.00  0.00    +0.104 A 
ATOM     19  C   UNL     1       8.954   5.245   9.226  0.00  0.00    +0.130 A 
ATOM     26  H   UNL     1      11.415   4.486   7.401  0.00  0.00    +0.167 HD
ENDBRANCH  13  15
ENDBRANCH   4  13
TORSDOF 5
ENDMDL
MODEL 4
REMARK VINA RESULT:      -6.7     25.785     28.776
REMARK  Name = 26744419
REMARK  5 active torsions:
REMARK  status: ('A' for Active; 'I' for Inactive)
REMARK    1  A    between atoms: O_2  and  C_11
REMARK    2  A    between atoms: N_4  and  C_13
REMARK    3  A    between atoms: C_9  and  C_14
REMARK    4  A    between atoms: C_13  and  C_15
REMARK    5  A    between atoms: C_16  and  C_18
REMARK                            x       y       z     vdW  Elec       q    Type
REMARK                         _______ _______ _______ _____ _____    ______ ____
ROOT
ATOM      4  N   UNL     1      -3.407 -10.624  14.703  0.00  0.00    -0.282 NA
ATOM      9  C   UNL     1      -3.458 -11.329  15.999  0.00  0.00    +0.149 C 
ATOM     10  C   UNL     1      -2.128 -10.977  16.691  0.00  0.00    +0.061 C 
ATOM     11  C   UNL     1      -1.379 -10.109  15.688  0.00  0.00    +0.130 C 
ATOM     12  C   UNL     1      -1.993 -10.497  14.356  0.00  0.00    +0.117 C 
ENDROOT
BRANCH   9  14
ATOM      3  O   UNL     1      -4.528 -11.017  18.175  0.00  0.00    -0.336 OA
ATOM      5  N   UNL     1      -5.850 -10.543  16.430  0.00  0.00    -0.190 NA
ATOM      8  N   UNL     1      -5.757 -10.620  18.714  0.00  0.00    -0.056 NA
ATOM     14  C   UNL     1      -4.668 -10.943  16.825  0.00  0.00    +0.245 A 
ATOM     16  C   UNL     1      -6.484 -10.357  17.623  0.00  0.00    +0.202 A 
BRANCH  16  18
ATOM      1  F   UNL     1     -11.758  -8.611  17.893  0.00  0.00    -0.205 F 
ATOM     18  C   UNL     1      -7.843  -9.907  17.693  0.00  0.00    +0.023 A 
ATOM     20  C   UNL     1      -8.761 -10.581  18.498  0.00  0.00    +0.014 A 
ATOM     21  C   UNL     1      -8.248  -8.794  16.956  0.00  0.00    +0.014 A 
ATOM     22  C   UNL     1     -10.084 -10.143  18.565  0.00  0.00    +0.039 A 
ATOM     23  C   UNL     1      -9.570  -8.357  17.024  0.00  0.00    +0.039 A 
ATOM     24  C   UNL     1     -10.488  -9.031  17.828  0.00  0.00    +0.123 A 
ENDBRANCH  16  18
ENDBRANCH   9  14
BRANCH  11   2
ATOM      2  O   UNL     1       0.008 -10.381  15.726  0.00  0.00    -0.390 OA
ATOM     25  H   UNL     1       0.447  -9.606  16.115  0.00  0.00    +0.210 HD
ENDBRANCH  11   2
BRANCH   4  13
ATOM     13  C   UNL     1      -4.170 -11.291  13.655  0.00  0.00    +0.159 C 
BRANCH  13  15
ATOM      6  N   UNL     1      -6.196  -9.873  13.255  0.00  0.00    -0.347 N 
ATOM      7  N   UNL     1      -4.630  -9.784  11.684  0.00  0.00    -0.239 NA
ATOM     15  C   UNL     1      -4.972 -10.314  12.837  0.00  0.00    +0.121 A 
ATOM     17  C   UNL     1      -6.665  -9.007  12.307  0.00  0.00    +0.104 A 
ATOM     19  C   UNL     1      -5.681  -8.968  11.349  0.00  0.00    +0.130 A 
ATOM     26  H   UNL     1      -6.671 -10.140  14.107  0.00  0.00    +0.167 HD
ENDBRANCH  13  15
ENDBRANCH   4  13
TORSDOF 5
ENDMDL
MODEL 5
REMARK VINA RESULT:      -6.5     26.700     28.666
REMARK  Name = 26744419
REMARK  5 active torsions:
REMARK  status: ('A' for Active; 'I' for Inactive)
REMARK    1  A    between atoms: O_2  and  C_11
REMARK    2  A    between atoms: N_4  and  C_13
REMARK    3  A    between atoms: C_9  and  C_14
REMARK    4  A    between atoms: C_13  and  C_15
REMARK    5  A    between atoms: C_16  and  C_18
REMARK                            x       y       z     vdW  Elec       q    Type
REMARK                         _______ _______ _______ _____ _____    ______ ____
ROOT
ATOM      4  N   UNL     1      -7.451 -10.693  17.750  0.00  0.00    -0.282 NA
ATOM      9  C   UNL     1      -6.055 -10.832  18.211  0.00  0.00    +0.149 C 
ATOM     10  C   UNL     1      -6.037 -12.141  19.022  0.00  0.00    +0.061 C 
ATOM     11  C   UNL     1      -7.477 -12.640  18.998  0.00  0.00    +0.130 C 
ATOM     12  C   UNL     1      -8.283 -11.383  18.734  0.00  0.00    +0.117 C 
ENDROOT
BRANCH   9  14
ATOM      3  O   UNL     1      -3.781 -11.173  17.381  0.00  0.00    -0.336 OA
ATOM      5  N   UNL     1      -5.249 -10.563  15.803  0.00  0.00    -0.190 NA
ATOM      8  N   UNL     1      -3.060 -11.108  16.182  0.00  0.00    -0.056 NA
ATOM     14  C   UNL     1      -5.061 -10.838  17.068  0.00  0.00    +0.245 A 
ATOM     16  C   UNL     1      -3.994 -10.742  15.299  0.00  0.00    +0.202 A 
BRANCH  16  18
ATOM      1  F   UNL     1      -2.878  -9.994   9.901  0.00  0.00    -0.205 F 
ATOM     18  C   UNL     1      -3.706 -10.549  13.908  0.00  0.00    +0.023 A 
ATOM     20  C   UNL     1      -4.746 -10.326  13.004  0.00  0.00    +0.014 A 
ATOM     21  C   UNL     1      -2.387 -10.584  13.457  0.00  0.00    +0.014 A 
ATOM     22  C   UNL     1      -4.466 -10.139  11.651  0.00  0.00    +0.039 A 
ATOM     23  C   UNL     1      -2.107 -10.396  12.103  0.00  0.00    +0.039 A 
ATOM     24  C   UNL     1      -3.146 -10.174  11.200  0.00  0.00    +0.123 A 
ENDBRANCH  16  18
ENDBRANCH   9  14
BRANCH  11   2
ATOM      2  O   UNL     1      -7.822 -13.236  20.233  0.00  0.00    -0.390 OA
ATOM     25  H   UNL     1      -8.182 -12.537  20.804  0.00  0.00    +0.210 HD
ENDBRANCH  11   2
BRANCH   4  13
ATOM     13  C   UNL     1      -7.859  -9.306  17.562  0.00  0.00    +0.159 C 
BRANCH  13  15
ATOM      6  N   UNL     1      -8.185  -9.530  15.089  0.00  0.00    -0.347 N 
ATOM      7  N   UNL     1      -9.858  -8.585  16.202  0.00  0.00    -0.239 NA
ATOM     15  C   UNL     1      -8.663  -9.124  16.303  0.00  0.00    +0.121 A 
ATOM     17  C   UNL     1      -9.135  -9.230  14.153  0.00  0.00    +0.104 A 
ATOM     19  C   UNL     1     -10.158  -8.649  14.864  0.00  0.00    +0.130 A 
ATOM     26  H   UNL     1      -7.291  -9.968  14.912  0.00  0.00    +0.167 HD
ENDBRANCH  13  15
ENDBRANCH   4  13
TORSDOF 5
ENDMDL
MODEL 6
REMARK VINA RESULT:      -6.5     27.808     30.387
REMARK  Name = 26744419
REMARK  5 active torsions:
REMARK  status: ('A' for Active; 'I' for Inactive)
REMARK    1  A    between atoms: O_2  and  C_11
REMARK    2  A    between atoms: N_4  and  C_13
REMARK    3  A    between atoms: C_9  and  C_14
REMARK    4  A    between atoms: C_13  and  C_15
REMARK    5  A    between atoms: C_16  and  C_18
REMARK                            x       y       z     vdW  Elec       q    Type
REMARK                         _______ _______ _______ _____ _____    ______ ____
ROOT
ATOM      4  N   UNL     1      -5.742 -11.363  18.295  0.00  0.00    -0.282 NA
ATOM      9  C   UNL     1      -5.758 -10.057  17.605  0.00  0.00    +0.149 C 
ATOM     10  C   UNL     1      -4.584 -10.124  16.611  0.00  0.00    +0.061 C 
ATOM     11  C   UNL     1      -3.943 -11.486  16.847  0.00  0.00    +0.130 C 
ATOM     12  C   UNL     1      -4.358 -11.831  18.265  0.00  0.00    +0.117 C 
ENDROOT
BRANCH   9  14
ATOM      3  O   UNL     1      -7.380 -10.524  15.837  0.00  0.00    -0.336 OA
ATOM      5  N   UNL     1      -8.002  -8.893  17.241  0.00  0.00    -0.190 NA
ATOM      8  N   UNL     1      -8.633 -10.083  15.393  0.00  0.00    -0.056 NA
ATOM     14  C   UNL     1      -7.083  -9.771  16.930  0.00  0.00    +0.245 A 
ATOM     16  C   UNL     1      -8.933  -9.121  16.271  0.00  0.00    +0.202 A 
BRANCH  16  18
ATOM      1  F   UNL     1     -13.669  -6.213  16.022  0.00  0.00    -0.205 F 
ATOM     18  C   UNL     1     -10.154  -8.372  16.206  0.00  0.00    +0.023 A 
ATOM     20  C   UNL     1     -10.118  -7.000  15.957  0.00  0.00    +0.014 A 
ATOM     21  C   UNL     1     -11.377  -9.014  16.393  0.00  0.00    +0.014 A 
ATOM     22  C   UNL     1     -11.305  -6.271  15.894  0.00  0.00    +0.039 A 
ATOM     23  C   UNL     1     -12.564  -8.285  16.331  0.00  0.00    +0.039 A 
ATOM     24  C   UNL     1     -12.529  -6.914  16.082  0.00  0.00    +0.123 A 
ENDBRANCH  16  18
ENDBRANCH   9  14
BRANCH  11   2
ATOM      2  O   UNL     1      -2.537 -11.408  16.715  0.00  0.00    -0.390 OA
ATOM     25  H   UNL     1      -2.344 -10.739  16.038  0.00  0.00    +0.210 HD
ENDBRANCH  11   2
BRANCH   4  13
ATOM     13  C   UNL     1      -6.271 -11.303  19.652  0.00  0.00    +0.159 C 
BRANCH  13  15
ATOM      6  N   UNL     1      -7.850 -13.247  19.712  0.00  0.00    -0.347 N 
ATOM      7  N   UNL     1      -8.785 -11.239  19.855  0.00  0.00    -0.239 NA
ATOM     15  C   UNL     1      -7.652 -11.896  19.742  0.00  0.00    +0.121 A 
ATOM     17  C   UNL     1      -9.195 -13.467  19.812  0.00  0.00    +0.104 A 
ATOM     19  C   UNL     1      -9.751 -12.213  19.899  0.00  0.00    +0.130 A 
ATOM     26  H   UNL     1      -7.133 -13.957  19.628  0.00  0.00    +0.167 HD
ENDBRANCH  13  15
ENDBRANCH   4  13
TORSDOF 5
ENDMDL
MODEL 7
REMARK VINA RESULT:      -6.5     26.934     28.314
REMARK  Name = 26744419
REMARK  5 active torsions:
REMARK  status: ('A' for Active; 'I' for Inactive)
REMARK    1  A    between atoms: O_2  and  C_11
REMARK    2  A    between atoms: N_4  and  C_13
REMARK    3  A    between atoms: C_9  and  C_14
REMARK    4  A    between atoms: C_13  and  C_15
REMARK    5  A    between atoms: C_16  and  C_18
REMARK                            x       y       z     vdW  Elec       q    Type
REMARK                         _______ _______ _______ _____ _____    ______ ____
ROOT
ATOM      4  N   UNL     1      -4.112 -11.536  10.529  0.00  0.00    -0.282 NA
ATOM      9  C   UNL     1      -3.107 -10.637  11.132  0.00  0.00    +0.149 C 
ATOM     10  C   UNL     1      -3.420  -9.247  10.547  0.00  0.00    +0.061 C 
ATOM     11  C   UNL     1      -4.586  -9.475   9.592  0.00  0.00    +0.130 C 
ATOM     12  C   UNL     1      -4.475 -10.947   9.242  0.00  0.00    +0.117 C 
ENDROOT
BRANCH   9  14
ATOM      3  O   UNL     1      -1.944 -10.759  13.279  0.00  0.00    -0.336 OA
ATOM      5  N   UNL     1      -4.170 -10.589  13.454  0.00  0.00    -0.190 NA
ATOM      8  N   UNL     1      -2.228 -10.757  14.650  0.00  0.00    -0.056 NA
ATOM     14  C   UNL     1      -3.143 -10.656  12.646  0.00  0.00    +0.245 A 
ATOM     16  C   UNL     1      -3.560 -10.655  14.672  0.00  0.00    +0.202 A 
BRANCH  16  18
ATOM      1  F   UNL     1      -6.469 -10.494  19.411  0.00  0.00    -0.205 F 
ATOM     18  C   UNL     1      -4.309 -10.614  15.894  0.00  0.00    +0.023 A 
ATOM     20  C   UNL     1      -5.536  -9.951  15.938  0.00  0.00    +0.014 A 
ATOM     21  C   UNL     1      -3.813 -11.236  17.039  0.00  0.00    +0.014 A 
ATOM     22  C   UNL     1      -6.266  -9.910  17.126  0.00  0.00    +0.039 A 
ATOM     23  C   UNL     1      -4.543 -11.196  18.227  0.00  0.00    +0.039 A 
ATOM     24  C   UNL     1      -5.768 -10.533  18.271  0.00  0.00    +0.123 A 
ENDBRANCH  16  18
ENDBRANCH   9  14
BRANCH  11   2
ATOM      2  O   UNL     1      -4.466  -8.652   8.448  0.00  0.00    -0.390 OA
ATOM     25  H   UNL     1      -3.554  -8.316   8.425  0.00  0.00    +0.210 HD
ENDBRANCH  11   2
BRANCH   4  13
ATOM     13  C   UNL     1      -3.645 -12.910  10.391  0.00  0.00    +0.159 C 
BRANCH  13  15
ATOM      6  N   UNL     1      -2.252 -13.850  12.249  0.00  0.00    -0.347 N 
ATOM      7  N   UNL     1      -4.451 -13.987  12.526  0.00  0.00    -0.239 NA
ATOM     15  C   UNL     1      -3.487 -13.585  11.728  0.00  0.00    +0.121 A 
ATOM     17  C   UNL     1      -2.439 -14.461  13.457  0.00  0.00    +0.104 A 
ATOM     19  C   UNL     1      -3.804 -14.534  13.606  0.00  0.00    +0.130 A 
ATOM     26  H   UNL     1      -1.361 -13.637  11.820  0.00  0.00    +0.167 HD
ENDBRANCH  13  15
ENDBRANCH   4  13
TORSDOF 5
ENDMDL
MODEL 8
REMARK VINA RESULT:      -6.5     32.228     33.287
REMARK  Name = 26744419
REMARK  5 active torsions:
REMARK  status: ('A' for Active; 'I' for Inactive)
REMARK    1  A    between atoms: O_2  and  C_11
REMARK    2  A    between atoms: N_4  and  C_13
REMARK    3  A    between atoms: C_9  and  C_14
REMARK    4  A    between atoms: C_13  and  C_15
REMARK    5  A    between atoms: C_16  and  C_18
REMARK                            x       y       z     vdW  Elec       q    Type
REMARK                         _______ _______ _______ _____ _____    ______ ____
ROOT
ATOM      4  N   UNL     1     -15.408   1.746  29.839  0.00  0.00    -0.282 NA
ATOM      9  C   UNL     1     -15.463   1.266  31.234  0.00  0.00    +0.149 C 
ATOM     10  C   UNL     1     -14.535   0.036  31.263  0.00  0.00    +0.061 C 
ATOM     11  C   UNL     1     -14.043  -0.121  29.830  0.00  0.00    +0.130 C 
ATOM     12  C   UNL     1     -15.111   0.579  29.010  0.00  0.00    +0.117 C 
ENDROOT
BRANCH   9  14
ATOM      3  O   UNL     1     -15.084   1.971  33.544  0.00  0.00    -0.336 OA
ATOM      5  N   UNL     1     -14.678   3.565  32.023  0.00  0.00    -0.190 NA
ATOM      8  N   UNL     1     -14.677   3.101  34.263  0.00  0.00    -0.056 NA
ATOM     14  C   UNL     1     -15.057   2.330  32.232  0.00  0.00    +0.245 A 
ATOM     16  C   UNL     1     -14.456   3.998  33.297  0.00  0.00    +0.202 A 
BRANCH  16  18
ATOM      1  F   UNL     1     -12.733   9.179  34.362  0.00  0.00    -0.205 F 
ATOM     18  C   UNL     1     -14.012   5.334  33.572  0.00  0.00    +0.023 A 
ATOM     20  C   UNL     1     -13.713   6.200  32.520  0.00  0.00    +0.014 A 
ATOM     21  C   UNL     1     -13.880   5.768  34.890  0.00  0.00    +0.014 A 
ATOM     22  C   UNL     1     -13.281   7.499  32.787  0.00  0.00    +0.039 A 
ATOM     23  C   UNL     1     -13.447   7.066  35.157  0.00  0.00    +0.039 A 
ATOM     24  C   UNL     1     -13.148   7.932  34.106  0.00  0.00    +0.123 A 
ENDBRANCH  16  18
ENDBRANCH   9  14
BRANCH  11   2
ATOM      2  O   UNL     1     -13.929  -1.488  29.486  0.00  0.00    -0.390 OA
ATOM     25  H   UNL     1     -13.597  -1.533  28.574  0.00  0.00    +0.210 HD
ENDBRANCH  11   2
BRANCH   4  13
ATOM     13  C   UNL     1     -16.629   2.421  29.415  0.00  0.00    +0.159 C 
BRANCH  13  15
ATOM      6  N   UNL     1     -15.784   3.455  27.295  0.00  0.00    -0.347 N 
ATOM      7  N   UNL     1     -17.504   2.068  27.075  0.00  0.00    -0.239 NA
ATOM     15  C   UNL     1     -16.668   2.624  27.924  0.00  0.00    +0.121 A 
ATOM     17  C   UNL     1     -16.074   3.427  25.959  0.00  0.00    +0.104 A 
ATOM     19  C   UNL     1     -17.138   2.564  25.849  0.00  0.00    +0.130 A 
ATOM     26  H   UNL     1     -15.050   3.994  27.735  0.00  0.00    +0.167 HD
ENDBRANCH  13  15
ENDBRANCH   4  13
TORSDOF 5
ENDMDL
MODEL 9
REMARK VINA RESULT:      -6.5     30.192     32.677
REMARK  Name = 26744419
REMARK  5 active torsions:
REMARK  status: ('A' for Active; 'I' for Inactive)
REMARK    1  A    between atoms: O_2  and  C_11
REMARK    2  A    between atoms: N_4  and  C_13
REMARK    3  A    between atoms: C_9  and  C_14
REMARK    4  A    between atoms: C_13  and  C_15
REMARK    5  A    between atoms: C_16  and  C_18
REMARK                            x       y       z     vdW  Elec       q    Type
REMARK                         _______ _______ _______ _____ _____    ______ ____
ROOT
ATOM      4  N   UNL     1     -17.220   3.135  27.155  0.00  0.00    -0.282 NA
ATOM      9  C   UNL     1     -16.277   2.332  26.351  0.00  0.00    +0.149 C 
ATOM     10  C   UNL     1     -16.886   0.917  26.328  0.00  0.00    +0.061 C 
ATOM     11  C   UNL     1     -18.143   1.014  27.184  0.00  0.00    +0.130 C 
ATOM     12  C   UNL     1     -17.870   2.208  28.080  0.00  0.00    +0.117 C 
ENDROOT
BRANCH   9  14
ATOM      3  O   UNL     1     -16.688   2.254  23.943  0.00  0.00    -0.336 OA
ATOM      5  N   UNL     1     -15.358   3.936  24.590  0.00  0.00    -0.190 NA
ATOM      8  N   UNL     1     -16.347   2.951  22.777  0.00  0.00    -0.056 NA
ATOM     14  C   UNL     1     -16.065   2.900  24.964  0.00  0.00    +0.245 A 
ATOM     16  C   UNL     1     -15.561   3.928  23.241  0.00  0.00    +0.202 A 
BRANCH  16  18
ATOM      1  F   UNL     1     -13.251   7.742  19.914  0.00  0.00    -0.205 F 
ATOM     18  C   UNL     1     -14.966   4.911  22.383  0.00  0.00    +0.023 A 
ATOM     20  C   UNL     1     -13.588   5.125  22.417  0.00  0.00    +0.014 A 
ATOM     21  C   UNL     1     -15.764   5.654  21.514  0.00  0.00    +0.014 A 
ATOM     22  C   UNL     1     -13.009   6.081  21.584  0.00  0.00    +0.039 A 
ATOM     23  C   UNL     1     -15.185   6.610  20.680  0.00  0.00    +0.039 A 
ATOM     24  C   UNL     1     -13.808   6.824  20.715  0.00  0.00    +0.123 A 
ENDBRANCH  16  18
ENDBRANCH   9  14
BRANCH  11   2
ATOM      2  O   UNL     1     -18.334  -0.171  27.931  0.00  0.00    -0.390 OA
ATOM     25  H   UNL     1     -17.466  -0.599  28.027  0.00  0.00    +0.210 HD
ENDBRANCH  11   2
BRANCH   4  13
ATOM     13  C   UNL     1     -16.581   4.244  27.852  0.00  0.00    +0.159 C 
BRANCH  13  15
ATOM      6  N   UNL     1     -14.571   3.348  29.049  0.00  0.00    -0.347 N 
ATOM      7  N   UNL     1     -16.350   3.751  30.315  0.00  0.00    -0.239 NA
ATOM     15  C   UNL     1     -15.864   3.788  29.095  0.00  0.00    +0.121 A 
ATOM     17  C   UNL     1     -14.209   3.009  30.323  0.00  0.00    +0.104 A 
ATOM     19  C   UNL     1     -15.323   3.266  31.086  0.00  0.00    +0.130 A 
ATOM     26  H   UNL     1     -13.988   3.282  28.225  0.00  0.00    +0.167 HD
ENDBRANCH  13  15
ENDBRANCH   4  13
TORSDOF 5
ENDMDL
MODEL 10
REMARK VINA RESULT:      -6.4     15.210     17.414
REMARK  Name = 26744419
REMARK  5 active torsions:
REMARK  status: ('A' for Active; 'I' for Inactive)
REMARK    1  A    between atoms: O_2  and  C_11
REMARK    2  A    between atoms: N_4  and  C_13
REMARK    3  A    between atoms: C_9  and  C_14
REMARK    4  A    between atoms: C_13  and  C_15
REMARK    5  A    between atoms: C_16  and  C_18
REMARK                            x       y       z     vdW  Elec       q    Type
REMARK                         _______ _______ _______ _____ _____    ______ ____
ROOT
ATOM      4  N   UNL     1      11.472   7.221   6.530  0.00  0.00    -0.282 NA
ATOM      9  C   UNL     1      11.680   7.603   5.119  0.00  0.00    +0.149 C 
ATOM     10  C   UNL     1      13.078   8.248   5.087  0.00  0.00    +0.061 C 
ATOM     11  C   UNL     1      13.557   8.223   6.534  0.00  0.00    +0.130 C 
ATOM     12  C   UNL     1      12.269   8.148   7.331  0.00  0.00    +0.117 C 
ENDROOT
BRANCH   9  14
ATOM      3  O   UNL     1      10.877   5.345   4.638  0.00  0.00    -0.336 OA
ATOM      5  N   UNL     1      12.011   6.289   2.954  0.00  0.00    -0.190 NA
ATOM      8  N   UNL     1      10.895   4.401   3.604  0.00  0.00    -0.056 NA
ATOM     14  C   UNL     1      11.556   6.427   4.173  0.00  0.00    +0.245 A 
ATOM     16  C   UNL     1      11.582   5.031   2.646  0.00  0.00    +0.202 A 
BRANCH  16  18
ATOM      1  F   UNL     1      12.635   2.709  -2.298  0.00  0.00    -0.205 F 
ATOM     18  C   UNL     1      11.854   4.433   1.372  0.00  0.00    +0.023 A 
ATOM     20  C   UNL     1      10.902   4.496   0.354  0.00  0.00    +0.014 A 
ATOM     21  C   UNL     1      13.070   3.788   1.148  0.00  0.00    +0.014 A 
ATOM     22  C   UNL     1      11.165   3.913  -0.885  0.00  0.00    +0.039 A 
ATOM     23  C   UNL     1      13.333   3.206  -0.091  0.00  0.00    +0.039 A 
ATOM     24  C   UNL     1      12.381   3.268  -1.108  0.00  0.00    +0.123 A 
ENDBRANCH  16  18
ENDBRANCH   9  14
BRANCH  11   2
ATOM      2  O   UNL     1      14.296   9.390   6.837  0.00  0.00    -0.390 OA
ATOM     25  H   UNL     1      14.073   9.649   7.747  0.00  0.00    +0.210 HD
ENDBRANCH  11   2
BRANCH   4  13
ATOM     13  C   UNL     1      10.069   7.221   6.925  0.00  0.00    +0.159 C 
BRANCH  13  15
ATOM      6  N   UNL     1      10.167   4.818   7.624  0.00  0.00    -0.347 N 
ATOM      7  N   UNL     1       9.084   6.181   9.002  0.00  0.00    -0.239 NA
ATOM     15  C   UNL     1       9.755   6.096   7.875  0.00  0.00    +0.121 A 
ATOM     17  C   UNL     1       9.731   4.037   8.658  0.00  0.00    +0.104 A 
ATOM     19  C   UNL     1       9.066   4.900   9.495  0.00  0.00    +0.130 A 
ATOM     26  H   UNL     1      10.695   4.504   6.821  0.00  0.00    +0.167 HD
ENDBRANCH  13  15
ENDBRANCH   4  13
TORSDOF 5
ENDMDL
