REMARK  Name = 11885303
REMARK  5 active torsions:
REMARK  status: ('A' for Active; 'I' for Inactive)
REMARK    1  A    between atoms: O_4  and  C_26
REMARK    2  A    between atoms: N_5  and  C_14
REMARK    3  A    between atoms: C_14  and  C_19
REMARK    4  A    between atoms: C_17  and  C_20
REMARK    5  A    between atoms: C_22  and  C_26
REMARK                            x       y       z     vdW  Elec       q    Type
REMARK                         _______ _______ _______ _____ _____    ______ ____
ROOT
ATOM      2  O   UNL     1      -1.784   1.892  -1.487  0.00  0.00    -0.267 OA
ATOM      5  N   UNL     1       3.049   0.858  -0.641  0.00  0.00    -0.294 NA
ATOM      6  N   UNL     1       0.089   1.914  -0.099  0.00  0.00    -0.311 N 
ATOM      7  C   UNL     1       2.218   3.223  -0.668  0.00  0.00    +0.024 C 
ATOM      8  C   UNL     1       2.105   1.930   1.409  0.00  0.00    +0.050 C 
ATOM      9  C   UNL     1       2.385   3.320   0.843  0.00  0.00    +0.017 C 
ATOM     10  C   UNL     1       3.206   2.187  -1.244  0.00  0.00    +0.090 C 
ATOM     11  C   UNL     1       3.121   0.921   0.826  0.00  0.00    +0.094 C 
ATOM     12  C   UNL     1       0.756   2.881  -0.983  0.00  0.00    +0.130 C 
ATOM     13  C   UNL     1       0.686   1.496   1.093  0.00  0.00    +0.026 A 
ATOM     15  C   UNL     1       0.013   0.700   1.940  0.00  0.00    +0.022 A 
ATOM     16  C   UNL     1      -1.213   1.517  -0.462  0.00  0.00    +0.259 A 
ATOM     17  C   UNL     1      -1.929   0.598   0.491  0.00  0.00    +0.047 A 
ATOM     18  C   UNL     1      -1.311   0.242   1.628  0.00  0.00    +0.015 A 
ENDROOT
BRANCH  17  20
ATOM      1 CL   UNL     1      -7.404  -1.488  -0.731  0.00  0.00    -0.084 Cl
ATOM     20  C   UNL     1      -3.276   0.084   0.190  0.00  0.00    -0.013 A 
ATOM     24  C   UNL     1      -4.403   0.792   0.610  0.00  0.00    +0.010 A 
ATOM     25  C   UNL     1      -3.428  -1.111  -0.515  0.00  0.00    +0.010 A 
ATOM     27  C   UNL     1      -5.679   0.306   0.325  0.00  0.00    +0.020 A 
ATOM     28  C   UNL     1      -4.704  -1.597  -0.800  0.00  0.00    +0.020 A 
ATOM     29  C   UNL     1      -5.829  -0.888  -0.380  0.00  0.00    +0.041 A 
ENDBRANCH  17  20
BRANCH   5  14
ATOM     14  C   UNL     1       4.036  -0.079  -1.173  0.00  0.00    +0.158 C 
BRANCH  14  19
ATOM      3  O   UNL     1       2.526  -1.874  -0.650  0.00  0.00    -0.461 OA
ATOM     19  C   UNL     1       3.807  -1.467  -0.640  0.00  0.00    +0.119 A 
ATOM     21  C   UNL     1       4.653  -2.399  -0.145  0.00  0.00    +0.046 A 
ATOM     22  C   UNL     1       2.546  -3.132  -0.135  0.00  0.00    +0.131 A 
ATOM     23  C   UNL     1       3.830  -3.500   0.191  0.00  0.00    +0.047 A 
BRANCH  22  26
ATOM     26  C   UNL     1       1.248  -3.814  -0.036  0.00  0.00    +0.230 C 
BRANCH  26   4
ATOM      4  O   UNL     1       0.685  -3.511   1.242  0.00  0.00    -0.387 OA
ATOM     30  H   UNL     1      -0.175  -3.964   1.287  0.00  0.00    +0.210 HD
ENDBRANCH  26   4
ENDBRANCH  22  26
ENDBRANCH  14  19
ENDBRANCH   5  14
TORSDOF 5
