REMARK  Name = 7050335
REMARK  11 active torsions:
REMARK  status: ('A' for Active; 'I' for Inactive)
REMARK    1  A    between atoms: S_1  and  C_30
REMARK    2  A    between atoms: S_1  and  C_34
REMARK    3  A    between atoms: O_5  and  C_23
REMARK    4  A    between atoms: O_5  and  C_31
REMARK    5  A    between atoms: O_6  and  C_24
REMARK    6  A    between atoms: O_6  and  C_32
REMARK    7  A    between atoms: O_7  and  C_26
REMARK    8  A    between atoms: O_7  and  C_33
REMARK    9  A    between atoms: N_9  and  C_18
REMARK   10  A    between atoms: N_10  and  C_12
REMARK   11  A    between atoms: C_19  and  C_22
REMARK                            x       y       z     vdW  Elec       q    Type
REMARK                         _______ _______ _______ _____ _____    ______ ____
ROOT
ATOM      2  O   UNL     1      -1.890   1.320   1.333  0.00  0.00    -0.273 OA
ATOM      3  O   UNL     1      -2.871  -1.784  -1.978  0.00  0.00    -0.252 OA
ATOM      8  N   UNL     1      -0.907  -0.867  -1.151  0.00  0.00    -0.273 N 
ATOM      9  N   UNL     1      -2.829  -0.226  -0.195  0.00  0.00    -0.192 N 
ATOM     11  C   UNL     1      -0.480   0.089  -0.167  0.00  0.00    +0.166 C 
ATOM     12  C   UNL     1       1.371   0.749  -1.770  0.00  0.00    +0.077 C 
ATOM     13  C   UNL     1       0.267   1.247  -0.821  0.00  0.00    +0.054 C 
ATOM     14  C   UNL     1       0.829  -0.291  -2.766  0.00  0.00    +0.041 C 
ATOM     15  C   UNL     1       0.070  -1.423  -2.070  0.00  0.00    +0.112 C 
ATOM     16  C   UNL     1      -1.817   0.499   0.426  0.00  0.00    +0.248 C 
ATOM     17  C   UNL     1      -2.290  -1.058  -1.181  0.00  0.00    +0.316 C 
ENDROOT
BRANCH   9  18
ATOM     18  C   UNL     1      -4.223  -0.121   0.112  0.00  0.00    +0.052 A 
ATOM     20  C   UNL     1      -5.058  -1.226  -0.051  0.00  0.00    +0.069 A 
ATOM     21  C   UNL     1      -4.746   1.087   0.575  0.00  0.00    +0.069 A 
ATOM     23  C   UNL     1      -6.104   1.189   0.875  0.00  0.00    +0.125 A 
ATOM     24  C   UNL     1      -6.417  -1.124   0.249  0.00  0.00    +0.125 A 
ATOM     25  C   UNL     1      -6.940   0.084   0.712  0.00  0.00    +0.091 A 
BRANCH  23   5
ATOM      5  O   UNL     1      -6.615   2.367   1.327  0.00  0.00    -0.495 OA
ATOM     31  C   UNL     1      -8.012   2.401   1.614  0.00  0.00    +0.277 C 
ENDBRANCH  23   5
BRANCH  24   6
ATOM      6  O   UNL     1      -7.232  -2.202   0.091  0.00  0.00    -0.495 OA
ATOM     32  C   UNL     1      -8.610  -2.027   0.416  0.00  0.00    +0.277 C 
ENDBRANCH  24   6
ENDBRANCH   9  18
BRANCH  12  10
ATOM      4  O   UNL     1       3.633   2.227  -0.801  0.00  0.00    -0.270 OA
ATOM     10  N   UNL     1       2.496   0.220  -1.033  0.00  0.00    -0.308 N 
ATOM     19  C   UNL     1       3.546   1.018  -0.606  0.00  0.00    +0.248 C 
ATOM     35  H   UNL     1       2.505  -0.778  -0.854  0.00  0.00    +0.149 HD
BRANCH  19  22
ATOM     22  C   UNL     1       4.639   0.318   0.117  0.00  0.00    +0.078 A 
ATOM     26  C   UNL     1       5.951   0.787   0.057  0.00  0.00    +0.133 A 
ATOM     27  C   UNL     1       4.338  -0.822   0.863  0.00  0.00    +0.018 A 
ATOM     28  C   UNL     1       6.963   0.115   0.743  0.00  0.00    +0.061 A 
ATOM     29  C   UNL     1       5.350  -1.493   1.549  0.00  0.00    +0.015 A 
ATOM     30  C   UNL     1       6.663  -1.024   1.489  0.00  0.00    +0.011 A 
BRANCH  30   1
ATOM      1  S   UNL     1       7.955  -1.883   2.365  0.00  0.00    -0.128 S 
ATOM     34  C   UNL     1       9.073  -2.347   1.012  0.00  0.00    +0.090 C 
ENDBRANCH  30   1
BRANCH  26   7
ATOM      7  O   UNL     1       6.265   1.898  -0.666  0.00  0.00    -0.494 OA
ATOM     33  C   UNL     1       7.632   2.304  -0.670  0.00  0.00    +0.277 C 
ENDBRANCH  26   7
ENDBRANCH  19  22
ENDBRANCH  12  10
TORSDOF 7
