MODEL 1
REMARK VINA RESULT:      -6.4      0.000      0.000
REMARK  Name = 11912603
REMARK  9 active torsions:
REMARK  status: ('A' for Active; 'I' for Inactive)
REMARK    1  A    between atoms: N_7  and  C_19
REMARK    2  A    between atoms: N_8  and  C_20
REMARK    3  A    between atoms: C_9  and  C_15
REMARK    4  A    between atoms: C_10  and  C_14
REMARK    5  A    between atoms: C_14  and  C_16
REMARK    6  A    between atoms: C_15  and  C_17
REMARK    7  A    between atoms: C_19  and  C_21
REMARK    8  A    between atoms: C_21  and  C_24
REMARK    9  A    between atoms: C_25  and  C_28
REMARK                            x       y       z     vdW  Elec       q    Type
REMARK                         _______ _______ _______ _____ _____    ______ ____
ROOT
ATOM      5  O   UNL     1      10.403   3.891   4.562  0.00  0.00    -0.252 OA
ATOM      6  N   UNL     1      11.195   5.133   2.780  0.00  0.00    -0.285 N 
ATOM      8  N   UNL     1      11.009   6.101   4.923  0.00  0.00    -0.269 N 
ATOM      9  C   UNL     1      10.625   5.713   0.002  0.00  0.00    +0.004 C 
ATOM     10  C   UNL     1      10.851   6.855   1.029  0.00  0.00    +0.010 C 
ATOM     11  C   UNL     1      10.131   4.423   0.682  0.00  0.00    +0.023 C 
ATOM     12  C   UNL     1      11.751   6.350   2.169  0.00  0.00    +0.113 C 
ATOM     13  C   UNL     1      11.037   4.019   1.845  0.00  0.00    +0.109 C 
ATOM     18  C   UNL     1      10.844   4.963   4.135  0.00  0.00    +0.306 C 
ATOM     30  H   UNL     1      11.728   6.767   4.665  0.00  0.00    +0.156 HD
ENDROOT
BRANCH   8  20
ATOM     20  C   UNL     1      10.264   6.468   6.071  0.00  0.00    +0.035 A 
ATOM     22  C   UNL     1      10.187   5.601   7.161  0.00  0.00    +0.035 A 
ATOM     23  C   UNL     1       9.607   7.697   6.111  0.00  0.00    +0.023 A 
ATOM     25  C   UNL     1       9.454   5.963   8.291  0.00  0.00    +0.057 A 
ATOM     26  C   UNL     1       8.873   8.061   7.241  0.00  0.00    +0.002 A 
ATOM     27  C   UNL     1       8.797   7.193   8.330  0.00  0.00    +0.012 A 
BRANCH  25  28
ATOM      1  F   UNL     1      10.440   5.124  10.302  0.00  0.00    -0.166 F 
ATOM      2  F   UNL     1       8.276   5.245  10.244  0.00  0.00    -0.166 F 
ATOM      3  F   UNL     1       9.309   3.726   9.080  0.00  0.00    -0.166 F 
ATOM     28  C   UNL     1       9.371   5.036   9.455  0.00  0.00    +0.417 C 
ENDBRANCH  25  28
ENDBRANCH   8  20
BRANCH  10  14
ATOM     14  C   UNL     1       9.556   7.452   1.592  0.00  0.00    +0.002 C 
ATOM     16  C   UNL     1       9.849   8.621   2.510  0.00  0.00    +0.004 C 
ENDBRANCH  10  14
BRANCH   9  15
ATOM     15  C   UNL     1       9.694   6.110  -1.142  0.00  0.00    +0.099 C 
BRANCH  15  17
ATOM      4  O   UNL     1       9.461   5.538  -3.481  0.00  0.00    -0.276 OA
ATOM      7  N   UNL     1      11.480   5.135  -2.402  0.00  0.00    -0.315 N 
ATOM     17  C   UNL     1      10.165   5.574  -2.476  0.00  0.00    +0.213 C 
ATOM     29  H   UNL     1      11.980   5.211  -1.521  0.00  0.00    +0.149 HD
BRANCH   7  19
ATOM     19  C   UNL     1      12.188   4.569  -3.528  0.00  0.00    +0.104 C 
BRANCH  19  21
ATOM     21  C   UNL     1      12.346   3.058  -3.415  0.00  0.00    +0.015 C 
ATOM     24  C   UNL     1      12.101   2.545  -2.002  0.00  0.00    +0.005 C 
ENDBRANCH  19  21
ENDBRANCH   7  19
ENDBRANCH  15  17
ENDBRANCH   9  15
TORSDOF 7
ENDMDL
MODEL 2
REMARK VINA RESULT:      -6.4     23.237     27.035
REMARK  Name = 11912603
REMARK  9 active torsions:
REMARK  status: ('A' for Active; 'I' for Inactive)
REMARK    1  A    between atoms: N_7  and  C_19
REMARK    2  A    between atoms: N_8  and  C_20
REMARK    3  A    between atoms: C_9  and  C_15
REMARK    4  A    between atoms: C_10  and  C_14
REMARK    5  A    between atoms: C_14  and  C_16
REMARK    6  A    between atoms: C_15  and  C_17
REMARK    7  A    between atoms: C_19  and  C_21
REMARK    8  A    between atoms: C_21  and  C_24
REMARK    9  A    between atoms: C_25  and  C_28
REMARK                            x       y       z     vdW  Elec       q    Type
REMARK                         _______ _______ _______ _____ _____    ______ ____
ROOT
ATOM      5  O   UNL     1      -2.066 -10.877  15.536  0.00  0.00    -0.252 OA
ATOM      6  N   UNL     1      -4.132 -11.700  16.168  0.00  0.00    -0.285 N 
ATOM      8  N   UNL     1      -3.582 -11.476  13.886  0.00  0.00    -0.269 N 
ATOM      9  C   UNL     1      -6.300 -11.178  18.013  0.00  0.00    +0.004 C 
ATOM     10  C   UNL     1      -6.569 -11.385  16.499  0.00  0.00    +0.010 C 
ATOM     11  C   UNL     1      -4.869 -10.673  18.276  0.00  0.00    +0.023 C 
ATOM     12  C   UNL     1      -5.462 -12.266  15.896  0.00  0.00    +0.113 C 
ATOM     13  C   UNL     1      -3.827 -11.558  17.593  0.00  0.00    +0.109 C 
ATOM     18  C   UNL     1      -3.169 -11.325  15.208  0.00  0.00    +0.306 C 
ATOM     30  H   UNL     1      -4.259 -12.199  13.671  0.00  0.00    +0.156 HD
ENDROOT
BRANCH   8  20
ATOM     20  C   UNL     1      -3.175 -10.711  12.764  0.00  0.00    +0.035 A 
ATOM     22  C   UNL     1      -4.125 -10.238  11.860  0.00  0.00    +0.035 A 
ATOM     23  C   UNL     1      -1.824 -10.431  12.566  0.00  0.00    +0.023 A 
ATOM     25  C   UNL     1      -3.724  -9.484  10.757  0.00  0.00    +0.057 A 
ATOM     26  C   UNL     1      -1.421  -9.678  11.463  0.00  0.00    +0.002 A 
ATOM     27  C   UNL     1      -2.372  -9.205  10.558  0.00  0.00    +0.012 A 
BRANCH  25  28
ATOM      1  F   UNL     1      -4.294  -8.939   8.498  0.00  0.00    -0.166 F 
ATOM      2  F   UNL     1      -5.879  -9.732   9.748  0.00  0.00    -0.166 F 
ATOM      3  F   UNL     1      -5.150  -7.709  10.074  0.00  0.00    -0.166 F 
ATOM     28  C   UNL     1      -4.740  -8.979   9.789  0.00  0.00    +0.417 C 
ENDBRANCH  25  28
ENDBRANCH   8  20
BRANCH  10  14
ATOM     14  C   UNL     1      -6.709 -10.081  15.705  0.00  0.00    +0.002 C 
ATOM     16  C   UNL     1      -7.033 -10.358  14.252  0.00  0.00    +0.004 C 
ENDBRANCH  10  14
BRANCH   9  15
ATOM     15  C   UNL     1      -7.326 -10.266  18.686  0.00  0.00    +0.099 C 
BRANCH  15  17
ATOM      4  O   UNL     1      -8.317 -12.210  19.729  0.00  0.00    -0.276 OA
ATOM      7  N   UNL     1      -9.587 -10.281  19.470  0.00  0.00    -0.315 N 
ATOM     17  C   UNL     1      -8.437 -11.048  19.352  0.00  0.00    +0.213 C 
ATOM     29  H   UNL     1      -9.583  -9.324  19.128  0.00  0.00    +0.149 HD
BRANCH   7  19
ATOM     19  C   UNL     1     -10.808 -10.775  20.066  0.00  0.00    +0.104 C 
BRANCH  19  21
ATOM     21  C   UNL     1     -12.030  -9.975  19.632  0.00  0.00    +0.015 C 
ATOM     24  C   UNL     1     -11.872  -9.364  18.246  0.00  0.00    +0.005 C 
ENDBRANCH  19  21
ENDBRANCH   7  19
ENDBRANCH  15  17
ENDBRANCH   9  15
TORSDOF 7
ENDMDL
MODEL 3
REMARK VINA RESULT:      -6.2      2.113      3.188
REMARK  Name = 11912603
REMARK  9 active torsions:
REMARK  status: ('A' for Active; 'I' for Inactive)
REMARK    1  A    between atoms: N_7  and  C_19
REMARK    2  A    between atoms: N_8  and  C_20
REMARK    3  A    between atoms: C_9  and  C_15
REMARK    4  A    between atoms: C_10  and  C_14
REMARK    5  A    between atoms: C_14  and  C_16
REMARK    6  A    between atoms: C_15  and  C_17
REMARK    7  A    between atoms: C_19  and  C_21
REMARK    8  A    between atoms: C_21  and  C_24
REMARK    9  A    between atoms: C_25  and  C_28
REMARK                            x       y       z     vdW  Elec       q    Type
REMARK                         _______ _______ _______ _____ _____    ______ ____
ROOT
ATOM      5  O   UNL     1       9.717   6.456   2.239  0.00  0.00    -0.252 OA
ATOM      6  N   UNL     1      10.783   4.623   1.318  0.00  0.00    -0.285 N 
ATOM      8  N   UNL     1      10.665   4.885   3.659  0.00  0.00    -0.269 N 
ATOM      9  C   UNL     1      12.664   3.917  -0.766  0.00  0.00    +0.004 C 
ATOM     10  C   UNL     1      12.863   3.427   0.692  0.00  0.00    +0.010 C 
ATOM     11  C   UNL     1      11.832   5.212  -0.825  0.00  0.00    +0.023 C 
ATOM     12  C   UNL     1      11.499   3.340   1.397  0.00  0.00    +0.113 C 
ATOM     13  C   UNL     1      10.522   5.073  -0.050  0.00  0.00    +0.109 C 
ATOM     18  C   UNL     1      10.332   5.398   2.406  0.00  0.00    +0.306 C 
ATOM     30  H   UNL     1      10.767   3.882   3.758  0.00  0.00    +0.156 HD
ENDROOT
BRANCH   8  20
ATOM     20  C   UNL     1      10.902   5.614   4.851  0.00  0.00    +0.035 A 
ATOM     22  C   UNL     1      10.222   5.278   6.022  0.00  0.00    +0.035 A 
ATOM     23  C   UNL     1      11.816   6.666   4.854  0.00  0.00    +0.023 A 
ATOM     25  C   UNL     1      10.457   5.995   7.195  0.00  0.00    +0.057 A 
ATOM     26  C   UNL     1      12.052   7.384   6.026  0.00  0.00    +0.002 A 
ATOM     27  C   UNL     1      11.371   7.048   7.197  0.00  0.00    +0.012 A 
BRANCH  25  28
ATOM      1  F   UNL     1       8.706   6.489   8.748  0.00  0.00    -0.166 F 
ATOM      2  F   UNL     1       9.160   4.395   8.412  0.00  0.00    -0.166 F 
ATOM      3  F   UNL     1      10.541   5.636   9.543  0.00  0.00    -0.166 F 
ATOM     28  C   UNL     1       9.730   5.636   8.446  0.00  0.00    +0.417 C 
ENDBRANCH  25  28
ENDBRANCH   8  20
BRANCH  10  14
ATOM     14  C   UNL     1      13.836   4.283   1.512  0.00  0.00    +0.002 C 
ATOM     16  C   UNL     1      15.094   3.510   1.849  0.00  0.00    +0.004 C 
ENDBRANCH  10  14
BRANCH   9  15
ATOM     15  C   UNL     1      13.978   4.085  -1.528  0.00  0.00    +0.099 C 
BRANCH  15  17
ATOM      4  O   UNL     1      14.151   5.177  -3.680  0.00  0.00    -0.276 OA
ATOM      7  N   UNL     1      13.072   3.124  -3.524  0.00  0.00    -0.315 N 
ATOM     17  C   UNL     1      13.762   4.218  -3.020  0.00  0.00    +0.213 C 
ATOM     29  H   UNL     1      12.796   2.377  -2.893  0.00  0.00    +0.149 HD
BRANCH   7  19
ATOM     19  C   UNL     1      12.723   2.986  -4.920  0.00  0.00    +0.104 C 
BRANCH  19  21
ATOM     21  C   UNL     1      11.225   3.130  -5.161  0.00  0.00    +0.015 C 
ATOM     24  C   UNL     1      10.413   3.052  -3.876  0.00  0.00    +0.005 C 
ENDBRANCH  19  21
ENDBRANCH   7  19
ENDBRANCH  15  17
ENDBRANCH   9  15
TORSDOF 7
ENDMDL
MODEL 4
REMARK VINA RESULT:      -6.1     23.483     27.192
REMARK  Name = 11912603
REMARK  9 active torsions:
REMARK  status: ('A' for Active; 'I' for Inactive)
REMARK    1  A    between atoms: N_7  and  C_19
REMARK    2  A    between atoms: N_8  and  C_20
REMARK    3  A    between atoms: C_9  and  C_15
REMARK    4  A    between atoms: C_10  and  C_14
REMARK    5  A    between atoms: C_14  and  C_16
REMARK    6  A    between atoms: C_15  and  C_17
REMARK    7  A    between atoms: C_19  and  C_21
REMARK    8  A    between atoms: C_21  and  C_24
REMARK    9  A    between atoms: C_25  and  C_28
REMARK                            x       y       z     vdW  Elec       q    Type
REMARK                         _______ _______ _______ _____ _____    ______ ____
ROOT
ATOM      5  O   UNL     1      -2.246 -10.554  15.633  0.00  0.00    -0.252 OA
ATOM      6  N   UNL     1      -4.210 -11.642  16.183  0.00  0.00    -0.285 N 
ATOM      8  N   UNL     1      -3.529 -11.469  13.931  0.00  0.00    -0.269 N 
ATOM      9  C   UNL     1      -6.564 -11.349  17.842  0.00  0.00    +0.004 C 
ATOM     10  C   UNL     1      -6.685 -11.681  16.331  0.00  0.00    +0.010 C 
ATOM     11  C   UNL     1      -5.247 -10.620  18.163  0.00  0.00    +0.023 C 
ATOM     12  C   UNL     1      -5.418 -12.418  15.863  0.00  0.00    +0.113 C 
ATOM     13  C   UNL     1      -4.038 -11.375  17.612  0.00  0.00    +0.109 C 
ATOM     18  C   UNL     1      -3.243 -11.182  15.265  0.00  0.00    +0.306 C 
ATOM     30  H   UNL     1      -4.075 -12.297  13.722  0.00  0.00    +0.156 HD
ENDROOT
BRANCH   8  20
ATOM     20  C   UNL     1      -3.156 -10.717  12.790  0.00  0.00    +0.035 A 
ATOM     22  C   UNL     1      -4.134 -10.229  11.924  0.00  0.00    +0.035 A 
ATOM     23  C   UNL     1      -1.809 -10.463  12.533  0.00  0.00    +0.023 A 
ATOM     25  C   UNL     1      -3.766  -9.488  10.802  0.00  0.00    +0.057 A 
ATOM     26  C   UNL     1      -1.439  -9.723  11.410  0.00  0.00    +0.002 A 
ATOM     27  C   UNL     1      -2.418  -9.235  10.545  0.00  0.00    +0.012 A 
BRANCH  25  28
ATOM      1  F   UNL     1      -4.435  -8.977   8.563  0.00  0.00    -0.166 F 
ATOM      2  F   UNL     1      -5.980  -9.674   9.915  0.00  0.00    -0.166 F 
ATOM      3  F   UNL     1      -5.157  -7.675  10.147  0.00  0.00    -0.166 F 
ATOM     28  C   UNL     1      -4.812  -8.967   9.876  0.00  0.00    +0.417 C 
ENDBRANCH  25  28
ENDBRANCH   8  20
BRANCH  10  14
ATOM     14  C   UNL     1      -6.954 -10.461  15.443  0.00  0.00    +0.002 C 
ATOM     16  C   UNL     1      -7.171 -10.871  14.001  0.00  0.00    +0.004 C 
ENDBRANCH  10  14
BRANCH   9  15
ATOM     15  C   UNL     1      -7.760 -10.566  18.382  0.00  0.00    +0.099 C 
BRANCH  15  17
ATOM      4  O   UNL     1      -9.407 -10.847  20.131  0.00  0.00    -0.276 OA
ATOM      7  N   UNL     1      -8.066 -12.647  19.526  0.00  0.00    -0.315 N 
ATOM     17  C   UNL     1      -8.517 -11.336  19.442  0.00  0.00    +0.213 C 
ATOM     29  H   UNL     1      -7.323 -12.956  18.906  0.00  0.00    +0.149 HD
BRANCH   7  19
ATOM     19  C   UNL     1      -8.608 -13.610  20.457  0.00  0.00    +0.104 C 
BRANCH  19  21
ATOM     21  C   UNL     1      -9.655 -14.512  19.815  0.00  0.00    +0.015 C 
ATOM     24  C   UNL     1      -9.304 -14.896  18.385  0.00  0.00    +0.005 C 
ENDBRANCH  19  21
ENDBRANCH   7  19
ENDBRANCH  15  17
ENDBRANCH   9  15
TORSDOF 7
ENDMDL
MODEL 5
REMARK VINA RESULT:      -6.0     22.839     23.879
REMARK  Name = 11912603
REMARK  9 active torsions:
REMARK  status: ('A' for Active; 'I' for Inactive)
REMARK    1  A    between atoms: N_7  and  C_19
REMARK    2  A    between atoms: N_8  and  C_20
REMARK    3  A    between atoms: C_9  and  C_15
REMARK    4  A    between atoms: C_10  and  C_14
REMARK    5  A    between atoms: C_14  and  C_16
REMARK    6  A    between atoms: C_15  and  C_17
REMARK    7  A    between atoms: C_19  and  C_21
REMARK    8  A    between atoms: C_21  and  C_24
REMARK    9  A    between atoms: C_25  and  C_28
REMARK                            x       y       z     vdW  Elec       q    Type
REMARK                         _______ _______ _______ _____ _____    ______ ____
ROOT
ATOM      5  O   UNL     1      -3.085 -13.027  11.856  0.00  0.00    -0.252 OA
ATOM      6  N   UNL     1      -3.591 -11.468  10.226  0.00  0.00    -0.285 N 
ATOM      8  N   UNL     1      -2.841 -10.774  12.351  0.00  0.00    -0.269 N 
ATOM      9  C   UNL     1      -5.610 -10.845   8.248  0.00  0.00    +0.004 C 
ATOM     10  C   UNL     1      -5.126  -9.776   9.262  0.00  0.00    +0.010 C 
ATOM     11  C   UNL     1      -5.412 -12.274   8.786  0.00  0.00    +0.023 C 
ATOM     12  C   UNL     1      -3.687 -10.097   9.701  0.00  0.00    +0.113 C 
ATOM     13  C   UNL     1      -3.978 -12.501   9.263  0.00  0.00    +0.109 C 
ATOM     18  C   UNL     1      -3.153 -11.843  11.513  0.00  0.00    +0.306 C 
ATOM     30  H   UNL     1      -2.509  -9.913  11.933  0.00  0.00    +0.156 HD
ENDROOT
BRANCH   8  20
ATOM     20  C   UNL     1      -2.947 -10.729  13.764  0.00  0.00    +0.035 A 
ATOM     22  C   UNL     1      -4.198 -10.602  14.367  0.00  0.00    +0.035 A 
ATOM     23  C   UNL     1      -1.799 -10.812  14.551  0.00  0.00    +0.023 A 
ATOM     25  C   UNL     1      -4.301 -10.558  15.757  0.00  0.00    +0.057 A 
ATOM     26  C   UNL     1      -1.901 -10.768  15.942  0.00  0.00    +0.002 A 
ATOM     27  C   UNL     1      -3.153 -10.641  16.544  0.00  0.00    +0.012 A 
BRANCH  25  28
ATOM      1  F   UNL     1      -6.468 -11.484  16.173  0.00  0.00    -0.166 F 
ATOM      2  F   UNL     1      -5.582 -10.303  17.761  0.00  0.00    -0.166 F 
ATOM      3  F   UNL     1      -6.322  -9.324  15.966  0.00  0.00    -0.166 F 
ATOM     28  C   UNL     1      -5.639 -10.422  16.402  0.00  0.00    +0.417 C 
ENDBRANCH  25  28
ENDBRANCH   8  20
BRANCH  10  14
ATOM     14  C   UNL     1      -6.036  -9.617  10.485  0.00  0.00    +0.002 C 
ATOM     16  C   UNL     1      -5.551  -8.500  11.386  0.00  0.00    +0.004 C 
ENDBRANCH  10  14
BRANCH   9  15
ATOM     15  C   UNL     1      -7.055 -10.634   7.797  0.00  0.00    +0.099 C 
BRANCH  15  17
ATOM      4  O   UNL     1      -6.728  -9.180   5.892  0.00  0.00    -0.276 OA
ATOM      7  N   UNL     1      -8.005  -8.440   7.687  0.00  0.00    -0.315 N 
ATOM     17  C   UNL     1      -7.225  -9.359   7.000  0.00  0.00    +0.213 C 
ATOM     29  H   UNL     1      -8.374  -8.686   8.601  0.00  0.00    +0.149 HD
BRANCH   7  19
ATOM     19  C   UNL     1      -8.328  -7.132   7.164  0.00  0.00    +0.104 C 
BRANCH  19  21
ATOM     21  C   UNL     1      -8.323  -6.057   8.245  0.00  0.00    +0.015 C 
ATOM     24  C   UNL     1      -9.655  -5.330   8.358  0.00  0.00    +0.005 C 
ENDBRANCH  19  21
ENDBRANCH   7  19
ENDBRANCH  15  17
ENDBRANCH   9  15
TORSDOF 7
ENDMDL
MODEL 6
REMARK VINA RESULT:      -6.0     23.107     24.670
REMARK  Name = 11912603
REMARK  9 active torsions:
REMARK  status: ('A' for Active; 'I' for Inactive)
REMARK    1  A    between atoms: N_7  and  C_19
REMARK    2  A    between atoms: N_8  and  C_20
REMARK    3  A    between atoms: C_9  and  C_15
REMARK    4  A    between atoms: C_10  and  C_14
REMARK    5  A    between atoms: C_14  and  C_16
REMARK    6  A    between atoms: C_15  and  C_17
REMARK    7  A    between atoms: C_19  and  C_21
REMARK    8  A    between atoms: C_21  and  C_24
REMARK    9  A    between atoms: C_25  and  C_28
REMARK                            x       y       z     vdW  Elec       q    Type
REMARK                         _______ _______ _______ _____ _____    ______ ____
ROOT
ATOM      5  O   UNL     1      -3.048 -12.548  14.163  0.00  0.00    -0.252 OA
ATOM      6  N   UNL     1      -3.386 -11.188  12.325  0.00  0.00    -0.285 N 
ATOM      8  N   UNL     1      -3.849 -10.397  14.498  0.00  0.00    -0.269 N 
ATOM      9  C   UNL     1      -4.527 -11.231   9.665  0.00  0.00    +0.004 C 
ATOM     10  C   UNL     1      -4.907 -10.122  10.681  0.00  0.00    +0.010 C 
ATOM     11  C   UNL     1      -4.059 -12.517  10.370  0.00  0.00    +0.023 C 
ATOM     12  C   UNL     1      -3.751  -9.919  11.676  0.00  0.00    +0.113 C 
ATOM     13  C   UNL     1      -2.958 -12.230  11.390  0.00  0.00    +0.109 C 
ATOM     18  C   UNL     1      -3.394 -11.453  13.710  0.00  0.00    +0.306 C 
ATOM     30  H   UNL     1      -3.713  -9.451  14.163  0.00  0.00    +0.156 HD
ENDROOT
BRANCH   8  20
ATOM     20  C   UNL     1      -4.517 -10.480  15.745  0.00  0.00    +0.035 A 
ATOM     22  C   UNL     1      -3.950 -11.202  16.795  0.00  0.00    +0.035 A 
ATOM     23  C   UNL     1      -5.743  -9.839  15.923  0.00  0.00    +0.023 A 
ATOM     25  C   UNL     1      -4.607 -11.283  18.022  0.00  0.00    +0.057 A 
ATOM     26  C   UNL     1      -6.402  -9.920  17.150  0.00  0.00    +0.002 A 
ATOM     27  C   UNL     1      -5.833 -10.642  18.199  0.00  0.00    +0.012 A 
BRANCH  25  28
ATOM      1  F   UNL     1      -2.672 -11.797  19.331  0.00  0.00    -0.166 F 
ATOM      2  F   UNL     1      -4.583 -11.810  20.355  0.00  0.00    -0.166 F 
ATOM      3  F   UNL     1      -4.089 -13.404  18.961  0.00  0.00    -0.166 F 
ATOM     28  C   UNL     1      -4.001 -12.055  19.144  0.00  0.00    +0.417 C 
ENDBRANCH  25  28
ENDBRANCH   8  20
BRANCH  10  14
ATOM     14  C   UNL     1      -6.219 -10.383  11.429  0.00  0.00    +0.002 C 
ATOM     16  C   UNL     1      -6.637  -9.173  12.238  0.00  0.00    +0.004 C 
ENDBRANCH  10  14
BRANCH   9  15
ATOM     15  C   UNL     1      -5.643 -11.538   8.666  0.00  0.00    +0.099 C 
BRANCH  15  17
ATOM      4  O   UNL     1      -5.446  -9.554   7.296  0.00  0.00    -0.276 OA
ATOM      7  N   UNL     1      -7.506 -10.102   8.223  0.00  0.00    -0.315 N 
ATOM     17  C   UNL     1      -6.153 -10.291   7.977  0.00  0.00    +0.213 C 
ATOM     29  H   UNL     1      -8.004 -10.774   8.800  0.00  0.00    +0.149 HD
BRANCH   7  19
ATOM     19  C   UNL     1      -8.256  -8.987   7.692  0.00  0.00    +0.104 C 
BRANCH  19  21
ATOM     21  C   UNL     1      -8.333  -7.821   8.670  0.00  0.00    +0.015 C 
ATOM     24  C   UNL     1      -7.852  -6.511   8.063  0.00  0.00    +0.005 C 
ENDBRANCH  19  21
ENDBRANCH   7  19
ENDBRANCH  15  17
ENDBRANCH   9  15
TORSDOF 7
ENDMDL
MODEL 7
REMARK VINA RESULT:      -5.9     25.383     28.460
REMARK  Name = 11912603
REMARK  9 active torsions:
REMARK  status: ('A' for Active; 'I' for Inactive)
REMARK    1  A    between atoms: N_7  and  C_19
REMARK    2  A    between atoms: N_8  and  C_20
REMARK    3  A    between atoms: C_9  and  C_15
REMARK    4  A    between atoms: C_10  and  C_14
REMARK    5  A    between atoms: C_14  and  C_16
REMARK    6  A    between atoms: C_15  and  C_17
REMARK    7  A    between atoms: C_19  and  C_21
REMARK    8  A    between atoms: C_21  and  C_24
REMARK    9  A    between atoms: C_25  and  C_28
REMARK                            x       y       z     vdW  Elec       q    Type
REMARK                         _______ _______ _______ _____ _____    ______ ____
ROOT
ATOM      5  O   UNL     1      -8.296 -14.293  17.024  0.00  0.00    -0.252 OA
ATOM      6  N   UNL     1      -6.154 -13.499  17.374  0.00  0.00    -0.285 N 
ATOM      8  N   UNL     1      -7.722 -13.521  19.135  0.00  0.00    -0.269 N 
ATOM      9  C   UNL     1      -4.159 -11.781  16.170  0.00  0.00    +0.004 C 
ATOM     10  C   UNL     1      -4.573 -11.609  17.655  0.00  0.00    +0.010 C 
ATOM     11  C   UNL     1      -5.275 -12.439  15.337  0.00  0.00    +0.023 C 
ATOM     12  C   UNL     1      -5.072 -12.955  18.209  0.00  0.00    +0.113 C 
ATOM     13  C   UNL     1      -5.767 -13.734  15.982  0.00  0.00    +0.109 C 
ATOM     18  C   UNL     1      -7.460 -13.817  17.798  0.00  0.00    +0.306 C 
ATOM     30  H   UNL     1      -6.953 -13.547  19.795  0.00  0.00    +0.156 HD
ENDROOT
BRANCH   8  20
ATOM     20  C   UNL     1      -8.966 -13.160  19.709  0.00  0.00    +0.035 A 
ATOM     22  C   UNL     1      -9.529 -11.915  19.429  0.00  0.00    +0.035 A 
ATOM     23  C   UNL     1      -9.628 -14.050  20.553  0.00  0.00    +0.023 A 
ATOM     25  C   UNL     1     -10.754 -11.560  19.994  0.00  0.00    +0.057 A 
ATOM     26  C   UNL     1     -10.854 -13.697  21.119  0.00  0.00    +0.002 A 
ATOM     27  C   UNL     1     -11.416 -12.451  20.839  0.00  0.00    +0.012 A 
BRANCH  25  28
ATOM      1  F   UNL     1     -10.522  -9.394  19.006  0.00  0.00    -0.166 F 
ATOM      2  F   UNL     1     -12.492 -10.298  18.940  0.00  0.00    -0.166 F 
ATOM      3  F   UNL     1     -11.706  -9.547  20.823  0.00  0.00    -0.166 F 
ATOM     28  C   UNL     1     -11.355 -10.229  19.695  0.00  0.00    +0.417 C 
ENDBRANCH  25  28
ENDBRANCH   8  20
BRANCH  10  14
ATOM     14  C   UNL     1      -5.618 -10.512  17.889  0.00  0.00    +0.002 C 
ATOM     16  C   UNL     1      -6.010 -10.434  19.350  0.00  0.00    +0.004 C 
ENDBRANCH  10  14
BRANCH   9  15
ATOM     15  C   UNL     1      -3.699 -10.477  15.520  0.00  0.00    +0.099 C 
BRANCH  15  17
ATOM      4  O   UNL     1      -1.347 -10.856  15.096  0.00  0.00    -0.276 OA
ATOM      7  N   UNL     1      -2.805 -10.609  13.303  0.00  0.00    -0.315 N 
ATOM     17  C   UNL     1      -2.476 -10.671  14.650  0.00  0.00    +0.213 C 
ATOM     29  H   UNL     1      -3.773 -10.455  13.035  0.00  0.00    +0.149 HD
BRANCH   7  19
ATOM     19  C   UNL     1      -1.833 -10.758  12.245  0.00  0.00    +0.104 C 
BRANCH  19  21
ATOM     21  C   UNL     1      -1.868  -9.598  11.257  0.00  0.00    +0.015 C 
ATOM     24  C   UNL     1      -3.176  -9.526  10.481  0.00  0.00    +0.005 C 
ENDBRANCH  19  21
ENDBRANCH   7  19
ENDBRANCH  15  17
ENDBRANCH   9  15
TORSDOF 7
ENDMDL
MODEL 8
REMARK VINA RESULT:      -5.9     24.605     28.521
REMARK  Name = 11912603
REMARK  9 active torsions:
REMARK  status: ('A' for Active; 'I' for Inactive)
REMARK    1  A    between atoms: N_7  and  C_19
REMARK    2  A    between atoms: N_8  and  C_20
REMARK    3  A    between atoms: C_9  and  C_15
REMARK    4  A    between atoms: C_10  and  C_14
REMARK    5  A    between atoms: C_14  and  C_16
REMARK    6  A    between atoms: C_15  and  C_17
REMARK    7  A    between atoms: C_19  and  C_21
REMARK    8  A    between atoms: C_21  and  C_24
REMARK    9  A    between atoms: C_25  and  C_28
REMARK                            x       y       z     vdW  Elec       q    Type
REMARK                         _______ _______ _______ _____ _____    ______ ____
ROOT
ATOM      5  O   UNL     1      -6.876 -10.209  14.579  0.00  0.00    -0.252 OA
ATOM      6  N   UNL     1      -6.958 -10.165  16.888  0.00  0.00    -0.285 N 
ATOM      8  N   UNL     1      -4.885 -10.121  15.765  0.00  0.00    -0.269 N 
ATOM      9  C   UNL     1      -8.269 -11.452  19.125  0.00  0.00    +0.004 C 
ATOM     10  C   UNL     1      -6.725 -11.307  19.077  0.00  0.00    +0.010 C 
ATOM     11  C   UNL     1      -8.888 -11.442  17.716  0.00  0.00    +0.023 C 
ATOM     12  C   UNL     1      -6.350 -10.082  18.225  0.00  0.00    +0.113 C 
ATOM     13  C   UNL     1      -8.420 -10.234  16.905  0.00  0.00    +0.109 C 
ATOM     18  C   UNL     1      -6.274 -10.158  15.655  0.00  0.00    +0.306 C 
ATOM     30  H   UNL     1      -4.476  -9.669  16.575  0.00  0.00    +0.156 HD
ENDROOT
BRANCH   8  20
ATOM     20  C   UNL     1      -3.935 -10.667  14.866  0.00  0.00    +0.035 A 
ATOM     22  C   UNL     1      -3.948 -10.291  13.523  0.00  0.00    +0.035 A 
ATOM     23  C   UNL     1      -2.988 -11.581  15.325  0.00  0.00    +0.023 A 
ATOM     25  C   UNL     1      -3.013 -10.828  12.639  0.00  0.00    +0.057 A 
ATOM     26  C   UNL     1      -2.052 -12.120  14.441  0.00  0.00    +0.002 A 
ATOM     27  C   UNL     1      -2.066 -11.744  13.098  0.00  0.00    +0.012 A 
BRANCH  25  28
ATOM      1  F   UNL     1      -3.040 -11.484  10.339  0.00  0.00    -0.166 F 
ATOM      2  F   UNL     1      -4.112  -9.672  10.857  0.00  0.00    -0.166 F 
ATOM      3  F   UNL     1      -1.937  -9.683  10.856  0.00  0.00    -0.166 F 
ATOM     28  C   UNL     1      -3.027 -10.426  11.203  0.00  0.00    +0.417 C 
ENDBRANCH  25  28
ENDBRANCH   8  20
BRANCH  10  14
ATOM     14  C   UNL     1      -5.995 -12.557  18.570  0.00  0.00    +0.002 C 
ATOM     16  C   UNL     1      -4.495 -12.410  18.715  0.00  0.00    +0.004 C 
ENDBRANCH  10  14
BRANCH   9  15
ATOM     15  C   UNL     1      -8.732 -12.680  19.909  0.00  0.00    +0.099 C 
BRANCH  15  17
ATOM      4  O   UNL     1     -10.875 -13.761  19.609  0.00  0.00    -0.276 OA
ATOM      7  N   UNL     1     -10.792 -11.620  20.511  0.00  0.00    -0.315 N 
ATOM     17  C   UNL     1     -10.240 -12.778  19.980  0.00  0.00    +0.213 C 
ATOM     29  H   UNL     1     -10.178 -10.861  20.793  0.00  0.00    +0.149 HD
BRANCH   7  19
ATOM     19  C   UNL     1     -12.214 -11.435  20.692  0.00  0.00    +0.104 C 
BRANCH  19  21
ATOM     21  C   UNL     1     -12.676 -10.046  20.268  0.00  0.00    +0.015 C 
ATOM     24  C   UNL     1     -12.162  -9.649  18.892  0.00  0.00    +0.005 C 
ENDBRANCH  19  21
ENDBRANCH   7  19
ENDBRANCH  15  17
ENDBRANCH   9  15
TORSDOF 7
ENDMDL
MODEL 9
REMARK VINA RESULT:      -5.8     24.376     28.179
REMARK  Name = 11912603
REMARK  9 active torsions:
REMARK  status: ('A' for Active; 'I' for Inactive)
REMARK    1  A    between atoms: N_7  and  C_19
REMARK    2  A    between atoms: N_8  and  C_20
REMARK    3  A    between atoms: C_9  and  C_15
REMARK    4  A    between atoms: C_10  and  C_14
REMARK    5  A    between atoms: C_14  and  C_16
REMARK    6  A    between atoms: C_15  and  C_17
REMARK    7  A    between atoms: C_19  and  C_21
REMARK    8  A    between atoms: C_21  and  C_24
REMARK    9  A    between atoms: C_25  and  C_28
REMARK                            x       y       z     vdW  Elec       q    Type
REMARK                         _______ _______ _______ _____ _____    ______ ____
ROOT
ATOM      5  O   UNL     1      -7.800 -10.943  13.299  0.00  0.00    -0.252 OA
ATOM      6  N   UNL     1      -7.536 -10.235  15.484  0.00  0.00    -0.285 N 
ATOM      8  N   UNL     1      -5.955  -9.644  13.837  0.00  0.00    -0.269 N 
ATOM      9  C   UNL     1      -7.680 -11.211  18.205  0.00  0.00    +0.004 C 
ATOM     10  C   UNL     1      -6.436 -10.434  17.698  0.00  0.00    +0.010 C 
ATOM     11  C   UNL     1      -8.433 -11.901  17.053  0.00  0.00    +0.023 C 
ATOM     12  C   UNL     1      -6.849  -9.494  16.553  0.00  0.00    +0.113 C 
ATOM     13  C   UNL     1      -8.752 -10.921  15.925  0.00  0.00    +0.109 C 
ATOM     18  C   UNL     1      -7.143 -10.310  14.132  0.00  0.00    +0.306 C 
ATOM     30  H   UNL     1      -5.703  -8.837  14.395  0.00  0.00    +0.156 HD
ENDROOT
BRANCH   8  20
ATOM     20  C   UNL     1      -5.011  -9.972  12.831  0.00  0.00    +0.035 A 
ATOM     22  C   UNL     1      -5.223  -9.564  11.515  0.00  0.00    +0.035 A 
ATOM     23  C   UNL     1      -3.870 -10.703  13.159  0.00  0.00    +0.023 A 
ATOM     25  C   UNL     1      -4.294  -9.886  10.526  0.00  0.00    +0.057 A 
ATOM     26  C   UNL     1      -2.940 -11.026  12.171  0.00  0.00    +0.002 A 
ATOM     27  C   UNL     1      -3.153 -10.618  10.854  0.00  0.00    +0.012 A 
BRANCH  25  28
ATOM      1  F   UNL     1      -3.685  -8.448   8.714  0.00  0.00    -0.166 F 
ATOM      2  F   UNL     1      -4.347 -10.448   8.202  0.00  0.00    -0.166 F 
ATOM      3  F   UNL     1      -5.784  -8.978   8.912  0.00  0.00    -0.166 F 
ATOM     28  C   UNL     1      -4.521  -9.450   9.119  0.00  0.00    +0.417 C 
ENDBRANCH  25  28
ENDBRANCH   8  20
BRANCH  10  14
ATOM     14  C   UNL     1      -5.274 -11.334  17.259  0.00  0.00    +0.002 C 
ATOM     16  C   UNL     1      -4.079 -10.510  16.829  0.00  0.00    +0.004 C 
ENDBRANCH  10  14
BRANCH   9  15
ATOM     15  C   UNL     1      -7.351 -12.213  19.312  0.00  0.00    +0.099 C 
BRANCH  15  17
ATOM      4  O   UNL     1      -9.527 -11.923  20.328  0.00  0.00    -0.276 OA
ATOM      7  N   UNL     1      -8.504 -14.009  20.396  0.00  0.00    -0.315 N 
ATOM     17  C   UNL     1      -8.586 -12.664  20.060  0.00  0.00    +0.213 C 
ATOM     29  H   UNL     1      -7.681 -14.539  20.124  0.00  0.00    +0.149 HD
BRANCH   7  19
ATOM     19  C   UNL     1      -9.543 -14.707  21.119  0.00  0.00    +0.104 C 
BRANCH  19  21
ATOM     21  C   UNL     1      -8.997 -15.869  21.940  0.00  0.00    +0.015 C 
ATOM     24  C   UNL     1      -8.410 -15.423  23.272  0.00  0.00    +0.005 C 
ENDBRANCH  19  21
ENDBRANCH   7  19
ENDBRANCH  15  17
ENDBRANCH   9  15
TORSDOF 7
ENDMDL
MODEL 10
REMARK VINA RESULT:      -5.8     24.506     28.290
REMARK  Name = 11912603
REMARK  9 active torsions:
REMARK  status: ('A' for Active; 'I' for Inactive)
REMARK    1  A    between atoms: N_7  and  C_19
REMARK    2  A    between atoms: N_8  and  C_20
REMARK    3  A    between atoms: C_9  and  C_15
REMARK    4  A    between atoms: C_10  and  C_14
REMARK    5  A    between atoms: C_14  and  C_16
REMARK    6  A    between atoms: C_15  and  C_17
REMARK    7  A    between atoms: C_19  and  C_21
REMARK    8  A    between atoms: C_21  and  C_24
REMARK    9  A    between atoms: C_25  and  C_28
REMARK                            x       y       z     vdW  Elec       q    Type
REMARK                         _______ _______ _______ _____ _____    ______ ____
ROOT
ATOM      5  O   UNL     1      -7.770 -10.996  13.426  0.00  0.00    -0.252 OA
ATOM      6  N   UNL     1      -7.896 -10.031  15.523  0.00  0.00    -0.285 N 
ATOM      8  N   UNL     1      -5.951  -9.788  14.211  0.00  0.00    -0.269 N 
ATOM      9  C   UNL     1      -8.709 -10.627  18.237  0.00  0.00    +0.004 C 
ATOM     10  C   UNL     1      -7.311 -10.025  17.933  0.00  0.00    +0.010 C 
ATOM     11  C   UNL     1      -9.272 -11.400  17.030  0.00  0.00    +0.023 C 
ATOM     12  C   UNL     1      -7.374  -9.212  16.628  0.00  0.00    +0.113 C 
ATOM     13  C   UNL     1      -9.242 -10.555  15.758  0.00  0.00    +0.109 C 
ATOM     18  C   UNL     1      -7.239 -10.313  14.308  0.00  0.00    +0.306 C 
ATOM     30  H   UNL     1      -5.737  -8.937  14.718  0.00  0.00    +0.156 HD
ENDROOT
BRANCH   8  20
ATOM     20  C   UNL     1      -4.858 -10.318  13.481  0.00  0.00    +0.035 A 
ATOM     22  C   UNL     1      -3.922 -11.132  14.119  0.00  0.00    +0.035 A 
ATOM     23  C   UNL     1      -4.719 -10.027  12.125  0.00  0.00    +0.023 A 
ATOM     25  C   UNL     1      -2.847 -11.654  13.400  0.00  0.00    +0.057 A 
ATOM     26  C   UNL     1      -3.644 -10.548  11.405  0.00  0.00    +0.002 A 
ATOM     27  C   UNL     1      -2.708 -11.361  12.043  0.00  0.00    +0.012 A 
BRANCH  25  28
ATOM      1  F   UNL     1      -0.907 -13.045  13.236  0.00  0.00    -0.166 F 
ATOM      2  F   UNL     1      -1.130 -11.878  15.050  0.00  0.00    -0.166 F 
ATOM      3  F   UNL     1      -2.416 -13.596  14.701  0.00  0.00    -0.166 F 
ATOM     28  C   UNL     1      -1.845 -12.523  14.082  0.00  0.00    +0.417 C 
ENDBRANCH  25  28
ENDBRANCH   8  20
BRANCH  10  14
ATOM     14  C   UNL     1      -6.185 -11.063  17.865  0.00  0.00    +0.002 C 
ATOM     16  C   UNL     1      -4.849 -10.402  17.599  0.00  0.00    +0.004 C 
ENDBRANCH  10  14
BRANCH   9  15
ATOM     15  C   UNL     1      -8.727 -11.498  19.492  0.00  0.00    +0.099 C 
BRANCH  15  17
ATOM      4  O   UNL     1     -10.608 -12.493  20.642  0.00  0.00    -0.276 OA
ATOM      7  N   UNL     1     -10.620 -10.212  20.194  0.00  0.00    -0.315 N 
ATOM     17  C   UNL     1     -10.077 -11.490  20.175  0.00  0.00    +0.213 C 
ATOM     29  H   UNL     1     -10.097  -9.445  19.781  0.00  0.00    +0.149 HD
BRANCH   7  19
ATOM     19  C   UNL     1     -11.906  -9.909  20.781  0.00  0.00    +0.104 C 
BRANCH  19  21
ATOM     21  C   UNL     1     -13.017  -9.841  19.740  0.00  0.00    +0.015 C 
ATOM     24  C   UNL     1     -12.496  -9.533  18.343  0.00  0.00    +0.005 C 
ENDBRANCH  19  21
ENDBRANCH   7  19
ENDBRANCH  15  17
ENDBRANCH   9  15
TORSDOF 7
ENDMDL
