REMARK  Name = 40779423
REMARK  5 active torsions:
REMARK  status: ('A' for Active; 'I' for Inactive)
REMARK    1  A    between atoms: N_4  and  C_24
REMARK    2  A    between atoms: N_5  and  C_16
REMARK    3  A    between atoms: C_9  and  C_15
REMARK    4  A    between atoms: C_10  and  C_16
REMARK    5  A    between atoms: C_18  and  C_19
REMARK                            x       y       z     vdW  Elec       q    Type
REMARK                         _______ _______ _______ _____ _____    ______ ____
ROOT
ATOM      3  N   UNL     1       0.536   3.262  -1.418  0.00  0.00    -0.297 NA
ATOM      8  C   UNL     1       1.036   2.636   1.060  0.00  0.00    +0.002 C 
ATOM      9  C   UNL     1       2.158   2.102   0.127  0.00  0.00    +0.055 C 
ATOM     10  C   UNL     1      -0.662   2.636  -0.800  0.00  0.00    +0.074 C 
ATOM     11  C   UNL     1      -0.324   2.072   0.596  0.00  0.00    +0.024 C 
ATOM     12  C   UNL     1       1.692   2.335  -1.339  0.00  0.00    +0.094 C 
ATOM     13  C   UNL     1       0.984   4.167   0.863  0.00  0.00    +0.019 C 
ATOM     14  C   UNL     1       0.866   4.480  -0.639  0.00  0.00    +0.085 C 
ENDROOT
BRANCH   9  15
ATOM      4  N   UNL     1       3.699   0.392   1.196  0.00  0.00    -0.271 N 
ATOM      6  N   UNL     1       3.995  -0.918   1.255  0.00  0.00    -0.176 NA
ATOM     15  C   UNL     1       2.668   0.686   0.353  0.00  0.00    +0.044 A 
ATOM     17  C   UNL     1       2.261  -0.514  -0.176  0.00  0.00    +0.048 A 
ATOM     19  C   UNL     1       3.113  -1.466   0.415  0.00  0.00    +0.066 A 
ATOM     24  C   UNL     1       4.464   1.324   1.990  0.00  0.00    +0.172 C 
BRANCH  19  18
ATOM     18  C   UNL     1       3.116  -2.963   0.195  0.00  0.00    +0.040 C 
ATOM     20  C   UNL     1       1.784  -3.620   0.599  0.00  0.00    +0.010 C 
ATOM     21  C   UNL     1       3.369  -3.394  -1.264  0.00  0.00    +0.010 C 
ATOM     22  C   UNL     1       1.585  -4.742  -0.409  0.00  0.00    +0.001 C 
ATOM     23  C   UNL     1       2.112  -4.140  -1.700  0.00  0.00    +0.001 C 
ENDBRANCH  19  18
ENDBRANCH   9  15
BRANCH  10  16
ATOM     16  C   UNL     1      -1.298   1.578  -1.704  0.00  0.00    +0.124 C 
BRANCH  16   5
ATOM      1  O   UNL     1      -1.806  -1.101  -1.008  0.00  0.00    -0.253 OA
ATOM      2  O   UNL     1      -6.122  -1.296   1.404  0.00  0.00    -0.377 OA
ATOM      5  N   UNL     1      -2.524   1.075  -1.126  0.00  0.00    -0.298 N 
ATOM      7  N   UNL     1      -3.945  -0.604  -0.261  0.00  0.00    -0.281 N 
ATOM     25  C   UNL     1      -2.696  -0.268  -0.809  0.00  0.00    +0.302 C 
ATOM     26  C   UNL     1      -4.216  -1.999   0.096  0.00  0.00    +0.137 C 
ATOM     27  C   UNL     1      -5.106   0.289  -0.133  0.00  0.00    +0.137 C 
ATOM     28  C   UNL     1      -4.935  -2.090   1.433  0.00  0.00    +0.179 C 
ATOM     29  C   UNL     1      -5.805   0.082   1.206  0.00  0.00    +0.179 C 
ATOM     30  H   UNL     1      -3.275   1.743  -1.030  0.00  0.00    +0.150 HD
ENDBRANCH  16   5
ENDBRANCH  10  16
TORSDOF 4
