REMARK  Name = 25312695
REMARK  9 active torsions:
REMARK  status: ('A' for Active; 'I' for Inactive)
REMARK    1  A    between atoms: O_3  and  C_29
REMARK    2  A    between atoms: O_5  and  C_35
REMARK    3  A    between atoms: O_5  and  C_36
REMARK    4  A    between atoms: N_6  and  C_16
REMARK    5  A    between atoms: C_14  and  C_18
REMARK    6  A    between atoms: C_16  and  C_18
REMARK    7  A    between atoms: C_17  and  C_23
REMARK    8  A    between atoms: C_23  and  C_29
REMARK    9  A    between atoms: C_27  and  C_30
REMARK                            x       y       z     vdW  Elec       q    Type
REMARK                         _______ _______ _______ _____ _____    ______ ____
ROOT
ATOM      2  O   UNL     1      -1.594  -2.993   2.474  0.00  0.00    -0.270 OA
ATOM      8  N   UNL     1      -2.622  -2.041   0.599  0.00  0.00    -0.297 N 
ATOM     14  C   UNL     1      -2.854  -0.151  -0.997  0.00  0.00    +0.011 C 
ATOM     17  C   UNL     1      -4.159   0.256  -0.265  0.00  0.00    +0.006 C 
ATOM     20  C   UNL     1      -2.602  -1.659  -0.820  0.00  0.00    +0.112 C 
ATOM     21  C   UNL     1      -4.152  -0.207   1.202  0.00  0.00    +0.023 C 
ATOM     22  C   UNL     1      -3.853  -1.700   1.310  0.00  0.00    +0.108 C 
ATOM     27  C   UNL     1      -1.584  -2.676   1.285  0.00  0.00    +0.247 C 
ENDROOT
BRANCH  27  30
ATOM     30  C   UNL     1      -0.363  -3.004   0.539  0.00  0.00    +0.037 A 
ATOM     31  C   UNL     1       0.683  -2.083   0.476  0.00  0.00    +0.016 A 
ATOM     32  C   UNL     1      -0.249  -4.235  -0.106  0.00  0.00    +0.016 A 
ATOM     33  C   UNL     1       1.843  -2.393  -0.233  0.00  0.00    +0.046 A 
ATOM     34  C   UNL     1       0.911  -4.545  -0.816  0.00  0.00    +0.046 A 
ATOM     35  C   UNL     1       1.957  -3.624  -0.879  0.00  0.00    +0.120 A 
BRANCH  35   5
ATOM      5  O   UNL     1       3.089  -3.927  -1.571  0.00  0.00    -0.495 OA
ATOM     36  C   UNL     1       4.119  -2.940  -1.596  0.00  0.00    +0.277 C 
ENDBRANCH  35   5
ENDBRANCH  27  30
BRANCH  14  18
ATOM     18  C   UNL     1      -1.621   0.650  -0.561  0.00  0.00    +0.020 C 
BRANCH  18  16
ATOM     16  C   UNL     1      -0.569   0.696  -1.667  0.00  0.00    +0.085 C 
BRANCH  16   6
ATOM      1  O   UNL     1       2.643   2.656   3.203  0.00  0.00    -0.268 OA
ATOM      6  N   UNL     1       0.603   1.446  -1.222  0.00  0.00    -0.301 NA
ATOM      7  N   UNL     1       2.828   2.313   0.893  0.00  0.00    -0.312 N 
ATOM      9  C   UNL     1       1.580   3.723  -0.843  0.00  0.00    +0.024 C 
ATOM     10  C   UNL     1       3.034   1.895  -1.581  0.00  0.00    +0.050 C 
ATOM     11  C   UNL     1       2.760   3.388  -1.746  0.00  0.00    +0.017 C 
ATOM     12  C   UNL     1       0.347   2.891  -1.255  0.00  0.00    +0.089 C 
ATOM     13  C   UNL     1       1.788   1.091  -2.016  0.00  0.00    +0.094 C 
ATOM     15  C   UNL     1       1.990   3.487   0.617  0.00  0.00    +0.130 C 
ATOM     19  C   UNL     1       3.401   1.571  -0.145  0.00  0.00    +0.026 A 
ATOM     24  C   UNL     1       4.253   0.569   0.132  0.00  0.00    +0.022 A 
ATOM     25  C   UNL     1       3.102   2.033   2.245  0.00  0.00    +0.251 A 
ATOM     26  C   UNL     1       4.572   0.229   1.490  0.00  0.00    +0.007 A 
ATOM     28  C   UNL     1       4.032   0.900   2.511  0.00  0.00    +0.070 A 
ENDBRANCH  16   6
ENDBRANCH  18  16
ENDBRANCH  14  18
BRANCH  17  23
ATOM     23  C   UNL     1      -4.458   1.751  -0.356  0.00  0.00    +0.124 C 
BRANCH  23  29
ATOM      4  O   UNL     1      -6.797   1.220   0.082  0.00  0.00    -0.251 OA
ATOM     29  C   UNL     1      -5.919   2.039  -0.144  0.00  0.00    +0.305 C 
BRANCH  29   3
ATOM      3  O   UNL     1      -6.141   3.375  -0.239  0.00  0.00    -0.481 OA
ATOM     37  H   UNL     1      -7.087   3.599  -0.105  0.00  0.00    +0.295 HD
ENDBRANCH  29   3
ENDBRANCH  23  29
ENDBRANCH  17  23
TORSDOF 8
