MODEL 1
REMARK VINA RESULT:      -5.5      0.000      0.000
REMARK  Name = 11912055
REMARK  8 active torsions:
REMARK  status: ('A' for Active; 'I' for Inactive)
REMARK    1  A    between atoms: N_4  and  C_17
REMARK    2  A    between atoms: C_6  and  C_12
REMARK    3  A    between atoms: C_7  and  C_11
REMARK    4  A    between atoms: C_11  and  C_13
REMARK    5  A    between atoms: C_12  and  C_15
REMARK    6  A    between atoms: C_14  and  C_16
REMARK    7  A    between atoms: C_17  and  C_20
REMARK    8  A    between atoms: C_20  and  C_22
REMARK                            x       y       z     vdW  Elec       q    Type
REMARK                         _______ _______ _______ _____ _____    ______ ____
ROOT
ATOM      1  O   UNL     1      -1.075 -10.205  11.665  0.00  0.00    -0.270 OA
ATOM      3  N   UNL     1      -2.845 -10.367  13.186  0.00  0.00    -0.297 N 
ATOM      6  C   UNL     1      -3.715 -11.613  15.680  0.00  0.00    +0.004 C 
ATOM      7  C   UNL     1      -4.578 -11.651  14.392  0.00  0.00    +0.010 C 
ATOM      8  C   UNL     1      -2.229 -11.456  15.302  0.00  0.00    +0.023 C 
ATOM      9  C   UNL     1      -4.283 -10.452  13.477  0.00  0.00    +0.112 C 
ATOM     10  C   UNL     1      -1.983 -10.276  14.363  0.00  0.00    +0.108 C 
ATOM     14  C   UNL     1      -2.275 -10.320  11.911  0.00  0.00    +0.248 C 
ENDROOT
BRANCH  14  16
ATOM      5  N   UNL     1      -4.438 -11.833   9.255  0.00  0.00    -0.263 NA
ATOM     16  C   UNL     1      -3.166 -10.429  10.749  0.00  0.00    +0.055 A 
ATOM     18  C   UNL     1      -3.575  -9.299  10.057  0.00  0.00    +0.016 A 
ATOM     19  C   UNL     1      -3.618 -11.662  10.316  0.00  0.00    +0.123 A 
ATOM     21  C   UNL     1      -4.418  -9.434   8.959  0.00  0.00    +0.020 A 
ATOM     23  C   UNL     1      -4.818 -10.711   8.602  0.00  0.00    +0.111 A 
ENDBRANCH  14  16
BRANCH   7  11
ATOM     11  C   UNL     1      -6.075 -11.755  14.676  0.00  0.00    +0.002 C 
ATOM     13  C   UNL     1      -6.449 -13.150  15.130  0.00  0.00    +0.004 C 
ENDBRANCH   7  11
BRANCH   6  12
ATOM     12  C   UNL     1      -4.138 -10.534  16.684  0.00  0.00    +0.099 C 
BRANCH  12  15
ATOM      2  O   UNL     1      -3.682 -11.825  18.679  0.00  0.00    -0.276 OA
ATOM      4  N   UNL     1      -5.722 -10.732  18.468  0.00  0.00    -0.315 N 
ATOM     15  C   UNL     1      -4.457 -11.112  18.046  0.00  0.00    +0.213 C 
ATOM     24  H   UNL     1      -6.294 -10.143  17.870  0.00  0.00    +0.149 HD
BRANCH   4  17
ATOM     17  C   UNL     1      -6.290 -11.141  19.731  0.00  0.00    +0.104 C 
BRANCH  17  20
ATOM     20  C   UNL     1      -7.307 -12.265  19.574  0.00  0.00    +0.015 C 
ATOM     22  C   UNL     1      -8.117 -12.152  18.291  0.00  0.00    +0.005 C 
ENDBRANCH  17  20
ENDBRANCH   4  17
ENDBRANCH  12  15
ENDBRANCH   6  12
TORSDOF 6
ENDMDL
MODEL 2
REMARK VINA RESULT:      -5.4     27.320     29.589
REMARK  Name = 11912055
REMARK  8 active torsions:
REMARK  status: ('A' for Active; 'I' for Inactive)
REMARK    1  A    between atoms: N_4  and  C_17
REMARK    2  A    between atoms: C_6  and  C_12
REMARK    3  A    between atoms: C_7  and  C_11
REMARK    4  A    between atoms: C_11  and  C_13
REMARK    5  A    between atoms: C_12  and  C_15
REMARK    6  A    between atoms: C_14  and  C_16
REMARK    7  A    between atoms: C_17  and  C_20
REMARK    8  A    between atoms: C_20  and  C_22
REMARK                            x       y       z     vdW  Elec       q    Type
REMARK                         _______ _______ _______ _____ _____    ______ ____
ROOT
ATOM      1  O   UNL     1      19.706   9.699  23.012  0.00  0.00    -0.270 OA
ATOM      3  N   UNL     1      18.073   8.905  21.536  0.00  0.00    -0.297 N 
ATOM      6  C   UNL     1      15.198   8.581  21.139  0.00  0.00    +0.004 C 
ATOM      7  C   UNL     1      16.196   7.408  20.956  0.00  0.00    +0.010 C 
ATOM      8  C   UNL     1      15.792   9.618  22.114  0.00  0.00    +0.023 C 
ATOM      9  C   UNL     1      17.595   7.910  20.567  0.00  0.00    +0.112 C 
ATOM     10  C   UNL     1      17.198  10.063  21.712  0.00  0.00    +0.108 C 
ATOM     14  C   UNL     1      19.283   8.845  22.233  0.00  0.00    +0.248 C 
ENDROOT
BRANCH  14  16
ATOM      5  N   UNL     1      20.917   5.539  22.879  0.00  0.00    -0.263 NA
ATOM     16  C   UNL     1      20.133   7.662  22.046  0.00  0.00    +0.055 A 
ATOM     18  C   UNL     1      20.931   7.532  20.920  0.00  0.00    +0.016 A 
ATOM     19  C   UNL     1      20.159   6.652  22.990  0.00  0.00    +0.123 A 
ATOM     21  C   UNL     1      21.726   6.400  20.771  0.00  0.00    +0.020 A 
ATOM     23  C   UNL     1      21.684   5.442  21.770  0.00  0.00    +0.111 A 
ENDBRANCH  14  16
BRANCH   7  11
ATOM     11  C   UNL     1      15.706   6.355  19.964  0.00  0.00    +0.002 C 
ATOM     13  C   UNL     1      16.816   5.932  19.024  0.00  0.00    +0.004 C 
ENDBRANCH   7  11
BRANCH   6  12
ATOM     12  C   UNL     1      14.772   9.251  19.827  0.00  0.00    +0.099 C 
BRANCH  12  15
ATOM      2  O   UNL     1      13.013   8.605  18.297  0.00  0.00    -0.276 OA
ATOM      4  N   UNL     1      12.504   8.965  20.536  0.00  0.00    -0.315 N 
ATOM     15  C   UNL     1      13.351   8.901  19.440  0.00  0.00    +0.213 C 
ATOM     24  H   UNL     1      12.876   9.226  21.443  0.00  0.00    +0.149 HD
BRANCH   4  17
ATOM     17  C   UNL     1      11.089   8.683  20.457  0.00  0.00    +0.104 C 
BRANCH  17  20
ATOM     20  C   UNL     1      10.678   7.518  21.350  0.00  0.00    +0.015 C 
ATOM     22  C   UNL     1      11.719   6.409  21.388  0.00  0.00    +0.005 C 
ENDBRANCH  17  20
ENDBRANCH   4  17
ENDBRANCH  12  15
ENDBRANCH   6  12
TORSDOF 6
ENDMDL
MODEL 3
REMARK VINA RESULT:      -5.4     27.870     30.127
REMARK  Name = 11912055
REMARK  8 active torsions:
REMARK  status: ('A' for Active; 'I' for Inactive)
REMARK    1  A    between atoms: N_4  and  C_17
REMARK    2  A    between atoms: C_6  and  C_12
REMARK    3  A    between atoms: C_7  and  C_11
REMARK    4  A    between atoms: C_11  and  C_13
REMARK    5  A    between atoms: C_12  and  C_15
REMARK    6  A    between atoms: C_14  and  C_16
REMARK    7  A    between atoms: C_17  and  C_20
REMARK    8  A    between atoms: C_20  and  C_22
REMARK                            x       y       z     vdW  Elec       q    Type
REMARK                         _______ _______ _______ _____ _____    ______ ____
ROOT
ATOM      1  O   UNL     1      21.325   6.155  20.440  0.00  0.00    -0.270 OA
ATOM      3  N   UNL     1      19.183   6.920  20.986  0.00  0.00    -0.297 N 
ATOM      6  C   UNL     1      16.470   7.285  19.969  0.00  0.00    +0.004 C 
ATOM      7  C   UNL     1      17.254   8.429  20.662  0.00  0.00    +0.010 C 
ATOM      8  C   UNL     1      17.461   6.278  19.353  0.00  0.00    +0.023 C 
ATOM      9  C   UNL     1      18.296   7.884  21.651  0.00  0.00    +0.112 C 
ATOM     10  C   UNL     1      18.502   5.788  20.359  0.00  0.00    +0.108 C 
ATOM     14  C   UNL     1      20.578   6.985  20.958  0.00  0.00    +0.248 C 
ENDROOT
BRANCH  14  16
ATOM      5  N   UNL     1      22.286   9.110  23.526  0.00  0.00    -0.263 NA
ATOM     16  C   UNL     1      21.232   8.142  21.584  0.00  0.00    +0.055 A 
ATOM     18  C   UNL     1      21.415   9.322  20.878  0.00  0.00    +0.016 A 
ATOM     19  C   UNL     1      21.678   8.083  22.891  0.00  0.00    +0.123 A 
ATOM     21  C   UNL     1      22.037  10.401  21.498  0.00  0.00    +0.020 A 
ATOM     23  C   UNL     1      22.450  10.245  22.810  0.00  0.00    +0.111 A 
ENDBRANCH  14  16
BRANCH   7  11
ATOM     11  C   UNL     1      16.346   9.450  21.345  0.00  0.00    +0.002 C 
ATOM     13  C   UNL     1      15.559  10.249  20.327  0.00  0.00    +0.004 C 
ENDBRANCH   7  11
BRANCH   6  12
ATOM     12  C   UNL     1      15.467   6.571  20.884  0.00  0.00    +0.099 C 
BRANCH  12  15
ATOM      2  O   UNL     1      13.770   6.929  19.198  0.00  0.00    -0.276 OA
ATOM      4  N   UNL     1      13.129   6.416  21.372  0.00  0.00    -0.315 N 
ATOM     15  C   UNL     1      14.049   6.664  20.364  0.00  0.00    +0.213 C 
ATOM     24  H   UNL     1      13.457   6.212  22.311  0.00  0.00    +0.149 HD
BRANCH   4  17
ATOM     17  C   UNL     1      11.700   6.442  21.160  0.00  0.00    +0.104 C 
BRANCH  17  20
ATOM     20  C   UNL     1      11.140   7.860  21.150  0.00  0.00    +0.015 C 
ATOM     22  C   UNL     1      10.806   8.371  22.544  0.00  0.00    +0.005 C 
ENDBRANCH  17  20
ENDBRANCH   4  17
ENDBRANCH  12  15
ENDBRANCH   6  12
TORSDOF 6
ENDMDL
MODEL 4
REMARK VINA RESULT:      -5.3      3.221      5.317
REMARK  Name = 11912055
REMARK  8 active torsions:
REMARK  status: ('A' for Active; 'I' for Inactive)
REMARK    1  A    between atoms: N_4  and  C_17
REMARK    2  A    between atoms: C_6  and  C_12
REMARK    3  A    between atoms: C_7  and  C_11
REMARK    4  A    between atoms: C_11  and  C_13
REMARK    5  A    between atoms: C_12  and  C_15
REMARK    6  A    between atoms: C_14  and  C_16
REMARK    7  A    between atoms: C_17  and  C_20
REMARK    8  A    between atoms: C_20  and  C_22
REMARK                            x       y       z     vdW  Elec       q    Type
REMARK                         _______ _______ _______ _____ _____    ______ ____
ROOT
ATOM      1  O   UNL     1      -5.580  -9.857  13.918  0.00  0.00    -0.270 OA
ATOM      3  N   UNL     1      -5.965 -10.800  16.024  0.00  0.00    -0.297 N 
ATOM      6  C   UNL     1      -7.253 -10.371  18.610  0.00  0.00    +0.004 C 
ATOM      7  C   UNL     1      -5.767 -10.799  18.486  0.00  0.00    +0.010 C 
ATOM      8  C   UNL     1      -7.683  -9.624  17.331  0.00  0.00    +0.023 C 
ATOM      9  C   UNL     1      -5.507 -11.574  17.186  0.00  0.00    +0.112 C 
ATOM     10  C   UNL     1      -7.374 -10.412  16.059  0.00  0.00    +0.108 C 
ATOM     14  C   UNL     1      -5.188 -10.467  14.912  0.00  0.00    +0.248 C 
ENDROOT
BRANCH  14  16
ATOM      5  N   UNL     1      -1.986 -12.129  13.908  0.00  0.00    -0.263 NA
ATOM     16  C   UNL     1      -3.772 -10.857  14.913  0.00  0.00    +0.055 A 
ATOM     18  C   UNL     1      -2.899 -10.360  15.870  0.00  0.00    +0.016 A 
ATOM     19  C   UNL     1      -3.276 -11.730  13.962  0.00  0.00    +0.123 A 
ATOM     21  C   UNL     1      -1.563 -10.748  15.846  0.00  0.00    +0.020 A 
ATOM     23  C   UNL     1      -1.161 -11.627  14.854  0.00  0.00    +0.111 A 
ENDBRANCH  14  16
BRANCH   7  11
ATOM     11  C   UNL     1      -5.270 -11.592  19.694  0.00  0.00    +0.002 C 
ATOM     13  C   UNL     1      -3.925 -12.229  19.413  0.00  0.00    +0.004 C 
ENDBRANCH   7  11
BRANCH   6  12
ATOM     12  C   UNL     1      -8.214 -11.527  18.914  0.00  0.00    +0.099 C 
BRANCH  12  15
ATOM      2  O   UNL     1      -9.775 -10.492  20.445  0.00  0.00    -0.276 OA
ATOM      4  N   UNL     1     -10.540 -11.294  18.403  0.00  0.00    -0.315 N 
ATOM     15  C   UNL     1      -9.573 -11.039  19.364  0.00  0.00    +0.213 C 
ATOM     24  H   UNL     1     -10.278 -11.759  17.540  0.00  0.00    +0.149 HD
BRANCH   4  17
ATOM     17  C   UNL     1     -11.931 -10.937  18.568  0.00  0.00    +0.104 C 
BRANCH  17  20
ATOM     20  C   UNL     1     -12.176  -9.447  18.363  0.00  0.00    +0.015 C 
ATOM     22  C   UNL     1     -11.463  -8.896  17.137  0.00  0.00    +0.005 C 
ENDBRANCH  17  20
ENDBRANCH   4  17
ENDBRANCH  12  15
ENDBRANCH   6  12
TORSDOF 6
ENDMDL
MODEL 5
REMARK VINA RESULT:      -5.3     27.294     29.700
REMARK  Name = 11912055
REMARK  8 active torsions:
REMARK  status: ('A' for Active; 'I' for Inactive)
REMARK    1  A    between atoms: N_4  and  C_17
REMARK    2  A    between atoms: C_6  and  C_12
REMARK    3  A    between atoms: C_7  and  C_11
REMARK    4  A    between atoms: C_11  and  C_13
REMARK    5  A    between atoms: C_12  and  C_15
REMARK    6  A    between atoms: C_14  and  C_16
REMARK    7  A    between atoms: C_17  and  C_20
REMARK    8  A    between atoms: C_20  and  C_22
REMARK                            x       y       z     vdW  Elec       q    Type
REMARK                         _______ _______ _______ _____ _____    ______ ____
ROOT
ATOM      1  O   UNL     1      20.032   6.462  20.790  0.00  0.00    -0.270 OA
ATOM      3  N   UNL     1      17.819   7.202  20.960  0.00  0.00    -0.297 N 
ATOM      6  C   UNL     1      15.312   7.520  19.497  0.00  0.00    +0.004 C 
ATOM      7  C   UNL     1      15.954   8.681  20.300  0.00  0.00    +0.010 C 
ATOM      8  C   UNL     1      16.405   6.522  19.067  0.00  0.00    +0.023 C 
ATOM      9  C   UNL     1      16.821   8.159  21.456  0.00  0.00    +0.112 C 
ATOM     10  C   UNL     1      17.268   6.055  20.239  0.00  0.00    +0.108 C 
ATOM     14  C   UNL     1      19.199   7.285  21.166  0.00  0.00    +0.248 C 
ENDROOT
BRANCH  14  16
ATOM      5  N   UNL     1      20.556   9.413  23.932  0.00  0.00    -0.263 NA
ATOM     16  C   UNL     1      19.723   8.456  21.880  0.00  0.00    +0.055 A 
ATOM     18  C   UNL     1      19.882   9.672  21.232  0.00  0.00    +0.016 A 
ATOM     19  C   UNL     1      20.069   8.375  23.216  0.00  0.00    +0.123 A 
ATOM     21  C   UNL     1      20.381  10.764  21.934  0.00  0.00    +0.020 A 
ATOM     23  C   UNL     1      20.700  10.584  23.270  0.00  0.00    +0.111 A 
ENDBRANCH  14  16
BRANCH   7  11
ATOM     11  C   UNL     1      14.932   9.695  20.809  0.00  0.00    +0.002 C 
ATOM     13  C   UNL     1      14.976   9.804  22.319  0.00  0.00    +0.004 C 
ENDBRANCH   7  11
BRANCH   6  12
ATOM     12  C   UNL     1      14.178   6.800  20.238  0.00  0.00    +0.099 C 
BRANCH  12  15
ATOM      2  O   UNL     1      11.816   6.397  19.906  0.00  0.00    -0.276 OA
ATOM      4  N   UNL     1      12.947   7.816  18.454  0.00  0.00    -0.315 N 
ATOM     15  C   UNL     1      12.845   6.961  19.541  0.00  0.00    +0.213 C 
ATOM     24  H   UNL     1      13.845   8.231  18.226  0.00  0.00    +0.149 HD
BRANCH   4  17
ATOM     17  C   UNL     1      11.828   8.149  17.604  0.00  0.00    +0.104 C 
BRANCH  17  20
ATOM     20  C   UNL     1      12.163   9.253  16.609  0.00  0.00    +0.015 C 
ATOM     22  C   UNL     1      13.377  10.073  17.025  0.00  0.00    +0.005 C 
ENDBRANCH  17  20
ENDBRANCH   4  17
ENDBRANCH  12  15
ENDBRANCH   6  12
TORSDOF 6
ENDMDL
MODEL 6
REMARK VINA RESULT:      -5.3      2.996      7.501
REMARK  Name = 11912055
REMARK  8 active torsions:
REMARK  status: ('A' for Active; 'I' for Inactive)
REMARK    1  A    between atoms: N_4  and  C_17
REMARK    2  A    between atoms: C_6  and  C_12
REMARK    3  A    between atoms: C_7  and  C_11
REMARK    4  A    between atoms: C_11  and  C_13
REMARK    5  A    between atoms: C_12  and  C_15
REMARK    6  A    between atoms: C_14  and  C_16
REMARK    7  A    between atoms: C_17  and  C_20
REMARK    8  A    between atoms: C_20  and  C_22
REMARK                            x       y       z     vdW  Elec       q    Type
REMARK                         _______ _______ _______ _____ _____    ______ ____
ROOT
ATOM      1  O   UNL     1      -9.036 -10.972  20.089  0.00  0.00    -0.270 OA
ATOM      3  N   UNL     1      -7.614 -11.064  18.234  0.00  0.00    -0.297 N 
ATOM      6  C   UNL     1      -4.911 -10.480  17.295  0.00  0.00    +0.004 C 
ATOM      7  C   UNL     1      -6.173 -10.000  16.533  0.00  0.00    +0.010 C 
ATOM      8  C   UNL     1      -5.250 -10.673  18.786  0.00  0.00    +0.023 C 
ATOM      9  C   UNL     1      -7.376 -10.920  16.792  0.00  0.00    +0.112 C 
ATOM     10  C   UNL     1      -6.473 -11.564  19.000  0.00  0.00    +0.108 C 
ATOM     14  C   UNL     1      -8.822 -10.811  18.888  0.00  0.00    +0.248 C 
ENDROOT
BRANCH  14  16
ATOM      5  N   UNL     1     -11.960 -10.739  16.845  0.00  0.00    -0.263 NA
ATOM     16  C   UNL     1      -9.945 -10.294  18.095  0.00  0.00    +0.055 A 
ATOM     18  C   UNL     1     -10.070  -8.937  17.840  0.00  0.00    +0.016 A 
ATOM     19  C   UNL     1     -10.903 -11.149  17.582  0.00  0.00    +0.123 A 
ATOM     21  C   UNL     1     -11.143  -8.477  17.085  0.00  0.00    +0.020 A 
ATOM     23  C   UNL     1     -12.052  -9.410  16.615  0.00  0.00    +0.111 A 
ENDBRANCH  14  16
BRANCH   7  11
ATOM     11  C   UNL     1      -5.939  -9.830  15.032  0.00  0.00    +0.002 C 
ATOM     13  C   UNL     1      -7.194 -10.142  14.245  0.00  0.00    +0.004 C 
ENDBRANCH   7  11
BRANCH   6  12
ATOM     12  C   UNL     1      -4.274 -11.748  16.713  0.00  0.00    +0.099 C 
BRANCH  12  15
ATOM      2  O   UNL     1      -2.352 -10.432  16.059  0.00  0.00    -0.276 OA
ATOM      4  N   UNL     1      -2.764 -12.457  14.996  0.00  0.00    -0.315 N 
ATOM     15  C   UNL     1      -3.028 -11.447  15.909  0.00  0.00    +0.213 C 
ATOM     24  H   UNL     1      -3.387 -13.257  14.941  0.00  0.00    +0.149 HD
BRANCH   4  17
ATOM     17  C   UNL     1      -1.637 -12.431  14.093  0.00  0.00    +0.104 C 
BRANCH  17  20
ATOM     20  C   UNL     1      -2.034 -12.028  12.678  0.00  0.00    +0.015 C 
ATOM     22  C   UNL     1      -1.918 -10.530  12.438  0.00  0.00    +0.005 C 
ENDBRANCH  17  20
ENDBRANCH   4  17
ENDBRANCH  12  15
ENDBRANCH   6  12
TORSDOF 6
ENDMDL
MODEL 7
REMARK VINA RESULT:      -5.0     27.879     30.095
REMARK  Name = 11912055
REMARK  8 active torsions:
REMARK  status: ('A' for Active; 'I' for Inactive)
REMARK    1  A    between atoms: N_4  and  C_17
REMARK    2  A    between atoms: C_6  and  C_12
REMARK    3  A    between atoms: C_7  and  C_11
REMARK    4  A    between atoms: C_11  and  C_13
REMARK    5  A    between atoms: C_12  and  C_15
REMARK    6  A    between atoms: C_14  and  C_16
REMARK    7  A    between atoms: C_17  and  C_20
REMARK    8  A    between atoms: C_20  and  C_22
REMARK                            x       y       z     vdW  Elec       q    Type
REMARK                         _______ _______ _______ _____ _____    ______ ____
ROOT
ATOM      1  O   UNL     1      20.805   7.978  21.344  0.00  0.00    -0.270 OA
ATOM      3  N   UNL     1      18.470   8.110  21.381  0.00  0.00    -0.297 N 
ATOM      6  C   UNL     1      16.035   7.383  19.942  0.00  0.00    +0.004 C 
ATOM      7  C   UNL     1      16.308   8.830  20.428  0.00  0.00    +0.010 C 
ATOM      8  C   UNL     1      17.374   6.645  19.740  0.00  0.00    +0.023 C 
ATOM      9  C   UNL     1      17.232   8.851  21.655  0.00  0.00    +0.112 C 
ATOM     10  C   UNL     1      18.277   6.721  20.969  0.00  0.00    +0.108 C 
ATOM     14  C   UNL     1      19.767   8.610  21.531  0.00  0.00    +0.248 C 
ENDROOT
BRANCH  14  16
ATOM      5  N   UNL     1      20.158  12.326  21.282  0.00  0.00    -0.263 NA
ATOM     16  C   UNL     1      19.927  10.014  21.931  0.00  0.00    +0.055 A 
ATOM     18  C   UNL     1      20.001  10.367  23.270  0.00  0.00    +0.016 A 
ATOM     19  C   UNL     1      20.009  11.016  20.982  0.00  0.00    +0.123 A 
ATOM     21  C   UNL     1      20.153  11.705  23.618  0.00  0.00    +0.020 A 
ATOM     23  C   UNL     1      20.226  12.637  22.596  0.00  0.00    +0.111 A 
ENDBRANCH  14  16
BRANCH   7  11
ATOM     11  C   UNL     1      15.030   9.621  20.702  0.00  0.00    +0.002 C 
ATOM     13  C   UNL     1      14.965  10.070  22.146  0.00  0.00    +0.004 C 
ENDBRANCH   7  11
BRANCH   6  12
ATOM     12  C   UNL     1      15.105   6.580  20.859  0.00  0.00    +0.099 C 
BRANCH  12  15
ATOM      2  O   UNL     1      13.337   6.864  19.233  0.00  0.00    -0.276 OA
ATOM      4  N   UNL     1      12.793   6.332  21.428  0.00  0.00    -0.315 N 
ATOM     15  C   UNL     1      13.667   6.614  20.389  0.00  0.00    +0.213 C 
ATOM     24  H   UNL     1      13.162   6.144  22.356  0.00  0.00    +0.149 HD
BRANCH   4  17
ATOM     17  C   UNL     1      11.358   6.298  21.266  0.00  0.00    +0.104 C 
BRANCH  17  20
ATOM     20  C   UNL     1      10.668   7.467  21.960  0.00  0.00    +0.015 C 
ATOM     22  C   UNL     1      10.942   8.801  21.280  0.00  0.00    +0.005 C 
ENDBRANCH  17  20
ENDBRANCH   4  17
ENDBRANCH  12  15
ENDBRANCH   6  12
TORSDOF 6
ENDMDL
MODEL 8
REMARK VINA RESULT:      -5.0      2.154      2.768
REMARK  Name = 11912055
REMARK  8 active torsions:
REMARK  status: ('A' for Active; 'I' for Inactive)
REMARK    1  A    between atoms: N_4  and  C_17
REMARK    2  A    between atoms: C_6  and  C_12
REMARK    3  A    between atoms: C_7  and  C_11
REMARK    4  A    between atoms: C_11  and  C_13
REMARK    5  A    between atoms: C_12  and  C_15
REMARK    6  A    between atoms: C_14  and  C_16
REMARK    7  A    between atoms: C_17  and  C_20
REMARK    8  A    between atoms: C_20  and  C_22
REMARK                            x       y       z     vdW  Elec       q    Type
REMARK                         _______ _______ _______ _____ _____    ______ ____
ROOT
ATOM      1  O   UNL     1      -1.627 -11.989  14.656  0.00  0.00    -0.270 OA
ATOM      3  N   UNL     1      -3.691 -11.099  15.305  0.00  0.00    -0.297 N 
ATOM      6  C   UNL     1      -5.994 -11.497  17.056  0.00  0.00    +0.004 C 
ATOM      7  C   UNL     1      -6.147 -11.222  15.537  0.00  0.00    +0.010 C 
ATOM      8  C   UNL     1      -4.620 -12.140  17.329  0.00  0.00    +0.023 C 
ATOM      9  C   UNL     1      -4.956 -10.426  14.982  0.00  0.00    +0.112 C 
ATOM     10  C   UNL     1      -3.466 -11.337  16.730  0.00  0.00    +0.108 C 
ATOM     14  C   UNL     1      -2.706 -11.465  14.383  0.00  0.00    +0.248 C 
ENDROOT
BRANCH  14  16
ATOM      5  N   UNL     1      -4.064 -11.916  10.922  0.00  0.00    -0.263 NA
ATOM     16  C   UNL     1      -2.968 -11.226  12.958  0.00  0.00    +0.055 A 
ATOM     18  C   UNL     1      -2.403 -10.142  12.303  0.00  0.00    +0.016 A 
ATOM     19  C   UNL     1      -3.783 -12.077  12.235  0.00  0.00    +0.123 A 
ATOM     21  C   UNL     1      -2.668  -9.942  10.953  0.00  0.00    +0.020 A 
ATOM     23  C   UNL     1      -3.498 -10.849  10.314  0.00  0.00    +0.111 A 
ENDBRANCH  14  16
BRANCH   7  11
ATOM     11  C   UNL     1      -7.465 -10.537  15.181  0.00  0.00    +0.002 C 
ATOM     13  C   UNL     1      -8.638 -11.476  15.372  0.00  0.00    +0.004 C 
ENDBRANCH   7  11
BRANCH   6  12
ATOM     12  C   UNL     1      -6.201 -10.260  17.938  0.00  0.00    +0.099 C 
BRANCH  12  15
ATOM      2  O   UNL     1      -6.583 -10.819  20.261  0.00  0.00    -0.276 OA
ATOM      4  N   UNL     1      -8.401 -10.500  18.849  0.00  0.00    -0.315 N 
ATOM     15  C   UNL     1      -7.050 -10.558  19.154  0.00  0.00    +0.213 C 
ATOM     24  H   UNL     1      -8.691 -10.282  17.900  0.00  0.00    +0.149 HD
BRANCH   4  17
ATOM     17  C   UNL     1      -9.442 -10.745  19.820  0.00  0.00    +0.104 C 
BRANCH  17  20
ATOM     20  C   UNL     1     -10.811 -10.285  19.334  0.00  0.00    +0.015 C 
ATOM     22  C   UNL     1     -10.725  -9.326  18.154  0.00  0.00    +0.005 C 
ENDBRANCH  17  20
ENDBRANCH   4  17
ENDBRANCH  12  15
ENDBRANCH   6  12
TORSDOF 6
ENDMDL
MODEL 9
REMARK VINA RESULT:      -4.9     23.785     26.536
REMARK  Name = 11912055
REMARK  8 active torsions:
REMARK  status: ('A' for Active; 'I' for Inactive)
REMARK    1  A    between atoms: N_4  and  C_17
REMARK    2  A    between atoms: C_6  and  C_12
REMARK    3  A    between atoms: C_7  and  C_11
REMARK    4  A    between atoms: C_11  and  C_13
REMARK    5  A    between atoms: C_12  and  C_15
REMARK    6  A    between atoms: C_14  and  C_16
REMARK    7  A    between atoms: C_17  and  C_20
REMARK    8  A    between atoms: C_20  and  C_22
REMARK                            x       y       z     vdW  Elec       q    Type
REMARK                         _______ _______ _______ _____ _____    ______ ____
ROOT
ATOM      1  O   UNL     1       8.574   7.647   8.088  0.00  0.00    -0.270 OA
ATOM      3  N   UNL     1       9.597   7.385   6.000  0.00  0.00    -0.297 N 
ATOM      6  C   UNL     1      10.948   5.478   4.250  0.00  0.00    +0.004 C 
ATOM      7  C   UNL     1      11.547   6.871   4.573  0.00  0.00    +0.010 C 
ATOM      8  C   UNL     1      10.012   5.039   5.394  0.00  0.00    +0.023 C 
ATOM      9  C   UNL     1      10.451   7.892   4.918  0.00  0.00    +0.112 C 
ATOM     10  C   UNL     1       8.962   6.096   5.731  0.00  0.00    +0.108 C 
ATOM     14  C   UNL     1       9.323   8.049   7.199  0.00  0.00    +0.248 C 
ENDROOT
BRANCH  14  16
ATOM      5  N   UNL     1       9.840  11.738   7.581  0.00  0.00    -0.263 NA
ATOM     16  C   UNL     1       9.989   9.335   7.447  0.00  0.00    +0.055 A 
ATOM     18  C   UNL     1      11.338   9.386   7.769  0.00  0.00    +0.016 A 
ATOM     19  C   UNL     1       9.288  10.523   7.365  0.00  0.00    +0.123 A 
ATOM     21  C   UNL     1      11.941  10.619   7.998  0.00  0.00    +0.020 A 
ATOM     23  C   UNL     1      11.155  11.755   7.892  0.00  0.00    +0.111 A 
ENDBRANCH  14  16
BRANCH   7  11
ATOM     11  C   UNL     1      12.452   7.407   3.465  0.00  0.00    +0.002 C 
ATOM     13  C   UNL     1      13.796   7.833   4.015  0.00  0.00    +0.004 C 
ENDBRANCH   7  11
BRANCH   6  12
ATOM     12  C   UNL     1      10.226   5.405   2.899  0.00  0.00    +0.099 C 
BRANCH  12  15
ATOM      2  O   UNL     1      10.237   3.875   1.025  0.00  0.00    -0.276 OA
ATOM      4  N   UNL     1      12.130   4.058   2.361  0.00  0.00    -0.315 N 
ATOM     15  C   UNL     1      10.833   4.368   1.979  0.00  0.00    +0.213 C 
ATOM     24  H   UNL     1      12.537   4.515   3.171  0.00  0.00    +0.149 HD
BRANCH   4  17
ATOM     17  C   UNL     1      12.949   3.094   1.662  0.00  0.00    +0.104 C 
BRANCH  17  20
ATOM     20  C   UNL     1      14.416   3.507   1.612  0.00  0.00    +0.015 C 
ATOM     22  C   UNL     1      14.860   3.936   0.221  0.00  0.00    +0.005 C 
ENDBRANCH  17  20
ENDBRANCH   4  17
ENDBRANCH  12  15
ENDBRANCH   6  12
TORSDOF 6
ENDMDL
MODEL 10
REMARK VINA RESULT:      -4.9      2.574      7.805
REMARK  Name = 11912055
REMARK  8 active torsions:
REMARK  status: ('A' for Active; 'I' for Inactive)
REMARK    1  A    between atoms: N_4  and  C_17
REMARK    2  A    between atoms: C_6  and  C_12
REMARK    3  A    between atoms: C_7  and  C_11
REMARK    4  A    between atoms: C_11  and  C_13
REMARK    5  A    between atoms: C_12  and  C_15
REMARK    6  A    between atoms: C_14  and  C_16
REMARK    7  A    between atoms: C_17  and  C_20
REMARK    8  A    between atoms: C_20  and  C_22
REMARK                            x       y       z     vdW  Elec       q    Type
REMARK                         _______ _______ _______ _____ _____    ______ ____
ROOT
ATOM      1  O   UNL     1      -9.536 -11.641  15.482  0.00  0.00    -0.270 OA
ATOM      3  N   UNL     1      -7.480 -11.088  16.452  0.00  0.00    -0.297 N 
ATOM      6  C   UNL     1      -4.647 -11.790  16.553  0.00  0.00    +0.004 C 
ATOM      7  C   UNL     1      -5.504 -11.621  17.834  0.00  0.00    +0.010 C 
ATOM      8  C   UNL     1      -5.558 -12.173  15.369  0.00  0.00    +0.023 C 
ATOM      9  C   UNL     1      -6.680 -10.660  17.607  0.00  0.00    +0.112 C 
ATOM     10  C   UNL     1      -6.735 -11.214  15.200  0.00  0.00    +0.108 C 
ATOM     14  C   UNL     1      -8.857 -11.324  16.458  0.00  0.00    +0.248 C 
ENDROOT
BRANCH  14  16
ATOM      5  N   UNL     1     -10.917  -9.863  19.223  0.00  0.00    -0.263 NA
ATOM     16  C   UNL     1      -9.575 -11.204  17.734  0.00  0.00    +0.055 A 
ATOM     18  C   UNL     1      -9.602 -12.258  18.636  0.00  0.00    +0.016 A 
ATOM     19  C   UNL     1     -10.239 -10.039  18.067  0.00  0.00    +0.123 A 
ATOM     21  C   UNL     1     -10.289 -12.115  19.837  0.00  0.00    +0.020 A 
ATOM     23  C   UNL     1     -10.924 -10.908  20.080  0.00  0.00    +0.111 A 
ENDBRANCH  14  16
BRANCH   7  11
ATOM     11  C   UNL     1      -4.685 -11.192  19.051  0.00  0.00    +0.002 C 
ATOM     13  C   UNL     1      -3.708 -12.273  19.461  0.00  0.00    +0.004 C 
ENDBRANCH   7  11
BRANCH   6  12
ATOM     12  C   UNL     1      -3.791 -10.566  16.207  0.00  0.00    +0.099 C 
BRANCH  12  15
ATOM      2  O   UNL     1      -1.737 -11.550  15.394  0.00  0.00    -0.276 OA
ATOM      4  N   UNL     1      -3.058 -10.305  13.944  0.00  0.00    -0.315 N 
ATOM     15  C   UNL     1      -2.739 -10.877  15.166  0.00  0.00    +0.213 C 
ATOM     24  H   UNL     1      -3.909  -9.758  13.853  0.00  0.00    +0.149 HD
BRANCH   4  17
ATOM     17  C   UNL     1      -2.227 -10.438  12.769  0.00  0.00    +0.104 C 
BRANCH  17  20
ATOM     20  C   UNL     1      -3.046 -10.524  11.486  0.00  0.00    +0.015 C 
ATOM     22  C   UNL     1      -2.703  -9.422  10.493  0.00  0.00    +0.005 C 
ENDBRANCH  17  20
ENDBRANCH   4  17
ENDBRANCH  12  15
ENDBRANCH   6  12
TORSDOF 6
ENDMDL
