MODEL 1
REMARK VINA RESULT:      -7.0      0.000      0.000
REMARK  Name = 11884128
REMARK  6 active torsions:
REMARK  status: ('A' for Active; 'I' for Inactive)
REMARK    1  A    between atoms: O_3  and  C_12
REMARK    2  A    between atoms: O_3  and  C_16
REMARK    3  A    between atoms: N_6  and  C_11
REMARK    4  A    between atoms: N_7  and  C_17
REMARK    5  A    between atoms: N_8  and  C_18
REMARK    6  A    between atoms: C_18  and  C_21
REMARK                            x       y       z     vdW  Elec       q    Type
REMARK                         _______ _______ _______ _____ _____    ______ ____
ROOT
ATOM      1  O   UNL     1      10.878   8.144  20.139  0.00  0.00    -0.368 OA
ATOM      2  O   UNL     1      13.492   7.880  21.724  0.00  0.00    -0.368 OA
ATOM      9  C   UNL     1      12.535   8.956  21.629  0.00  0.00    +0.173 C 
ATOM     10  C   UNL     1      12.044   8.983  20.196  0.00  0.00    +0.192 C 
ATOM     11  C   UNL     1      11.298   8.623  22.431  0.00  0.00    +0.131 C 
ATOM     12  C   UNL     1      13.205   8.381  19.442  0.00  0.00    +0.235 C 
ATOM     13  C   UNL     1      10.521   7.739  21.470  0.00  0.00    +0.185 C 
ATOM     14  C   UNL     1      13.709   7.337  20.413  0.00  0.00    +0.207 C 
ENDROOT
BRANCH  11   6
ATOM      4  O   UNL     1      12.276  10.910  23.852  0.00  0.00    -0.252 OA
ATOM      6  N   UNL     1      10.555   9.814  22.765  0.00  0.00    -0.292 N 
ATOM      7  N   UNL     1      10.158  11.899  23.644  0.00  0.00    -0.269 N 
ATOM     15  C   UNL     1      11.110  10.891  23.466  0.00  0.00    +0.304 C 
ATOM     25  H   UNL     1       9.603   9.903  22.420  0.00  0.00    +0.151 HD
ATOM     26  H   UNL     1       9.232  11.724  23.260  0.00  0.00    +0.156 HD
BRANCH   7  17
ATOM     17  C   UNL     1      10.321  13.143  24.297  0.00  0.00    +0.035 A 
ATOM     19  C   UNL     1      10.739  13.164  25.619  0.00  0.00    +0.023 A 
ATOM     20  C   UNL     1      10.062  14.313  23.603  0.00  0.00    +0.023 A 
ATOM     22  C   UNL     1      10.901  14.391  26.263  0.00  0.00    +0.002 A 
ATOM     23  C   UNL     1      10.224  15.540  24.248  0.00  0.00    +0.002 A 
ATOM     24  C   UNL     1      10.644  15.578  25.577  0.00  0.00    +0.000 A 
ENDBRANCH   7  17
ENDBRANCH  11   6
BRANCH  12   3
ATOM      3  O   UNL     1      12.839   7.819  18.202  0.00  0.00    -0.442 OA
BRANCH   3  16
ATOM      5  O   UNL     1      11.773   8.637  16.339  0.00  0.00    -0.226 OA
ATOM      8  N   UNL     1      13.722   9.611  17.136  0.00  0.00    -0.281 N 
ATOM     16  C   UNL     1      12.695   8.691  17.146  0.00  0.00    +0.401 C 
ATOM     27  H   UNL     1      14.429   9.548  17.863  0.00  0.00    +0.152 HD
BRANCH   8  18
ATOM     18  C   UNL     1      13.851  10.657  16.149  0.00  0.00    +0.104 C 
ATOM     21  C   UNL     1      14.935  10.339  15.141  0.00  0.00    +0.024 C 
ENDBRANCH   8  18
ENDBRANCH   3  16
ENDBRANCH  12   3
TORSDOF 5
ENDMDL
MODEL 2
REMARK VINA RESULT:      -6.7      5.381      8.514
REMARK  Name = 11884128
REMARK  6 active torsions:
REMARK  status: ('A' for Active; 'I' for Inactive)
REMARK    1  A    between atoms: O_3  and  C_12
REMARK    2  A    between atoms: O_3  and  C_16
REMARK    3  A    between atoms: N_6  and  C_11
REMARK    4  A    between atoms: N_7  and  C_17
REMARK    5  A    between atoms: N_8  and  C_18
REMARK    6  A    between atoms: C_18  and  C_21
REMARK                            x       y       z     vdW  Elec       q    Type
REMARK                         _______ _______ _______ _____ _____    ______ ____
ROOT
ATOM      1  O   UNL     1      14.592   9.044  18.834  0.00  0.00    -0.368 OA
ATOM      2  O   UNL     1      12.949   6.726  19.988  0.00  0.00    -0.368 OA
ATOM      9  C   UNL     1      14.201   6.746  19.271  0.00  0.00    +0.173 C 
ATOM     10  C   UNL     1      14.092   7.840  18.228  0.00  0.00    +0.192 C 
ATOM     11  C   UNL     1      15.312   7.220  20.179  0.00  0.00    +0.131 C 
ATOM     12  C   UNL     1      12.604   7.912  17.985  0.00  0.00    +0.235 C 
ATOM     13  C   UNL     1      15.157   8.730  20.116  0.00  0.00    +0.185 C 
ATOM     14  C   UNL     1      12.042   7.646  19.363  0.00  0.00    +0.207 C 
ENDROOT
BRANCH  11   6
ATOM      4  O   UNL     1      17.587   6.475  21.753  0.00  0.00    -0.252 OA
ATOM      6  N   UNL     1      16.603   6.805  19.687  0.00  0.00    -0.292 N 
ATOM      7  N   UNL     1      18.787   6.098  19.772  0.00  0.00    -0.269 N 
ATOM     15  C   UNL     1      17.667   6.456  20.527  0.00  0.00    +0.304 C 
ATOM     25  H   UNL     1      16.727   6.699  18.684  0.00  0.00    +0.151 HD
ATOM     26  H   UNL     1      18.686   6.137  18.760  0.00  0.00    +0.156 HD
BRANCH   7  17
ATOM     17  C   UNL     1      20.055   5.685  20.242  0.00  0.00    +0.035 A 
ATOM     19  C   UNL     1      21.038   6.636  20.467  0.00  0.00    +0.023 A 
ATOM     20  C   UNL     1      20.289   4.338  20.468  0.00  0.00    +0.023 A 
ATOM     22  C   UNL     1      22.288   6.228  20.931  0.00  0.00    +0.002 A 
ATOM     23  C   UNL     1      21.541   3.930  20.931  0.00  0.00    +0.002 A 
ATOM     24  C   UNL     1      22.539   4.876  21.164  0.00  0.00    +0.000 A 
ENDBRANCH   7  17
ENDBRANCH  11   6
BRANCH  12   3
ATOM      3  O   UNL     1      12.178   9.153  17.468  0.00  0.00    -0.442 OA
BRANCH   3  16
ATOM      5  O   UNL     1      12.499   8.832  15.217  0.00  0.00    -0.226 OA
ATOM      8  N   UNL     1      13.340  10.704  16.298  0.00  0.00    -0.281 N 
ATOM     16  C   UNL     1      12.661   9.506  16.229  0.00  0.00    +0.401 C 
ATOM     27  H   UNL     1      13.405  11.166  17.201  0.00  0.00    +0.152 HD
BRANCH   8  18
ATOM     18  C   UNL     1      13.964  11.339  15.161  0.00  0.00    +0.104 C 
ATOM     21  C   UNL     1      15.409  10.911  15.011  0.00  0.00    +0.024 C 
ENDBRANCH   8  18
ENDBRANCH   3  16
ENDBRANCH  12   3
TORSDOF 5
ENDMDL
MODEL 3
REMARK VINA RESULT:      -6.6      5.412      9.181
REMARK  Name = 11884128
REMARK  6 active torsions:
REMARK  status: ('A' for Active; 'I' for Inactive)
REMARK    1  A    between atoms: O_3  and  C_12
REMARK    2  A    between atoms: O_3  and  C_16
REMARK    3  A    between atoms: N_6  and  C_11
REMARK    4  A    between atoms: N_7  and  C_17
REMARK    5  A    between atoms: N_8  and  C_18
REMARK    6  A    between atoms: C_18  and  C_21
REMARK                            x       y       z     vdW  Elec       q    Type
REMARK                         _______ _______ _______ _____ _____    ______ ____
ROOT
ATOM      1  O   UNL     1      15.425   8.702  19.568  0.00  0.00    -0.368 OA
ATOM      2  O   UNL     1      14.627   7.497  22.273  0.00  0.00    -0.368 OA
ATOM      9  C   UNL     1      15.475   6.999  21.218  0.00  0.00    +0.173 C 
ATOM     10  C   UNL     1      14.847   7.431  19.908  0.00  0.00    +0.192 C 
ATOM     11  C   UNL     1      16.805   7.719  21.236  0.00  0.00    +0.131 C 
ATOM     12  C   UNL     1      13.388   7.559  20.273  0.00  0.00    +0.235 C 
ATOM     13  C   UNL     1      16.486   9.001  20.487  0.00  0.00    +0.185 C 
ATOM     14  C   UNL     1      13.458   8.089  21.687  0.00  0.00    +0.207 C 
ENDROOT
BRANCH  11   6
ATOM      4  O   UNL     1      19.230   6.705  22.375  0.00  0.00    -0.252 OA
ATOM      6  N   UNL     1      17.823   6.954  20.558  0.00  0.00    -0.292 N 
ATOM      7  N   UNL     1      19.783   5.787  20.287  0.00  0.00    -0.269 N 
ATOM     15  C   UNL     1      18.984   6.495  21.190  0.00  0.00    +0.304 C 
ATOM     25  H   UNL     1      17.660   6.682  19.592  0.00  0.00    +0.151 HD
ATOM     26  H   UNL     1      19.431   5.704  19.335  0.00  0.00    +0.156 HD
BRANCH   7  17
ATOM     17  C   UNL     1      21.029   5.166  20.532  0.00  0.00    +0.035 A 
ATOM     19  C   UNL     1      21.059   3.838  20.929  0.00  0.00    +0.023 A 
ATOM     20  C   UNL     1      22.195   5.896  20.368  0.00  0.00    +0.023 A 
ATOM     22  C   UNL     1      22.289   3.226  21.171  0.00  0.00    +0.002 A 
ATOM     23  C   UNL     1      23.425   5.283  20.610  0.00  0.00    +0.002 A 
ATOM     24  C   UNL     1      23.471   3.948  21.010  0.00  0.00    +0.000 A 
ENDBRANCH   7  17
ENDBRANCH  11   6
BRANCH  12   3
ATOM      3  O   UNL     1      12.667   8.419  19.419  0.00  0.00    -0.442 OA
BRANCH   3  16
ATOM      5  O   UNL     1      12.163   7.113  17.599  0.00  0.00    -0.226 OA
ATOM      8  N   UNL     1      13.364   9.085  17.371  0.00  0.00    -0.281 N 
ATOM     16  C   UNL     1      12.685   8.115  18.077  0.00  0.00    +0.401 C 
ATOM     27  H   UNL     1      13.753   9.869  17.887  0.00  0.00    +0.152 HD
BRANCH   8  18
ATOM     18  C   UNL     1      13.555   9.049  15.939  0.00  0.00    +0.104 C 
ATOM     21  C   UNL     1      14.470  10.161  15.473  0.00  0.00    +0.024 C 
ENDBRANCH   8  18
ENDBRANCH   3  16
ENDBRANCH  12   3
TORSDOF 5
ENDMDL
MODEL 4
REMARK VINA RESULT:      -6.3     27.921     29.525
REMARK  Name = 11884128
REMARK  6 active torsions:
REMARK  status: ('A' for Active; 'I' for Inactive)
REMARK    1  A    between atoms: O_3  and  C_12
REMARK    2  A    between atoms: O_3  and  C_16
REMARK    3  A    between atoms: N_6  and  C_11
REMARK    4  A    between atoms: N_7  and  C_17
REMARK    5  A    between atoms: N_8  and  C_18
REMARK    6  A    between atoms: C_18  and  C_21
REMARK                            x       y       z     vdW  Elec       q    Type
REMARK                         _______ _______ _______ _____ _____    ______ ____
ROOT
ATOM      1  O   UNL     1     -11.203  -5.847  15.960  0.00  0.00    -0.368 OA
ATOM      2  O   UNL     1     -12.580  -8.237  14.618  0.00  0.00    -0.368 OA
ATOM      9  C   UNL     1     -11.191  -7.855  14.699  0.00  0.00    +0.173 C 
ATOM     10  C   UNL     1     -11.144  -6.344  14.613  0.00  0.00    +0.192 C 
ATOM     11  C   UNL     1     -10.649  -8.156  16.078  0.00  0.00    +0.131 C 
ATOM     12  C   UNL     1     -12.402  -6.022  13.842  0.00  0.00    +0.235 C 
ATOM     13  C   UNL     1     -11.112  -6.950  16.876  0.00  0.00    +0.185 C 
ATOM     14  C   UNL     1     -13.367  -7.065  14.357  0.00  0.00    +0.207 C 
ENDROOT
BRANCH  11   6
ATOM      4  O   UNL     1      -9.057 -10.159  17.367  0.00  0.00    -0.252 OA
ATOM      6  N   UNL     1      -9.210  -8.256  16.064  0.00  0.00    -0.292 N 
ATOM      7  N   UNL     1      -7.130  -9.109  16.536  0.00  0.00    -0.269 N 
ATOM     15  C   UNL     1      -8.506  -9.270  16.723  0.00  0.00    +0.304 C 
ATOM     25  H   UNL     1      -8.685  -7.595  15.497  0.00  0.00    +0.151 HD
ATOM     26  H   UNL     1      -6.837  -8.314  15.972  0.00  0.00    +0.156 HD
BRANCH   7  17
ATOM     17  C   UNL     1      -6.085  -9.921  17.035  0.00  0.00    +0.035 A 
ATOM     19  C   UNL     1      -5.005 -10.215  16.217  0.00  0.00    +0.023 A 
ATOM     20  C   UNL     1      -6.161 -10.404  18.331  0.00  0.00    +0.023 A 
ATOM     22  C   UNL     1      -3.974 -11.015  16.710  0.00  0.00    +0.002 A 
ATOM     23  C   UNL     1      -5.129 -11.205  18.823  0.00  0.00    +0.002 A 
ATOM     24  C   UNL     1      -4.036 -11.508  18.012  0.00  0.00    +0.000 A 
ENDBRANCH   7  17
ENDBRANCH  11   6
BRANCH  12   3
ATOM      3  O   UNL     1     -12.873  -4.711  14.057  0.00  0.00    -0.442 OA
BRANCH   3  16
ATOM      5  O   UNL     1     -14.138  -3.217  12.855  0.00  0.00    -0.226 OA
ATOM      8  N   UNL     1     -12.245  -4.201  11.942  0.00  0.00    -0.281 N 
ATOM     16  C   UNL     1     -13.173  -3.970  12.936  0.00  0.00    +0.401 C 
ATOM     27  H   UNL     1     -11.490  -4.852  12.134  0.00  0.00    +0.152 HD
BRANCH   8  18
ATOM     18  C   UNL     1     -12.289  -3.571  10.643  0.00  0.00    +0.104 C 
ATOM     21  C   UNL     1     -11.245  -4.148   9.711  0.00  0.00    +0.024 C 
ENDBRANCH   8  18
ENDBRANCH   3  16
ENDBRANCH  12   3
TORSDOF 5
ENDMDL
MODEL 5
REMARK VINA RESULT:      -6.3     26.978     28.618
REMARK  Name = 11884128
REMARK  6 active torsions:
REMARK  status: ('A' for Active; 'I' for Inactive)
REMARK    1  A    between atoms: O_3  and  C_12
REMARK    2  A    between atoms: O_3  and  C_16
REMARK    3  A    between atoms: N_6  and  C_11
REMARK    4  A    between atoms: N_7  and  C_17
REMARK    5  A    between atoms: N_8  and  C_18
REMARK    6  A    between atoms: C_18  and  C_21
REMARK                            x       y       z     vdW  Elec       q    Type
REMARK                         _______ _______ _______ _____ _____    ______ ____
ROOT
ATOM      1  O   UNL     1     -16.516   5.802  24.486  0.00  0.00    -0.368 OA
ATOM      2  O   UNL     1     -16.680   3.132  22.986  0.00  0.00    -0.368 OA
ATOM      9  C   UNL     1     -15.825   3.573  24.061  0.00  0.00    +0.173 C 
ATOM     10  C   UNL     1     -15.512   5.033  23.803  0.00  0.00    +0.192 C 
ATOM     11  C   UNL     1     -16.594   3.593  25.362  0.00  0.00    +0.131 C 
ATOM     12  C   UNL     1     -15.653   5.136  22.303  0.00  0.00    +0.235 C 
ATOM     13  C   UNL     1     -17.323   4.923  25.285  0.00  0.00    +0.185 C 
ATOM     14  C   UNL     1     -16.799   4.191  22.024  0.00  0.00    +0.207 C 
ENDROOT
BRANCH  11   6
ATOM      4  O   UNL     1     -17.152   2.457  27.932  0.00  0.00    -0.252 OA
ATOM      6  N   UNL     1     -15.705   3.547  26.497  0.00  0.00    -0.292 N 
ATOM      7  N   UNL     1     -14.999   3.074  28.632  0.00  0.00    -0.269 N 
ATOM     15  C   UNL     1     -16.057   2.972  27.723  0.00  0.00    +0.304 C 
ATOM     25  H   UNL     1     -14.756   3.892  26.381  0.00  0.00    +0.151 HD
ATOM     26  H   UNL     1     -14.154   3.533  28.296  0.00  0.00    +0.156 HD
BRANCH   7  17
ATOM     17  C   UNL     1     -14.955   2.617  29.969  0.00  0.00    +0.035 A 
ATOM     19  C   UNL     1     -14.620   1.297  30.223  0.00  0.00    +0.023 A 
ATOM     20  C   UNL     1     -15.245   3.499  30.998  0.00  0.00    +0.023 A 
ATOM     22  C   UNL     1     -14.576   0.846  31.543  0.00  0.00    +0.002 A 
ATOM     23  C   UNL     1     -15.202   3.048  32.317  0.00  0.00    +0.002 A 
ATOM     24  C   UNL     1     -14.866   1.722  32.589  0.00  0.00    +0.000 A 
ENDBRANCH   7  17
ENDBRANCH  11   6
BRANCH  12   3
ATOM      3  O   UNL     1     -15.922   6.444  21.852  0.00  0.00    -0.442 OA
BRANCH   3  16
ATOM      5  O   UNL     1     -15.213   7.068  19.758  0.00  0.00    -0.226 OA
ATOM      8  N   UNL     1     -13.895   7.428  21.633  0.00  0.00    -0.281 N 
ATOM     16  C   UNL     1     -15.021   6.991  20.967  0.00  0.00    +0.401 C 
ATOM     27  H   UNL     1     -13.857   7.306  22.641  0.00  0.00    +0.152 HD
BRANCH   8  18
ATOM     18  C   UNL     1     -12.767   8.049  20.979  0.00  0.00    +0.104 C 
ATOM     21  C   UNL     1     -11.632   7.067  20.778  0.00  0.00    +0.024 C 
ENDBRANCH   8  18
ENDBRANCH   3  16
ENDBRANCH  12   3
TORSDOF 5
ENDMDL
MODEL 6
REMARK VINA RESULT:      -6.2     26.776     29.206
REMARK  Name = 11884128
REMARK  6 active torsions:
REMARK  status: ('A' for Active; 'I' for Inactive)
REMARK    1  A    between atoms: O_3  and  C_12
REMARK    2  A    between atoms: O_3  and  C_16
REMARK    3  A    between atoms: N_6  and  C_11
REMARK    4  A    between atoms: N_7  and  C_17
REMARK    5  A    between atoms: N_8  and  C_18
REMARK    6  A    between atoms: C_18  and  C_21
REMARK                            x       y       z     vdW  Elec       q    Type
REMARK                         _______ _______ _______ _____ _____    ______ ____
ROOT
ATOM      1  O   UNL     1      -6.375 -11.987  17.355  0.00  0.00    -0.368 OA
ATOM      2  O   UNL     1      -4.876 -11.632  20.008  0.00  0.00    -0.368 OA
ATOM      9  C   UNL     1      -5.904 -10.840  19.377  0.00  0.00    +0.173 C 
ATOM     10  C   UNL     1      -5.634 -10.876  17.886  0.00  0.00    +0.192 C 
ATOM     11  C   UNL     1      -7.246 -11.520  19.518  0.00  0.00    +0.131 C 
ATOM     12  C   UNL     1      -4.144 -11.119  17.830  0.00  0.00    +0.235 C 
ATOM     13  C   UNL     1      -7.214 -12.531  18.385  0.00  0.00    +0.185 C 
ATOM     14  C   UNL     1      -3.927 -12.038  19.011  0.00  0.00    +0.207 C 
ENDROOT
BRANCH  11   6
ATOM      4  O   UNL     1     -10.038 -12.043  19.887  0.00  0.00    -0.252 OA
ATOM      6  N   UNL     1      -8.328 -10.581  19.354  0.00  0.00    -0.292 N 
ATOM      7  N   UNL     1     -10.493  -9.812  19.322  0.00  0.00    -0.269 N 
ATOM     15  C   UNL     1      -9.672 -10.919  19.554  0.00  0.00    +0.304 C 
ATOM     25  H   UNL     1      -8.101  -9.613  19.145  0.00  0.00    +0.151 HD
ATOM     26  H   UNL     1     -10.027  -8.948  19.051  0.00  0.00    +0.156 HD
BRANCH   7  17
ATOM     17  C   UNL     1     -11.902  -9.739  19.418  0.00  0.00    +0.035 A 
ATOM     19  C   UNL     1     -12.657  -9.657  18.259  0.00  0.00    +0.023 A 
ATOM     20  C   UNL     1     -12.499  -9.754  20.669  0.00  0.00    +0.023 A 
ATOM     22  C   UNL     1     -14.047  -9.587  18.353  0.00  0.00    +0.002 A 
ATOM     23  C   UNL     1     -13.889  -9.683  20.762  0.00  0.00    +0.002 A 
ATOM     24  C   UNL     1     -14.662  -9.600  19.605  0.00  0.00    +0.000 A 
ENDBRANCH   7  17
ENDBRANCH  11   6
BRANCH  12   3
ATOM      3  O   UNL     1      -3.714 -11.698  16.620  0.00  0.00    -0.442 OA
BRANCH   3  16
ATOM      5  O   UNL     1      -1.655 -10.685  16.541  0.00  0.00    -0.226 OA
ATOM      8  N   UNL     1      -2.932 -10.967  14.625  0.00  0.00    -0.281 N 
ATOM     16  C   UNL     1      -2.669 -11.078  15.974  0.00  0.00    +0.401 C 
ATOM     27  H   UNL     1      -3.813 -11.333  14.277  0.00  0.00    +0.152 HD
BRANCH   8  18
ATOM     18  C   UNL     1      -2.025 -10.359  13.679  0.00  0.00    +0.104 C 
ATOM     21  C   UNL     1      -2.145 -10.993  12.309  0.00  0.00    +0.024 C 
ENDBRANCH   8  18
ENDBRANCH   3  16
ENDBRANCH  12   3
TORSDOF 5
ENDMDL
MODEL 7
REMARK VINA RESULT:      -6.0     26.342     28.304
REMARK  Name = 11884128
REMARK  6 active torsions:
REMARK  status: ('A' for Active; 'I' for Inactive)
REMARK    1  A    between atoms: O_3  and  C_12
REMARK    2  A    between atoms: O_3  and  C_16
REMARK    3  A    between atoms: N_6  and  C_11
REMARK    4  A    between atoms: N_7  and  C_17
REMARK    5  A    between atoms: N_8  and  C_18
REMARK    6  A    between atoms: C_18  and  C_21
REMARK                            x       y       z     vdW  Elec       q    Type
REMARK                         _______ _______ _______ _____ _____    ______ ____
ROOT
ATOM      1  O   UNL     1      -5.249 -11.250  15.109  0.00  0.00    -0.368 OA
ATOM      2  O   UNL     1      -5.079 -10.887  18.150  0.00  0.00    -0.368 OA
ATOM      9  C   UNL     1      -5.565 -10.015  17.109  0.00  0.00    +0.173 C 
ATOM     10  C   UNL     1      -4.660 -10.212  15.910  0.00  0.00    +0.192 C 
ATOM     11  C   UNL     1      -6.916 -10.488  16.623  0.00  0.00    +0.131 C 
ATOM     12  C   UNL     1      -3.368 -10.664  16.549  0.00  0.00    +0.235 C 
ATOM     13  C   UNL     1      -6.540 -11.584  15.642  0.00  0.00    +0.185 C 
ATOM     14  C   UNL     1      -3.861 -11.503  17.706  0.00  0.00    +0.207 C 
ENDROOT
BRANCH  11   6
ATOM      4  O   UNL     1      -9.731  -9.981  16.781  0.00  0.00    -0.252 OA
ATOM      6  N   UNL     1      -7.639  -9.424  15.970  0.00  0.00    -0.292 N 
ATOM      7  N   UNL     1      -9.442  -8.139  15.354  0.00  0.00    -0.269 N 
ATOM     15  C   UNL     1      -9.021  -9.246  16.099  0.00  0.00    +0.304 C 
ATOM     25  H   UNL     1      -7.112  -8.735  15.442  0.00  0.00    +0.151 HD
ATOM     26  H   UNL     1      -8.721  -7.635  14.842  0.00  0.00    +0.156 HD
BRANCH   7  17
ATOM     17  C   UNL     1     -10.753  -7.628  15.224  0.00  0.00    +0.035 A 
ATOM     19  C   UNL     1     -11.133  -6.532  15.982  0.00  0.00    +0.023 A 
ATOM     20  C   UNL     1     -11.632  -8.233  14.339  0.00  0.00    +0.023 A 
ATOM     22  C   UNL     1     -12.427  -6.027  15.852  0.00  0.00    +0.002 A 
ATOM     23  C   UNL     1     -12.927  -7.728  14.210  0.00  0.00    +0.002 A 
ATOM     24  C   UNL     1     -13.323  -6.625  14.966  0.00  0.00    +0.000 A 
ENDBRANCH   7  17
ENDBRANCH  11   6
BRANCH  12   3
ATOM      3  O   UNL     1      -2.536 -11.397  15.678  0.00  0.00    -0.442 OA
BRANCH   3  16
ATOM      5  O   UNL     1      -1.119  -9.782  14.870  0.00  0.00    -0.226 OA
ATOM      8  N   UNL     1      -2.328 -11.149  13.437  0.00  0.00    -0.281 N 
ATOM     16  C   UNL     1      -1.918 -10.690  14.672  0.00  0.00    +0.401 C 
ATOM     27  H   UNL     1      -2.999 -11.911  13.408  0.00  0.00    +0.152 HD
BRANCH   8  18
ATOM     18  C   UNL     1      -1.857 -10.606  12.184  0.00  0.00    +0.104 C 
ATOM     21  C   UNL     1      -3.006 -10.158  11.307  0.00  0.00    +0.024 C 
ENDBRANCH   8  18
ENDBRANCH   3  16
ENDBRANCH  12   3
TORSDOF 5
ENDMDL
MODEL 8
REMARK VINA RESULT:      -6.0      6.921      9.256
REMARK  Name = 11884128
REMARK  6 active torsions:
REMARK  status: ('A' for Active; 'I' for Inactive)
REMARK    1  A    between atoms: O_3  and  C_12
REMARK    2  A    between atoms: O_3  and  C_16
REMARK    3  A    between atoms: N_6  and  C_11
REMARK    4  A    between atoms: N_7  and  C_17
REMARK    5  A    between atoms: N_8  and  C_18
REMARK    6  A    between atoms: C_18  and  C_21
REMARK                            x       y       z     vdW  Elec       q    Type
REMARK                         _______ _______ _______ _____ _____    ______ ____
ROOT
ATOM      1  O   UNL     1      20.160   7.492  23.183  0.00  0.00    -0.368 OA
ATOM      2  O   UNL     1      20.203   6.868  20.180  0.00  0.00    -0.368 OA
ATOM      9  C   UNL     1      19.158   6.746  21.167  0.00  0.00    +0.173 C 
ATOM     10  C   UNL     1      19.819   6.300  22.455  0.00  0.00    +0.192 C 
ATOM     11  C   UNL     1      18.597   8.109  21.501  0.00  0.00    +0.131 C 
ATOM     12  C   UNL     1      21.047   5.577  21.958  0.00  0.00    +0.235 C 
ATOM     13  C   UNL     1      19.603   8.632  22.511  0.00  0.00    +0.185 C 
ATOM     14  C   UNL     1      21.435   6.399  20.750  0.00  0.00    +0.207 C 
ENDROOT
BRANCH  11   6
ATOM      4  O   UNL     1      16.100   8.484  20.148  0.00  0.00    -0.252 OA
ATOM      6  N   UNL     1      17.279   8.005  22.078  0.00  0.00    -0.292 N 
ATOM      7  N   UNL     1      14.983   8.041  22.164  0.00  0.00    -0.269 N 
ATOM     15  C   UNL     1      16.103   8.205  21.344  0.00  0.00    +0.304 C 
ATOM     25  H   UNL     1      17.197   7.711  23.047  0.00  0.00    +0.151 HD
ATOM     26  H   UNL     1      15.162   7.810  23.139  0.00  0.00    +0.156 HD
BRANCH   7  17
ATOM     17  C   UNL     1      13.620   8.157  21.805  0.00  0.00    +0.035 A 
ATOM     19  C   UNL     1      12.955   7.050  21.303  0.00  0.00    +0.023 A 
ATOM     20  C   UNL     1      12.977   9.374  21.965  0.00  0.00    +0.023 A 
ATOM     22  C   UNL     1      11.610   7.164  20.949  0.00  0.00    +0.002 A 
ATOM     23  C   UNL     1      11.632   9.487  21.612  0.00  0.00    +0.002 A 
ATOM     24  C   UNL     1      10.949   8.382  21.105  0.00  0.00    +0.000 A 
ENDBRANCH   7  17
ENDBRANCH  11   6
BRANCH  12   3
ATOM      3  O   UNL     1      22.085   5.511  22.910  0.00  0.00    -0.442 OA
BRANCH   3  16
ATOM      5  O   UNL     1      22.249   3.534  24.067  0.00  0.00    -0.226 OA
ATOM      8  N   UNL     1      23.615   3.980  22.245  0.00  0.00    -0.281 N 
ATOM     16  C   UNL     1      22.620   4.267  23.156  0.00  0.00    +0.401 C 
ATOM     27  H   UNL     1      23.830   4.675  21.536  0.00  0.00    +0.152 HD
BRANCH   8  18
ATOM     18  C   UNL     1      24.368   2.748  22.243  0.00  0.00    +0.104 C 
ATOM     21  C   UNL     1      23.945   1.841  21.107  0.00  0.00    +0.024 C 
ENDBRANCH   8  18
ENDBRANCH   3  16
ENDBRANCH  12   3
TORSDOF 5
ENDMDL
MODEL 9
REMARK VINA RESULT:      -5.8     26.183     27.849
REMARK  Name = 11884128
REMARK  6 active torsions:
REMARK  status: ('A' for Active; 'I' for Inactive)
REMARK    1  A    between atoms: O_3  and  C_12
REMARK    2  A    between atoms: O_3  and  C_16
REMARK    3  A    between atoms: N_6  and  C_11
REMARK    4  A    between atoms: N_7  and  C_17
REMARK    5  A    between atoms: N_8  and  C_18
REMARK    6  A    between atoms: C_18  and  C_21
REMARK                            x       y       z     vdW  Elec       q    Type
REMARK                         _______ _______ _______ _____ _____    ______ ____
ROOT
ATOM      1  O   UNL     1     -15.690   7.016  23.501  0.00  0.00    -0.368 OA
ATOM      2  O   UNL     1     -15.965   4.326  22.052  0.00  0.00    -0.368 OA
ATOM      9  C   UNL     1     -15.584   4.648  23.405  0.00  0.00    +0.173 C 
ATOM     10  C   UNL     1     -14.769   5.924  23.341  0.00  0.00    +0.192 C 
ATOM     11  C   UNL     1     -16.803   5.038  24.210  0.00  0.00    +0.131 C 
ATOM     12  C   UNL     1     -14.195   5.875  21.945  0.00  0.00    +0.235 C 
ATOM     13  C   UNL     1     -16.988   6.496  23.828  0.00  0.00    +0.185 C 
ATOM     14  C   UNL     1     -15.325   5.250  21.158  0.00  0.00    +0.207 C 
ENDROOT
BRANCH  11   6
ATOM      4  O   UNL     1     -16.078   2.633  25.587  0.00  0.00    -0.252 OA
ATOM      6  N   UNL     1     -16.564   4.892  25.625  0.00  0.00    -0.292 N 
ATOM      7  N   UNL     1     -16.046   3.839  27.600  0.00  0.00    -0.269 N 
ATOM     15  C   UNL     1     -16.212   3.676  26.222  0.00  0.00    +0.304 C 
ATOM     25  H   UNL     1     -16.589   5.724  26.208  0.00  0.00    +0.151 HD
ATOM     26  H   UNL     1     -16.197   4.775  27.969  0.00  0.00    +0.156 HD
BRANCH   7  17
ATOM     17  C   UNL     1     -15.693   2.857  28.555  0.00  0.00    +0.035 A 
ATOM     19  C   UNL     1     -14.644   3.105  29.425  0.00  0.00    +0.023 A 
ATOM     20  C   UNL     1     -16.403   1.668  28.600  0.00  0.00    +0.023 A 
ATOM     22  C   UNL     1     -14.296   2.136  30.367  0.00  0.00    +0.002 A 
ATOM     23  C   UNL     1     -16.054   0.700  29.542  0.00  0.00    +0.002 A 
ATOM     24  C   UNL     1     -15.001   0.935  30.426  0.00  0.00    +0.000 A 
ENDBRANCH   7  17
ENDBRANCH  11   6
BRANCH  12   3
ATOM      3  O   UNL     1     -13.834   7.141  21.441  0.00  0.00    -0.442 OA
BRANCH   3  16
ATOM      5  O   UNL     1     -11.627   6.565  21.170  0.00  0.00    -0.226 OA
ATOM      8  N   UNL     1     -12.621   8.185  19.840  0.00  0.00    -0.281 N 
ATOM     16  C   UNL     1     -12.599   7.237  20.841  0.00  0.00    +0.401 C 
ATOM     27  H   UNL     1     -13.492   8.677  19.665  0.00  0.00    +0.152 HD
BRANCH   8  18
ATOM     18  C   UNL     1     -11.475   8.518  19.026  0.00  0.00    +0.104 C 
ATOM     21  C   UNL     1     -10.611   9.570  19.688  0.00  0.00    +0.024 C 
ENDBRANCH   8  18
ENDBRANCH   3  16
ENDBRANCH  12   3
TORSDOF 5
ENDMDL
MODEL 10
REMARK VINA RESULT:      -5.8     12.266     18.532
REMARK  Name = 11884128
REMARK  6 active torsions:
REMARK  status: ('A' for Active; 'I' for Inactive)
REMARK    1  A    between atoms: O_3  and  C_12
REMARK    2  A    between atoms: O_3  and  C_16
REMARK    3  A    between atoms: N_6  and  C_11
REMARK    4  A    between atoms: N_7  and  C_17
REMARK    5  A    between atoms: N_8  and  C_18
REMARK    6  A    between atoms: C_18  and  C_21
REMARK                            x       y       z     vdW  Elec       q    Type
REMARK                         _______ _______ _______ _____ _____    ______ ____
ROOT
ATOM      1  O   UNL     1      11.728   7.945   7.245  0.00  0.00    -0.368 OA
ATOM      2  O   UNL     1       8.866   6.866   7.016  0.00  0.00    -0.368 OA
ATOM      9  C   UNL     1       9.864   7.152   6.014  0.00  0.00    +0.173 C 
ATOM     10  C   UNL     1      10.604   8.392   6.470  0.00  0.00    +0.192 C 
ATOM     11  C   UNL     1      10.925   6.076   6.015  0.00  0.00    +0.131 C 
ATOM     12  C   UNL     1       9.575   9.089   7.327  0.00  0.00    +0.235 C 
ATOM     13  C   UNL     1      11.827   6.515   7.155  0.00  0.00    +0.185 C 
ATOM     14  C   UNL     1       8.867   7.926   7.985  0.00  0.00    +0.207 C 
ENDROOT
BRANCH  11   6
ATOM      4  O   UNL     1      10.334   4.431   3.745  0.00  0.00    -0.252 OA
ATOM      6  N   UNL     1      11.640   6.045   4.762  0.00  0.00    -0.292 N 
ATOM      7  N   UNL     1      12.155   5.393   2.620  0.00  0.00    -0.269 N 
ATOM     15  C   UNL     1      11.285   5.207   3.698  0.00  0.00    +0.304 C 
ATOM     25  H   UNL     1      12.398   6.706   4.622  0.00  0.00    +0.151 HD
ATOM     26  H   UNL     1      12.896   6.080   2.746  0.00  0.00    +0.156 HD
BRANCH   7  17
ATOM     17  C   UNL     1      12.134   4.742   1.365  0.00  0.00    +0.035 A 
ATOM     19  C   UNL     1      11.162   5.085   0.439  0.00  0.00    +0.023 A 
ATOM     20  C   UNL     1      13.087   3.775   1.086  0.00  0.00    +0.023 A 
ATOM     22  C   UNL     1      11.142   4.443  -0.799  0.00  0.00    +0.002 A 
ATOM     23  C   UNL     1      13.067   3.133  -0.152  0.00  0.00    +0.002 A 
ATOM     24  C   UNL     1      12.095   3.468  -1.095  0.00  0.00    +0.000 A 
ENDBRANCH   7  17
ENDBRANCH  11   6
BRANCH  12   3
ATOM      3  O   UNL     1      10.135   9.972   8.273  0.00  0.00    -0.442 OA
BRANCH   3  16
ATOM      5  O   UNL     1       9.216  11.999   7.704  0.00  0.00    -0.226 OA
ATOM      8  N   UNL     1       9.011  11.144   9.851  0.00  0.00    -0.281 N 
ATOM     16  C   UNL     1       9.429  11.124   8.537  0.00  0.00    +0.401 C 
ATOM     27  H   UNL     1       9.254  10.355  10.443  0.00  0.00    +0.152 HD
BRANCH   8  18
ATOM     18  C   UNL     1       8.247  12.223  10.434  0.00  0.00    +0.104 C 
ATOM     21  C   UNL     1       8.674  12.498  11.860  0.00  0.00    +0.024 C 
ENDBRANCH   8  18
ENDBRANCH   3  16
ENDBRANCH  12   3
TORSDOF 5
ENDMDL
