MODEL 1
REMARK VINA RESULT:      -6.6      0.000      0.000
REMARK  Name = 11883053
REMARK  10 active torsions:
REMARK  status: ('A' for Active; 'I' for Inactive)
REMARK    1  A    between atoms: O_4  and  C_16
REMARK    2  A    between atoms: O_5  and  C_21
REMARK    3  A    between atoms: N_9  and  C_27
REMARK    4  A    between atoms: C_11  and  C_19
REMARK    5  A    between atoms: C_13  and  C_21
REMARK    6  A    between atoms: C_13  and  C_22
REMARK    7  A    between atoms: C_14  and  C_24
REMARK    8  A    between atoms: C_24  and  C_25
REMARK    9  A    between atoms: C_27  and  C_30
REMARK   10  A    between atoms: C_28  and  C_29
REMARK                            x       y       z     vdW  Elec       q    Type
REMARK                         _______ _______ _______ _____ _____    ______ ____
ROOT
ATOM      1  S   UNL     1      17.957   6.201  19.906  0.00  0.00    -0.057 S 
ATOM      7  O   UNL     1      20.904   8.593  22.601  0.00  0.00    -0.270 OA
ATOM      8  N   UNL     1      18.230   8.319  21.368  0.00  0.00    -0.229 NA
ATOM     10  N   UNL     1      20.145   6.864  21.193  0.00  0.00    -0.261 N 
ATOM     11  C   UNL     1      14.729   9.425  20.191  0.00  0.00    -0.019 C 
ATOM     12  C   UNL     1      14.220   7.923  20.039  0.00  0.00    +0.011 C 
ATOM     13  C   UNL     1      12.778   7.715  19.433  0.00  0.00    +0.021 C 
ATOM     14  C   UNL     1      15.969   9.425  21.198  0.00  0.00    +0.054 C 
ATOM     15  C   UNL     1      13.601  10.293  20.805  0.00  0.00    +0.010 C 
ATOM     16  C   UNL     1      11.784   8.691  20.125  0.00  0.00    +0.123 C 
ATOM     17  C   UNL     1      15.308   7.015  19.397  0.00  0.00    +0.049 C 
ATOM     18  C   UNL     1      12.256  10.140  20.108  0.00  0.00    +0.032 C 
ATOM     19  C   UNL     1      15.161  10.052  18.841  0.00  0.00    +0.012 C 
ATOM     20  C   UNL     1      16.946   8.329  20.855  0.00  0.00    +0.058 A 
ATOM     22  C   UNL     1      12.300   6.269  19.748  0.00  0.00    +0.016 C 
ATOM     23  C   UNL     1      16.623   7.248  20.060  0.00  0.00    +0.015 A 
ATOM     26  C   UNL     1      18.856   7.248  20.928  0.00  0.00    +0.165 A 
ATOM     28  C   UNL     1      21.076   7.541  21.995  0.00  0.00    +0.255 C 
ATOM     40  H   UNL     1      20.410   5.983  20.762  0.00  0.00    +0.157 HD
ENDROOT
BRANCH  28  29
ATOM      2  F   UNL     1      23.050   7.724  20.012  0.00  0.00    -0.205 F 
ATOM      3  F   UNL     1      21.757   6.028  24.255  0.00  0.00    -0.205 F 
ATOM     29  C   UNL     1      22.399   6.877  22.133  0.00  0.00    +0.107 A 
ATOM     31  C   UNL     1      23.320   7.012  21.116  0.00  0.00    +0.138 A 
ATOM     32  C   UNL     1      22.662   6.149  23.274  0.00  0.00    +0.138 A 
ATOM     34  C   UNL     1      24.561   6.389  21.245  0.00  0.00    +0.039 A 
ATOM     35  C   UNL     1      23.904   5.526  23.403  0.00  0.00    +0.039 A 
ATOM     36  C   UNL     1      24.853   5.647  22.389  0.00  0.00    +0.006 A 
ENDBRANCH  28  29
BRANCH  16   4
ATOM      4  O   UNL     1      10.499   8.619  19.510  0.00  0.00    -0.391 OA
ATOM     37  H   UNL     1      10.207   7.693  19.533  0.00  0.00    +0.210 HD
ENDBRANCH  16   4
BRANCH  13  21
ATOM     21  C   UNL     1      12.704   7.852  17.896  0.00  0.00    +0.165 C 
BRANCH  21   5
ATOM      5  O   UNL     1      11.750   6.927  17.426  0.00  0.00    -0.394 OA
ATOM     38  H   UNL     1      12.154   6.420  16.701  0.00  0.00    +0.209 HD
ENDBRANCH  21   5
ENDBRANCH  13  21
BRANCH  14  24
ATOM     24  C   UNL     1      16.675  10.780  21.342  0.00  0.00    +0.106 C 
BRANCH  24  25
ATOM      6  O   UNL     1      15.774  12.876  22.149  0.00  0.00    -0.276 OA
ATOM      9  N   UNL     1      15.613  10.972  23.473  0.00  0.00    -0.304 N 
ATOM     25  C   UNL     1      15.978  11.680  22.336  0.00  0.00    +0.214 C 
ATOM     39  H   UNL     1      15.779   9.972  23.519  0.00  0.00    +0.150 HD
BRANCH   9  27
ATOM     27  C   UNL     1      14.932  11.578  24.594  0.00  0.00    +0.193 C 
BRANCH  27  30
ATOM     30  C   UNL     1      13.499  11.704  24.336  0.00  0.00    -0.087 C 
ATOM     33  C   UNL     1      12.320  11.806  24.127  0.00  0.00    +0.005 C 
ENDBRANCH  27  30
ENDBRANCH   9  27
ENDBRANCH  24  25
ENDBRANCH  14  24
TORSDOF 8
ENDMDL
MODEL 2
REMARK VINA RESULT:      -6.6     16.247     19.730
REMARK  Name = 11883053
REMARK  10 active torsions:
REMARK  status: ('A' for Active; 'I' for Inactive)
REMARK    1  A    between atoms: O_4  and  C_16
REMARK    2  A    between atoms: O_5  and  C_21
REMARK    3  A    between atoms: N_9  and  C_27
REMARK    4  A    between atoms: C_11  and  C_19
REMARK    5  A    between atoms: C_13  and  C_21
REMARK    6  A    between atoms: C_13  and  C_22
REMARK    7  A    between atoms: C_14  and  C_24
REMARK    8  A    between atoms: C_24  and  C_25
REMARK    9  A    between atoms: C_27  and  C_30
REMARK   10  A    between atoms: C_28  and  C_29
REMARK                            x       y       z     vdW  Elec       q    Type
REMARK                         _______ _______ _______ _____ _____    ______ ____
ROOT
ATOM      1  S   UNL     1      15.056   8.265   6.208  0.00  0.00    -0.057 S 
ATOM      7  O   UNL     1      12.196   6.769   2.852  0.00  0.00    -0.270 OA
ATOM      8  N   UNL     1      14.906   7.579   3.717  0.00  0.00    -0.229 NA
ATOM     10  N   UNL     1      12.865   7.479   4.997  0.00  0.00    -0.261 N 
ATOM     11  C   UNL     1      18.579   8.687   3.326  0.00  0.00    -0.019 C 
ATOM     12  C   UNL     1      18.935   8.307   4.831  0.00  0.00    +0.011 C 
ATOM     13  C   UNL     1      20.386   8.670   5.336  0.00  0.00    +0.021 C 
ATOM     14  C   UNL     1      17.277   7.861   2.905  0.00  0.00    +0.054 C 
ATOM     15  C   UNL     1      19.746   8.268   2.397  0.00  0.00    +0.010 C 
ATOM     16  C   UNL     1      21.426   8.224   4.269  0.00  0.00    +0.123 C 
ATOM     17  C   UNL     1      17.805   8.737   5.811  0.00  0.00    +0.049 C 
ATOM     18  C   UNL     1      21.113   8.743   2.871  0.00  0.00    +0.032 C 
ATOM     19  C   UNL     1      18.311  10.202   3.137  0.00  0.00    +0.012 C 
ATOM     20  C   UNL     1      16.216   7.938   3.973  0.00  0.00    +0.058 A 
ATOM     22  C   UNL     1      20.685   7.870   6.635  0.00  0.00    +0.016 C 
ATOM     23  C   UNL     1      16.479   8.316   5.274  0.00  0.00    +0.015 A 
ATOM     26  C   UNL     1      14.203   7.720   4.820  0.00  0.00    +0.165 A 
ATOM     28  C   UNL     1      11.957   7.027   4.027  0.00  0.00    +0.255 C 
ATOM     40  H   UNL     1      12.539   7.635   5.946  0.00  0.00    +0.157 HD
ENDROOT
BRANCH  28  29
ATOM      2  F   UNL     1      10.181   9.163   4.414  0.00  0.00    -0.205 F 
ATOM      3  F   UNL     1      10.939   4.478   4.599  0.00  0.00    -0.205 F 
ATOM     29  C   UNL     1      10.565   6.821   4.506  0.00  0.00    +0.107 A 
ATOM     31  C   UNL     1       9.749   7.920   4.672  0.00  0.00    +0.138 A 
ATOM     32  C   UNL     1      10.135   5.537   4.766  0.00  0.00    +0.138 A 
ATOM     34  C   UNL     1       8.443   7.727   5.122  0.00  0.00    +0.039 A 
ATOM     35  C   UNL     1       8.828   5.344   5.216  0.00  0.00    +0.039 A 
ATOM     36  C   UNL     1       7.983   6.438   5.393  0.00  0.00    +0.006 A 
ENDBRANCH  28  29
BRANCH  16   4
ATOM      4  O   UNL     1      22.737   8.653   4.636  0.00  0.00    -0.391 OA
ATOM     37  H   UNL     1      22.648   9.421   5.223  0.00  0.00    +0.210 HD
ENDBRANCH  16   4
BRANCH  13  21
ATOM     21  C   UNL     1      20.582  10.156   5.708  0.00  0.00    +0.165 C 
BRANCH  21   5
ATOM      5  O   UNL     1      21.425  10.211   6.836  0.00  0.00    -0.394 OA
ATOM     38  H   UNL     1      21.320  11.084   7.249  0.00  0.00    +0.209 HD
ENDBRANCH  21   5
ENDBRANCH  13  21
BRANCH  14  24
ATOM     24  C   UNL     1      16.711   8.222   1.525  0.00  0.00    +0.106 C 
BRANCH  24  25
ATOM      6  O   UNL     1      17.319   6.967  -0.453  0.00  0.00    -0.276 OA
ATOM      9  N   UNL     1      15.840   6.043   1.084  0.00  0.00    -0.304 N 
ATOM     25  C   UNL     1      16.681   7.032   0.595  0.00  0.00    +0.214 C 
ATOM     39  H   UNL     1      15.390   6.163   1.986  0.00  0.00    +0.150 HD
BRANCH   9  27
ATOM     27  C   UNL     1      15.613   4.791   0.399  0.00  0.00    +0.193 C 
BRANCH  27  30
ATOM     30  C   UNL     1      14.544   4.025   1.039  0.00  0.00    -0.087 C 
ATOM     33  C   UNL     1      13.666   3.394   1.562  0.00  0.00    +0.005 C 
ENDBRANCH  27  30
ENDBRANCH   9  27
ENDBRANCH  24  25
ENDBRANCH  14  24
TORSDOF 8
ENDMDL
MODEL 3
REMARK VINA RESULT:      -6.6     29.139     31.810
REMARK  Name = 11883053
REMARK  10 active torsions:
REMARK  status: ('A' for Active; 'I' for Inactive)
REMARK    1  A    between atoms: O_4  and  C_16
REMARK    2  A    between atoms: O_5  and  C_21
REMARK    3  A    between atoms: N_9  and  C_27
REMARK    4  A    between atoms: C_11  and  C_19
REMARK    5  A    between atoms: C_13  and  C_21
REMARK    6  A    between atoms: C_13  and  C_22
REMARK    7  A    between atoms: C_14  and  C_24
REMARK    8  A    between atoms: C_24  and  C_25
REMARK    9  A    between atoms: C_27  and  C_30
REMARK   10  A    between atoms: C_28  and  C_29
REMARK                            x       y       z     vdW  Elec       q    Type
REMARK                         _______ _______ _______ _____ _____    ______ ____
ROOT
ATOM      1  S   UNL     1      -7.526 -11.234  12.513  0.00  0.00    -0.057 S 
ATOM      7  O   UNL     1      -3.525 -11.230  10.133  0.00  0.00    -0.270 OA
ATOM      8  N   UNL     1      -4.948 -11.270  12.725  0.00  0.00    -0.229 NA
ATOM     10  N   UNL     1      -5.854 -11.207  10.492  0.00  0.00    -0.261 N 
ATOM     11  C   UNL     1      -5.389 -10.952  16.543  0.00  0.00    -0.019 C 
ATOM     12  C   UNL     1      -6.772 -11.742  16.528  0.00  0.00    +0.011 C 
ATOM     13  C   UNL     1      -7.554 -11.840  17.895  0.00  0.00    +0.021 C 
ATOM     14  C   UNL     1      -4.583 -11.344  15.221  0.00  0.00    +0.054 C 
ATOM     15  C   UNL     1      -4.555 -11.393  17.773  0.00  0.00    +0.010 C 
ATOM     16  C   UNL     1      -6.565 -12.247  19.024  0.00  0.00    +0.123 C 
ATOM     17  C   UNL     1      -7.661 -11.310  15.326  0.00  0.00    +0.049 C 
ATOM     18  C   UNL     1      -5.327 -11.359  19.085  0.00  0.00    +0.032 C 
ATOM     19  C   UNL     1      -5.576  -9.415  16.595  0.00  0.00    +0.012 C 
ATOM     20  C   UNL     1      -5.472 -11.283  14.005  0.00  0.00    +0.058 A 
ATOM     22  C   UNL     1      -8.621 -12.967  17.788  0.00  0.00    +0.016 C 
ATOM     23  C   UNL     1      -6.851 -11.287  14.075  0.00  0.00    +0.015 A 
ATOM     26  C   UNL     1      -5.938 -11.237  11.860  0.00  0.00    +0.165 A 
ATOM     28  C   UNL     1      -4.680 -11.205   9.722  0.00  0.00    +0.255 C 
ATOM     40  H   UNL     1      -6.754 -11.207  10.022  0.00  0.00    +0.157 HD
ENDROOT
BRANCH  28  29
ATOM      2  F   UNL     1      -5.867  -9.042   8.389  0.00  0.00    -0.205 F 
ATOM      3  F   UNL     1      -3.903 -13.357   8.102  0.00  0.00    -0.205 F 
ATOM     29  C   UNL     1      -4.885 -11.200   8.250  0.00  0.00    +0.107 A 
ATOM     31  C   UNL     1      -5.476 -10.101   7.664  0.00  0.00    +0.138 A 
ATOM     32  C   UNL     1      -4.476 -12.295   7.518  0.00  0.00    +0.138 A 
ATOM     34  C   UNL     1      -5.668 -10.096   6.283  0.00  0.00    +0.039 A 
ATOM     35  C   UNL     1      -4.669 -12.291   6.136  0.00  0.00    +0.039 A 
ATOM     36  C   UNL     1      -5.264 -11.191   5.519  0.00  0.00    +0.006 A 
ENDBRANCH  28  29
BRANCH  16   4
ATOM      4  O   UNL     1      -7.214 -12.219  20.294  0.00  0.00    -0.391 OA
ATOM     37  H   UNL     1      -8.172 -12.196  20.141  0.00  0.00    +0.210 HD
ENDBRANCH  16   4
BRANCH  13  21
ATOM     21  C   UNL     1      -8.334 -10.564  18.280  0.00  0.00    +0.165 C 
BRANCH  21   5
ATOM      5  O   UNL     1      -9.386 -10.943  19.138  0.00  0.00    -0.394 OA
ATOM     38  H   UNL     1      -9.642 -11.854  18.918  0.00  0.00    +0.209 HD
ENDBRANCH  21   5
ENDBRANCH  13  21
BRANCH  14  24
ATOM     24  C   UNL     1      -3.285 -10.555  15.006  0.00  0.00    +0.106 C 
BRANCH  24  25
ATOM      6  O   UNL     1      -1.027 -11.290  15.474  0.00  0.00    -0.276 OA
ATOM      9  N   UNL     1      -2.342 -12.497  13.985  0.00  0.00    -0.304 N 
ATOM     25  C   UNL     1      -2.084 -11.462  14.873  0.00  0.00    +0.214 C 
ATOM     39  H   UNL     1      -3.264 -12.589  13.571  0.00  0.00    +0.150 HD
BRANCH   9  27
ATOM     27  C   UNL     1      -1.371 -13.517  13.659  0.00  0.00    +0.193 C 
BRANCH  27  30
ATOM     30  C   UNL     1      -1.809 -14.831  14.130  0.00  0.00    -0.087 C 
ATOM     33  C   UNL     1      -2.172 -15.909  14.514  0.00  0.00    +0.005 C 
ENDBRANCH  27  30
ENDBRANCH   9  27
ENDBRANCH  24  25
ENDBRANCH  14  24
TORSDOF 8
ENDMDL
MODEL 4
REMARK VINA RESULT:      -6.3     30.815     34.529
REMARK  Name = 11883053
REMARK  10 active torsions:
REMARK  status: ('A' for Active; 'I' for Inactive)
REMARK    1  A    between atoms: O_4  and  C_16
REMARK    2  A    between atoms: O_5  and  C_21
REMARK    3  A    between atoms: N_9  and  C_27
REMARK    4  A    between atoms: C_11  and  C_19
REMARK    5  A    between atoms: C_13  and  C_21
REMARK    6  A    between atoms: C_13  and  C_22
REMARK    7  A    between atoms: C_14  and  C_24
REMARK    8  A    between atoms: C_24  and  C_25
REMARK    9  A    between atoms: C_27  and  C_30
REMARK   10  A    between atoms: C_28  and  C_29
REMARK                            x       y       z     vdW  Elec       q    Type
REMARK                         _______ _______ _______ _____ _____    ______ ____
ROOT
ATOM      1  S   UNL     1     -10.404 -12.729  19.691  0.00  0.00    -0.057 S 
ATOM      7  O   UNL     1     -13.495  -9.369  18.779  0.00  0.00    -0.270 OA
ATOM      8  N   UNL     1     -10.792 -10.512  18.414  0.00  0.00    -0.229 NA
ATOM     10  N   UNL     1     -12.637 -11.354  19.716  0.00  0.00    -0.261 N 
ATOM     11  C   UNL     1      -7.063 -10.577  17.433  0.00  0.00    -0.019 C 
ATOM     12  C   UNL     1      -7.012 -12.168  17.427  0.00  0.00    +0.011 C 
ATOM     13  C   UNL     1      -5.603 -12.838  17.186  0.00  0.00    +0.021 C 
ATOM     14  C   UNL     1      -8.587 -10.132  17.249  0.00  0.00    +0.054 C 
ATOM     15  C   UNL     1      -6.246 -10.028  16.236  0.00  0.00    +0.010 C 
ATOM     16  C   UNL     1      -4.903 -12.141  15.984  0.00  0.00    +0.123 C 
ATOM     17  C   UNL     1      -7.794 -12.769  18.631  0.00  0.00    +0.049 C 
ATOM     18  C   UNL     1      -4.849 -10.624  16.118  0.00  0.00    +0.032 C 
ATOM     19  C   UNL     1      -6.502  -9.963  18.741  0.00  0.00    +0.012 C 
ATOM     20  C   UNL     1      -9.495 -10.919  18.159  0.00  0.00    +0.058 A 
ATOM     22  C   UNL     1      -5.810 -14.329  16.799  0.00  0.00    +0.016 C 
ATOM     23  C   UNL     1      -9.125 -12.109  18.754  0.00  0.00    +0.015 A 
ATOM     26  C   UNL     1     -11.362 -11.386  19.215  0.00  0.00    +0.165 A 
ATOM     28  C   UNL     1     -13.611 -10.371  19.477  0.00  0.00    +0.255 C 
ATOM     40  H   UNL     1     -12.872 -12.151  20.301  0.00  0.00    +0.157 HD
ENDROOT
BRANCH  28  29
ATOM      2  F   UNL     1     -14.745  -8.524  21.256  0.00  0.00    -0.205 F 
ATOM      3  F   UNL     1     -15.116 -12.688  19.003  0.00  0.00    -0.205 F 
ATOM     29  C   UNL     1     -14.926 -10.606  20.128  0.00  0.00    +0.107 A 
ATOM     31  C   UNL     1     -15.421  -9.652  20.992  0.00  0.00    +0.138 A 
ATOM     32  C   UNL     1     -15.609 -11.770  19.846  0.00  0.00    +0.138 A 
ATOM     34  C   UNL     1     -16.655  -9.873  21.603  0.00  0.00    +0.039 A 
ATOM     35  C   UNL     1     -16.843 -11.991  20.457  0.00  0.00    +0.039 A 
ATOM     36  C   UNL     1     -17.366 -11.042  21.335  0.00  0.00    +0.006 A 
ENDBRANCH  28  29
BRANCH  16   4
ATOM      4  O   UNL     1      -3.574 -12.636  15.822  0.00  0.00    -0.391 OA
ATOM     37  H   UNL     1      -3.580 -13.276  15.092  0.00  0.00    +0.210 HD
ENDBRANCH  16   4
BRANCH  13  21
ATOM     21  C   UNL     1      -4.682 -12.854  18.426  0.00  0.00    +0.165 C 
BRANCH  21   5
ATOM      5  O   UNL     1      -4.037 -14.107  18.468  0.00  0.00    -0.394 OA
ATOM     38  H   UNL     1      -4.693 -14.791  18.252  0.00  0.00    +0.209 HD
ENDBRANCH  21   5
ENDBRANCH  13  21
BRANCH  14  24
ATOM     24  C   UNL     1      -8.831  -8.623  17.380  0.00  0.00    +0.106 C 
BRANCH  24  25
ATOM      6  O   UNL     1      -9.684  -8.618  15.116  0.00  0.00    -0.276 OA
ATOM      9  N   UNL     1     -10.240  -6.879  16.555  0.00  0.00    -0.304 N 
ATOM     25  C   UNL     1      -9.618  -8.072  16.214  0.00  0.00    +0.214 C 
ATOM     39  H   UNL     1     -10.170  -6.527  17.505  0.00  0.00    +0.150 HD
BRANCH   9  27
ATOM     27  C   UNL     1     -11.058  -6.125  15.633  0.00  0.00    +0.193 C 
BRANCH  27  30
ATOM     30  C   UNL     1     -12.473  -6.460  15.788  0.00  0.00    -0.087 C 
ATOM     33  C   UNL     1     -13.635  -6.737  15.912  0.00  0.00    +0.005 C 
ENDBRANCH  27  30
ENDBRANCH   9  27
ENDBRANCH  24  25
ENDBRANCH  14  24
TORSDOF 8
ENDMDL
MODEL 5
REMARK VINA RESULT:      -6.3     14.495     16.835
REMARK  Name = 11883053
REMARK  10 active torsions:
REMARK  status: ('A' for Active; 'I' for Inactive)
REMARK    1  A    between atoms: O_4  and  C_16
REMARK    2  A    between atoms: O_5  and  C_21
REMARK    3  A    between atoms: N_9  and  C_27
REMARK    4  A    between atoms: C_11  and  C_19
REMARK    5  A    between atoms: C_13  and  C_21
REMARK    6  A    between atoms: C_13  and  C_22
REMARK    7  A    between atoms: C_14  and  C_24
REMARK    8  A    between atoms: C_24  and  C_25
REMARK    9  A    between atoms: C_27  and  C_30
REMARK   10  A    between atoms: C_28  and  C_29
REMARK                            x       y       z     vdW  Elec       q    Type
REMARK                         _______ _______ _______ _____ _____    ______ ____
ROOT
ATOM      1  S   UNL     1      19.838  -6.207  20.148  0.00  0.00    -0.057 S 
ATOM      7  O   UNL     1      21.898 -10.185  21.414  0.00  0.00    -0.270 OA
ATOM      8  N   UNL     1      20.526  -7.675  22.165  0.00  0.00    -0.229 NA
ATOM     10  N   UNL     1      21.077  -8.512  19.972  0.00  0.00    -0.261 N 
ATOM     11  C   UNL     1      19.349  -4.822  24.477  0.00  0.00    -0.019 C 
ATOM     12  C   UNL     1      18.228  -4.347  23.450  0.00  0.00    +0.011 C 
ATOM     13  C   UNL     1      17.426  -3.040  23.821  0.00  0.00    +0.021 C 
ATOM     14  C   UNL     1      19.707  -6.344  24.145  0.00  0.00    +0.054 C 
ATOM     15  C   UNL     1      18.788  -4.756  25.920  0.00  0.00    +0.010 C 
ATOM     16  C   UNL     1      16.979  -3.118  25.309  0.00  0.00    +0.123 C 
ATOM     17  C   UNL     1      18.754  -4.366  21.985  0.00  0.00    +0.049 C 
ATOM     18  C   UNL     1      18.125  -3.429  26.264  0.00  0.00    +0.032 C 
ATOM     19  C   UNL     1      20.635  -3.962  24.403  0.00  0.00    +0.012 C 
ATOM     20  C   UNL     1      19.909  -6.543  22.664  0.00  0.00    +0.058 A 
ATOM     22  C   UNL     1      16.137  -2.973  22.954  0.00  0.00    +0.016 C 
ATOM     23  C   UNL     1      19.457  -5.652  21.712  0.00  0.00    +0.015 A 
ATOM     26  C   UNL     1      20.551  -7.602  20.852  0.00  0.00    +0.165 A 
ATOM     28  C   UNL     1      21.707  -9.725  20.294  0.00  0.00    +0.255 C 
ATOM     40  H   UNL     1      20.963  -8.257  18.995  0.00  0.00    +0.157 HD
ENDROOT
BRANCH  28  29
ATOM      2  F   UNL     1      24.030  -9.099  18.852  0.00  0.00    -0.205 F 
ATOM      3  F   UNL     1      20.292 -11.976  19.406  0.00  0.00    -0.205 F 
ATOM     29  C   UNL     1      22.159 -10.535  19.132  0.00  0.00    +0.107 A 
ATOM     31  C   UNL     1      23.312 -10.166  18.472  0.00  0.00    +0.138 A 
ATOM     32  C   UNL     1      21.410 -11.630  18.754  0.00  0.00    +0.138 A 
ATOM     34  C   UNL     1      23.735 -10.926  17.382  0.00  0.00    +0.039 A 
ATOM     35  C   UNL     1      21.834 -12.390  17.664  0.00  0.00    +0.039 A 
ATOM     36  C   UNL     1      22.996 -12.038  16.978  0.00  0.00    +0.006 A 
ENDBRANCH  28  29
BRANCH  16   4
ATOM      4  O   UNL     1      16.364  -1.895  25.712  0.00  0.00    -0.391 OA
ATOM     37  H   UNL     1      15.412  -1.963  25.527  0.00  0.00    +0.210 HD
ENDBRANCH  16   4
BRANCH  13  21
ATOM     21  C   UNL     1      18.183  -1.723  23.542  0.00  0.00    +0.165 C 
BRANCH  21   5
ATOM      5  O   UNL     1      17.602  -1.123  22.406  0.00  0.00    -0.394 OA
ATOM     38  H   UNL     1      18.318  -0.767  21.853  0.00  0.00    +0.209 HD
ENDBRANCH  21   5
ENDBRANCH  13  21
BRANCH  14  24
ATOM     24  C   UNL     1      20.881  -6.913  24.953  0.00  0.00    +0.106 C 
BRANCH  24  25
ATOM      6  O   UNL     1      21.281  -8.831  26.374  0.00  0.00    -0.276 OA
ATOM      9  N   UNL     1      19.128  -8.397  25.611  0.00  0.00    -0.304 N 
ATOM     25  C   UNL     1      20.488  -8.148  25.730  0.00  0.00    +0.214 C 
ATOM     39  H   UNL     1      18.540  -7.749  25.097  0.00  0.00    +0.150 HD
BRANCH   9  27
ATOM     27  C   UNL     1      18.472  -9.517  26.247  0.00  0.00    +0.193 C 
BRANCH  27  30
ATOM     30  C   UNL     1      17.097  -9.661  25.772  0.00  0.00    -0.087 C 
ATOM     33  C   UNL     1      15.966  -9.780  25.386  0.00  0.00    +0.005 C 
ENDBRANCH  27  30
ENDBRANCH   9  27
ENDBRANCH  24  25
ENDBRANCH  14  24
TORSDOF 8
ENDMDL
MODEL 6
REMARK VINA RESULT:      -6.2     17.070     21.427
REMARK  Name = 11883053
REMARK  10 active torsions:
REMARK  status: ('A' for Active; 'I' for Inactive)
REMARK    1  A    between atoms: O_4  and  C_16
REMARK    2  A    between atoms: O_5  and  C_21
REMARK    3  A    between atoms: N_9  and  C_27
REMARK    4  A    between atoms: C_11  and  C_19
REMARK    5  A    between atoms: C_13  and  C_21
REMARK    6  A    between atoms: C_13  and  C_22
REMARK    7  A    between atoms: C_14  and  C_24
REMARK    8  A    between atoms: C_24  and  C_25
REMARK    9  A    between atoms: C_27  and  C_30
REMARK   10  A    between atoms: C_28  and  C_29
REMARK                            x       y       z     vdW  Elec       q    Type
REMARK                         _______ _______ _______ _____ _____    ______ ____
ROOT
ATOM      1  S   UNL     1       8.780   8.763   0.703  0.00  0.00    -0.057 S 
ATOM      7  O   UNL     1       7.758   9.441   5.194  0.00  0.00    -0.270 OA
ATOM      8  N   UNL     1       9.259   7.964   3.117  0.00  0.00    -0.229 NA
ATOM     10  N   UNL     1       7.683   9.770   2.862  0.00  0.00    -0.261 N 
ATOM     11  C   UNL     1      11.384   5.119   1.614  0.00  0.00    -0.019 C 
ATOM     12  C   UNL     1      11.807   5.995   0.353  0.00  0.00    +0.011 C 
ATOM     13  C   UNL     1      12.653   5.275  -0.767  0.00  0.00    +0.021 C 
ATOM     14  C   UNL     1      10.944   6.116   2.782  0.00  0.00    +0.054 C 
ATOM     15  C   UNL     1      12.603   4.298   2.106  0.00  0.00    +0.010 C 
ATOM     16  C   UNL     1      13.801   4.464  -0.100  0.00  0.00    +0.123 C 
ATOM     17  C   UNL     1      10.606   6.816  -0.199  0.00  0.00    +0.049 C 
ATOM     18  C   UNL     1      13.315   3.530   1.001  0.00  0.00    +0.032 C 
ATOM     19  C   UNL     1      10.220   4.144   1.304  0.00  0.00    +0.012 C 
ATOM     20  C   UNL     1      10.016   7.185   2.262  0.00  0.00    +0.058 A 
ATOM     22  C   UNL     1      13.314   6.351  -1.674  0.00  0.00    +0.016 C 
ATOM     23  C   UNL     1       9.894   7.495   0.922  0.00  0.00    +0.015 A 
ATOM     26  C   UNL     1       8.563   8.824   2.405  0.00  0.00    +0.165 A 
ATOM     28  C   UNL     1       7.337  10.021   4.200  0.00  0.00    +0.255 C 
ATOM     40  H   UNL     1       7.274  10.343   2.130  0.00  0.00    +0.157 HD
ENDROOT
BRANCH  28  29
ATOM      2  F   UNL     1       8.019  12.333   5.632  0.00  0.00    -0.205 F 
ATOM      3  F   UNL     1       4.724   9.942   3.188  0.00  0.00    -0.205 F 
ATOM     29  C   UNL     1       6.374  11.134   4.410  0.00  0.00    +0.107 A 
ATOM     31  C   UNL     1       6.781  12.240   5.125  0.00  0.00    +0.138 A 
ATOM     32  C   UNL     1       5.105  11.023   3.881  0.00  0.00    +0.138 A 
ATOM     34  C   UNL     1       5.878  13.284   5.322  0.00  0.00    +0.039 A 
ATOM     35  C   UNL     1       4.201  12.068   4.079  0.00  0.00    +0.039 A 
ATOM     36  C   UNL     1       4.588  13.198   4.798  0.00  0.00    +0.006 A 
ENDBRANCH  28  29
BRANCH  16   4
ATOM      4  O   UNL     1      14.507   3.698  -1.075  0.00  0.00    -0.391 OA
ATOM     37  H   UNL     1      14.785   4.299  -1.786  0.00  0.00    +0.210 HD
ENDBRANCH  16   4
BRANCH  13  21
ATOM     21  C   UNL     1      11.828   4.380  -1.717  0.00  0.00    +0.165 C 
BRANCH  21   5
ATOM      5  O   UNL     1      12.308   4.583  -3.027  0.00  0.00    -0.394 OA
ATOM     38  H   UNL     1      11.589   4.967  -3.556  0.00  0.00    +0.209 HD
ENDBRANCH  21   5
ENDBRANCH  13  21
BRANCH  14  24
ATOM     24  C   UNL     1      10.364   5.428   4.025  0.00  0.00    +0.106 C 
BRANCH  24  25
ATOM      6  O   UNL     1      12.004   6.643   5.324  0.00  0.00    -0.276 OA
ATOM      9  N   UNL     1      10.364   5.408   6.414  0.00  0.00    -0.304 N 
ATOM     25  C   UNL     1      11.020   5.909   5.298  0.00  0.00    +0.214 C 
ATOM     39  H   UNL     1       9.526   4.847   6.296  0.00  0.00    +0.150 HD
BRANCH   9  27
ATOM     27  C   UNL     1      10.775   5.701   7.768  0.00  0.00    +0.193 C 
BRANCH  27  30
ATOM     30  C   UNL     1       9.898   5.046   8.737  0.00  0.00    -0.087 C 
ATOM     33  C   UNL     1       9.181   4.506   9.536  0.00  0.00    +0.005 C 
ENDBRANCH  27  30
ENDBRANCH   9  27
ENDBRANCH  24  25
ENDBRANCH  14  24
TORSDOF 8
ENDMDL
MODEL 7
REMARK VINA RESULT:      -6.2     17.403     20.543
REMARK  Name = 11883053
REMARK  10 active torsions:
REMARK  status: ('A' for Active; 'I' for Inactive)
REMARK    1  A    between atoms: O_4  and  C_16
REMARK    2  A    between atoms: O_5  and  C_21
REMARK    3  A    between atoms: N_9  and  C_27
REMARK    4  A    between atoms: C_11  and  C_19
REMARK    5  A    between atoms: C_13  and  C_21
REMARK    6  A    between atoms: C_13  and  C_22
REMARK    7  A    between atoms: C_14  and  C_24
REMARK    8  A    between atoms: C_24  and  C_25
REMARK    9  A    between atoms: C_27  and  C_30
REMARK   10  A    between atoms: C_28  and  C_29
REMARK                            x       y       z     vdW  Elec       q    Type
REMARK                         _______ _______ _______ _____ _____    ______ ____
ROOT
ATOM      1  S   UNL     1       9.383   8.134   0.174  0.00  0.00    -0.057 S 
ATOM      7  O   UNL     1      12.112   6.351   3.497  0.00  0.00    -0.270 OA
ATOM      8  N   UNL     1       9.726   7.921   2.730  0.00  0.00    -0.229 NA
ATOM     10  N   UNL     1      11.356   6.841   1.320  0.00  0.00    -0.261 N 
ATOM     11  C   UNL     1       6.769  10.352   3.198  0.00  0.00    -0.019 C 
ATOM     12  C   UNL     1       6.048   9.854   1.869  0.00  0.00    +0.011 C 
ATOM     13  C   UNL     1       4.739  10.621   1.434  0.00  0.00    +0.021 C 
ATOM     14  C   UNL     1       7.769   9.201   3.677  0.00  0.00    +0.054 C 
ATOM     15  C   UNL     1       5.711  10.572   4.309  0.00  0.00    +0.010 C 
ATOM     16  C   UNL     1       3.813  10.797   2.672  0.00  0.00    +0.123 C 
ATOM     17  C   UNL     1       7.067   9.647   0.711  0.00  0.00    +0.049 C 
ATOM     18  C   UNL     1       4.523  11.418   3.869  0.00  0.00    +0.032 C 
ATOM     19  C   UNL     1       7.560  11.669   2.995  0.00  0.00    +0.012 C 
ATOM     20  C   UNL     1       8.589   8.681   2.524  0.00  0.00    +0.058 A 
ATOM     22  C   UNL     1       3.966   9.758   0.398  0.00  0.00    +0.016 C 
ATOM     23  C   UNL     1       8.246   8.877   1.201  0.00  0.00    +0.015 A 
ATOM     26  C   UNL     1      10.231   7.584   1.563  0.00  0.00    +0.165 A 
ATOM     28  C   UNL     1      12.215   6.278   2.278  0.00  0.00    +0.255 C 
ATOM     40  H   UNL     1      11.545   6.685   0.334  0.00  0.00    +0.157 HD
ENDROOT
BRANCH  28  29
ATOM      2  F   UNL     1      12.229   3.474   2.296  0.00  0.00    -0.205 F 
ATOM      3  F   UNL     1      14.476   7.501   1.159  0.00  0.00    -0.205 F 
ATOM     29  C   UNL     1      13.350   5.490   1.730  0.00  0.00    +0.107 A 
ATOM     31  C   UNL     1      13.286   4.114   1.773  0.00  0.00    +0.138 A 
ATOM     32  C   UNL     1      14.429   6.162   1.195  0.00  0.00    +0.138 A 
ATOM     34  C   UNL     1      14.351   3.374   1.259  0.00  0.00    +0.039 A 
ATOM     35  C   UNL     1      15.494   5.422   0.680  0.00  0.00    +0.039 A 
ATOM     36  C   UNL     1      15.454   4.029   0.712  0.00  0.00    +0.006 A 
ENDBRANCH  28  29
BRANCH  16   4
ATOM      4  O   UNL     1       2.681  11.600   2.342  0.00  0.00    -0.391 OA
ATOM     37  H   UNL     1       1.883  11.128   2.632  0.00  0.00    +0.210 HD
ENDBRANCH  16   4
BRANCH  13  21
ATOM     21  C   UNL     1       4.993  11.977   0.740  0.00  0.00    +0.165 C 
BRANCH  21   5
ATOM      5  O   UNL     1       3.967  12.177  -0.206  0.00  0.00    -0.394 OA
ATOM     38  H   UNL     1       4.376  12.244  -1.085  0.00  0.00    +0.209 HD
ENDBRANCH  21   5
ENDBRANCH  13  21
BRANCH  14  24
ATOM     24  C   UNL     1       8.656   9.581   4.870  0.00  0.00    +0.106 C 
BRANCH  24  25
ATOM      6  O   UNL     1       7.897   8.126   6.648  0.00  0.00    -0.276 OA
ATOM      9  N   UNL     1      10.031   7.847   5.769  0.00  0.00    -0.304 N 
ATOM     25  C   UNL     1       8.785   8.451   5.864  0.00  0.00    +0.214 C 
ATOM     39  H   UNL     1      10.686   8.152   5.056  0.00  0.00    +0.150 HD
BRANCH   9  27
ATOM     27  C   UNL     1      10.435   6.738   6.602  0.00  0.00    +0.193 C 
BRANCH  27  30
ATOM     30  C   UNL     1      10.091   5.460   5.982  0.00  0.00    -0.087 C 
ATOM     33  C   UNL     1       9.811   4.410   5.468  0.00  0.00    +0.005 C 
ENDBRANCH  27  30
ENDBRANCH   9  27
ENDBRANCH  24  25
ENDBRANCH  14  24
TORSDOF 8
ENDMDL
MODEL 8
REMARK VINA RESULT:      -6.1     28.959     32.280
REMARK  Name = 11883053
REMARK  10 active torsions:
REMARK  status: ('A' for Active; 'I' for Inactive)
REMARK    1  A    between atoms: O_4  and  C_16
REMARK    2  A    between atoms: O_5  and  C_21
REMARK    3  A    between atoms: N_9  and  C_27
REMARK    4  A    between atoms: C_11  and  C_19
REMARK    5  A    between atoms: C_13  and  C_21
REMARK    6  A    between atoms: C_13  and  C_22
REMARK    7  A    between atoms: C_14  and  C_24
REMARK    8  A    between atoms: C_24  and  C_25
REMARK    9  A    between atoms: C_27  and  C_30
REMARK   10  A    between atoms: C_28  and  C_29
REMARK                            x       y       z     vdW  Elec       q    Type
REMARK                         _______ _______ _______ _____ _____    ______ ____
ROOT
ATOM      1  S   UNL     1      -9.034 -11.194  13.113  0.00  0.00    -0.057 S 
ATOM      7  O   UNL     1      -5.063  -9.765  11.148  0.00  0.00    -0.270 OA
ATOM      8  N   UNL     1      -6.547 -10.635  13.554  0.00  0.00    -0.229 NA
ATOM     10  N   UNL     1      -7.333 -10.382  11.289  0.00  0.00    -0.261 N 
ATOM     11  C   UNL     1      -7.234 -11.150  17.313  0.00  0.00    -0.019 C 
ATOM     12  C   UNL     1      -8.363 -12.238  17.038  0.00  0.00    +0.011 C 
ATOM     13  C   UNL     1      -9.156 -12.778  18.291  0.00  0.00    +0.021 C 
ATOM     14  C   UNL     1      -6.292 -11.080  16.024  0.00  0.00    +0.054 C 
ATOM     15  C   UNL     1      -6.372 -11.594  18.523  0.00  0.00    +0.010 C 
ATOM     16  C   UNL     1      -8.149 -13.132  19.422  0.00  0.00    +0.123 C 
ATOM     17  C   UNL     1      -9.277 -11.822  15.848  0.00  0.00    +0.049 C 
ATOM     18  C   UNL     1      -7.187 -11.995  19.745  0.00  0.00    +0.032 C 
ATOM     19  C   UNL     1      -7.813  -9.743  17.605  0.00  0.00    +0.012 C 
ATOM     20  C   UNL     1      -7.109 -11.014  14.759  0.00  0.00    +0.058 A 
ATOM     22  C   UNL     1      -9.890 -14.091  17.898  0.00  0.00    +0.016 C 
ATOM     23  C   UNL     1      -8.442 -11.369  14.699  0.00  0.00    +0.015 A 
ATOM     26  C   UNL     1      -7.471 -10.685  12.618  0.00  0.00    +0.165 A 
ATOM     28  C   UNL     1      -6.165  -9.949  10.642  0.00  0.00    +0.255 C 
ATOM     40  H   UNL     1      -8.180 -10.515  10.744  0.00  0.00    +0.157 HD
ENDROOT
BRANCH  28  29
ATOM      2  F   UNL     1      -4.657 -11.391   8.767  0.00  0.00    -0.205 F 
ATOM      3  F   UNL     1      -7.935  -8.051   9.581  0.00  0.00    -0.205 F 
ATOM     29  C   UNL     1      -6.295  -9.721   9.179  0.00  0.00    +0.107 A 
ATOM     31  C   UNL     1      -5.521 -10.468   8.317  0.00  0.00    +0.138 A 
ATOM     32  C   UNL     1      -7.188  -8.770   8.731  0.00  0.00    +0.138 A 
ATOM     34  C   UNL     1      -5.644 -10.255   6.944  0.00  0.00    +0.039 A 
ATOM     35  C   UNL     1      -7.311  -8.556   7.358  0.00  0.00    +0.039 A 
ATOM     36  C   UNL     1      -6.539  -9.299   6.465  0.00  0.00    +0.006 A 
ENDBRANCH  28  29
BRANCH  16   4
ATOM      4  O   UNL     1      -8.842 -13.501  20.613  0.00  0.00    -0.391 OA
ATOM     37  H   UNL     1      -9.611 -12.914  20.708  0.00  0.00    +0.210 HD
ENDBRANCH  16   4
BRANCH  13  21
ATOM     21  C   UNL     1     -10.256 -11.827  18.810  0.00  0.00    +0.165 C 
BRANCH  21   5
ATOM      5  O   UNL     1     -11.300 -12.618  19.333  0.00  0.00    -0.394 OA
ATOM     38  H   UNL     1     -10.903 -13.321  19.874  0.00  0.00    +0.209 HD
ENDBRANCH  21   5
ENDBRANCH  13  21
BRANCH  14  24
ATOM     24  C   UNL     1      -5.233  -9.970  16.066  0.00  0.00    +0.106 C 
BRANCH  24  25
ATOM      6  O   UNL     1      -3.172 -11.001  16.804  0.00  0.00    -0.276 OA
ATOM      9  N   UNL     1      -3.411 -10.379  14.577  0.00  0.00    -0.304 N 
ATOM     25  C   UNL     1      -3.834 -10.513  15.892  0.00  0.00    +0.214 C 
ATOM     39  H   UNL     1      -4.047 -10.007  13.878  0.00  0.00    +0.150 HD
BRANCH   9  27
ATOM     27  C   UNL     1      -2.110 -10.811  14.119  0.00  0.00    +0.193 C 
BRANCH  27  30
ATOM     30  C   UNL     1      -1.870 -10.386  12.740  0.00  0.00    -0.087 C 
ATOM     33  C   UNL     1      -1.670 -10.034  11.609  0.00  0.00    +0.005 C 
ENDBRANCH  27  30
ENDBRANCH   9  27
ENDBRANCH  24  25
ENDBRANCH  14  24
TORSDOF 8
ENDMDL
MODEL 9
REMARK VINA RESULT:      -6.1     25.557     28.697
REMARK  Name = 11883053
REMARK  10 active torsions:
REMARK  status: ('A' for Active; 'I' for Inactive)
REMARK    1  A    between atoms: O_4  and  C_16
REMARK    2  A    between atoms: O_5  and  C_21
REMARK    3  A    between atoms: N_9  and  C_27
REMARK    4  A    between atoms: C_11  and  C_19
REMARK    5  A    between atoms: C_13  and  C_21
REMARK    6  A    between atoms: C_13  and  C_22
REMARK    7  A    between atoms: C_14  and  C_24
REMARK    8  A    between atoms: C_24  and  C_25
REMARK    9  A    between atoms: C_27  and  C_30
REMARK   10  A    between atoms: C_28  and  C_29
REMARK                            x       y       z     vdW  Elec       q    Type
REMARK                         _______ _______ _______ _____ _____    ______ ____
ROOT
ATOM      1  S   UNL     1      19.036  -4.676  -2.028  0.00  0.00    -0.057 S 
ATOM      7  O   UNL     1      16.100  -7.922  -3.614  0.00  0.00    -0.270 OA
ATOM      8  N   UNL     1      18.330  -7.158  -1.829  0.00  0.00    -0.229 NA
ATOM     10  N   UNL     1      17.113  -5.805  -3.410  0.00  0.00    -0.261 N 
ATOM     11  C   UNL     1      21.326  -7.684   0.541  0.00  0.00    -0.019 C 
ATOM     12  C   UNL     1      21.252  -6.192   1.093  0.00  0.00    +0.011 C 
ATOM     13  C   UNL     1      22.388  -5.741   2.091  0.00  0.00    +0.021 C 
ATOM     14  C   UNL     1      19.896  -8.056  -0.067  0.00  0.00    +0.054 C 
ATOM     15  C   UNL     1      21.626  -8.654   1.713  0.00  0.00    +0.010 C 
ATOM     16  C   UNL     1      22.591  -6.844   3.169  0.00  0.00    +0.123 C 
ATOM     17  C   UNL     1      20.982  -5.174  -0.052  0.00  0.00    +0.049 C 
ATOM     18  C   UNL     1      22.807  -8.231   2.576  0.00  0.00    +0.032 C 
ATOM     19  C   UNL     1      22.412  -7.868  -0.548  0.00  0.00    +0.012 C 
ATOM     20  C   UNL     1      19.378  -6.951  -0.951  0.00  0.00    +0.058 A 
ATOM     22  C   UNL     1      21.931  -4.451   2.829  0.00  0.00    +0.016 C 
ATOM     23  C   UNL     1      19.868  -5.661  -0.915  0.00  0.00    +0.015 A 
ATOM     26  C   UNL     1      18.070  -6.030  -2.455  0.00  0.00    +0.165 A 
ATOM     28  C   UNL     1      16.202  -6.741  -3.925  0.00  0.00    +0.255 C 
ATOM     40  H   UNL     1      17.077  -4.845  -3.740  0.00  0.00    +0.157 HD
ENDROOT
BRANCH  28  29
ATOM      2  F   UNL     1      16.682  -6.952  -6.680  0.00  0.00    -0.205 F 
ATOM      3  F   UNL     1      13.811  -5.469  -3.199  0.00  0.00    -0.205 F 
ATOM     29  C   UNL     1      15.250  -6.211  -4.936  0.00  0.00    +0.107 A 
ATOM     31  C   UNL     1      15.553  -6.352  -6.274  0.00  0.00    +0.138 A 
ATOM     32  C   UNL     1      14.093  -5.598  -4.503  0.00  0.00    +0.138 A 
ATOM     34  C   UNL     1      14.659  -5.855  -7.223  0.00  0.00    +0.039 A 
ATOM     35  C   UNL     1      13.199  -5.101  -5.452  0.00  0.00    +0.039 A 
ATOM     36  C   UNL     1      13.482  -5.230  -6.811  0.00  0.00    +0.006 A 
ENDBRANCH  28  29
BRANCH  16   4
ATOM      4  O   UNL     1      23.699  -6.526   4.010  0.00  0.00    -0.391 OA
ATOM     37  H   UNL     1      23.568  -5.626   4.352  0.00  0.00    +0.210 HD
ENDBRANCH  16   4
BRANCH  13  21
ATOM     21  C   UNL     1      23.728  -5.381   1.414  0.00  0.00    +0.165 C 
BRANCH  21   5
ATOM      5  O   UNL     1      24.287  -4.292   2.114  0.00  0.00    -0.394 OA
ATOM     38  H   UNL     1      25.206  -4.517   2.338  0.00  0.00    +0.209 HD
ENDBRANCH  21   5
ENDBRANCH  13  21
BRANCH  14  24
ATOM     24  C   UNL     1      19.838  -9.416  -0.776  0.00  0.00    +0.106 C 
BRANCH  24  25
ATOM      6  O   UNL     1      18.275 -11.262  -0.786  0.00  0.00    -0.276 OA
ATOM      9  N   UNL     1      18.473  -9.937   1.113  0.00  0.00    -0.304 N 
ATOM     25  C   UNL     1      18.783 -10.320  -0.184  0.00  0.00    +0.214 C 
ATOM     39  H   UNL     1      18.981  -9.174   1.549  0.00  0.00    +0.150 HD
BRANCH   9  27
ATOM     27  C   UNL     1      17.493 -10.621   1.925  0.00  0.00    +0.193 C 
BRANCH  27  30
ATOM     30  C   UNL     1      18.099 -11.728   2.664  0.00  0.00    -0.087 C 
ATOM     33  C   UNL     1      18.601 -12.636   3.269  0.00  0.00    +0.005 C 
ENDBRANCH  27  30
ENDBRANCH   9  27
ENDBRANCH  24  25
ENDBRANCH  14  24
TORSDOF 8
ENDMDL
MODEL 10
REMARK VINA RESULT:      -6.0     25.151     29.062
REMARK  Name = 11883053
REMARK  10 active torsions:
REMARK  status: ('A' for Active; 'I' for Inactive)
REMARK    1  A    between atoms: O_4  and  C_16
REMARK    2  A    between atoms: O_5  and  C_21
REMARK    3  A    between atoms: N_9  and  C_27
REMARK    4  A    between atoms: C_11  and  C_19
REMARK    5  A    between atoms: C_13  and  C_21
REMARK    6  A    between atoms: C_13  and  C_22
REMARK    7  A    between atoms: C_14  and  C_24
REMARK    8  A    between atoms: C_24  and  C_25
REMARK    9  A    between atoms: C_27  and  C_30
REMARK   10  A    between atoms: C_28  and  C_29
REMARK                            x       y       z     vdW  Elec       q    Type
REMARK                         _______ _______ _______ _____ _____    ______ ____
ROOT
ATOM      1  S   UNL     1      -7.413   8.675  37.177  0.00  0.00    -0.057 S 
ATOM      7  O   UNL     1      -9.479  11.182  33.843  0.00  0.00    -0.270 OA
ATOM      8  N   UNL     1      -7.026  10.426  35.312  0.00  0.00    -0.229 NA
ATOM     10  N   UNL     1      -9.286   9.645  35.619  0.00  0.00    -0.261 N 
ATOM     11  C   UNL     1      -3.376  10.714  36.521  0.00  0.00    -0.019 C 
ATOM     12  C   UNL     1      -3.333   9.197  37.003  0.00  0.00    +0.011 C 
ATOM     13  C   UNL     1      -2.027   8.720  37.750  0.00  0.00    +0.021 C 
ATOM     14  C   UNL     1      -4.543  10.855  35.439  0.00  0.00    +0.054 C 
ATOM     15  C   UNL     1      -2.032  11.077  35.839  0.00  0.00    +0.010 C 
ATOM     16  C   UNL     1      -0.779   9.206  36.960  0.00  0.00    +0.123 C 
ATOM     17  C   UNL     1      -4.651   8.791  37.724  0.00  0.00    +0.049 C 
ATOM     18  C   UNL     1      -0.804  10.699  36.656  0.00  0.00    +0.032 C 
ATOM     19  C   UNL     1      -3.628  11.707  37.683  0.00  0.00    +0.012 C 
ATOM     20  C   UNL     1      -5.805  10.179  35.912  0.00  0.00    +0.058 A 
ATOM     22  C   UNL     1      -1.990   7.166  37.763  0.00  0.00    +0.016 C 
ATOM     23  C   UNL     1      -5.828   9.243  36.927  0.00  0.00    +0.015 A 
ATOM     26  C   UNL     1      -7.946   9.694  35.903  0.00  0.00    +0.165 A 
ATOM     28  C   UNL     1      -9.963  10.374  34.628  0.00  0.00    +0.255 C 
ATOM     40  H   UNL     1      -9.807   8.987  36.191  0.00  0.00    +0.157 HD
ENDROOT
BRANCH  28  29
ATOM      2  F   UNL     1     -11.040   8.828  32.551  0.00  0.00    -0.205 F 
ATOM      3  F   UNL     1     -11.809  11.368  36.490  0.00  0.00    -0.205 F 
ATOM     29  C   UNL     1     -11.420  10.100  34.520  0.00  0.00    +0.107 A 
ATOM     31  C   UNL     1     -11.876   9.331  33.471  0.00  0.00    +0.138 A 
ATOM     32  C   UNL     1     -12.268  10.622  35.475  0.00  0.00    +0.138 A 
ATOM     34  C   UNL     1     -13.243   9.073  33.370  0.00  0.00    +0.039 A 
ATOM     35  C   UNL     1     -13.635  10.365  35.374  0.00  0.00    +0.039 A 
ATOM     36  C   UNL     1     -14.122   9.590  34.322  0.00  0.00    +0.006 A 
ENDBRANCH  28  29
BRANCH  16   4
ATOM      4  O   UNL     1       0.418   8.903  37.676  0.00  0.00    -0.391 OA
ATOM     37  H   UNL     1       0.207   8.225  38.339  0.00  0.00    +0.210 HD
ENDBRANCH  16   4
BRANCH  13  21
ATOM     21  C   UNL     1      -1.943   9.151  39.230  0.00  0.00    +0.165 C 
BRANCH  21   5
ATOM      5  O   UNL     1      -1.302   8.118  39.945  0.00  0.00    -0.394 OA
ATOM     38  H   UNL     1      -1.238   8.390  40.876  0.00  0.00    +0.209 HD
ENDBRANCH  21   5
ENDBRANCH  13  21
BRANCH  14  24
ATOM     24  C   UNL     1      -4.816  12.293  34.978  0.00  0.00    +0.106 C 
BRANCH  24  25
ATOM      6  O   UNL     1      -4.082  12.578  32.690  0.00  0.00    -0.276 OA
ATOM      9  N   UNL     1      -6.335  12.220  33.136  0.00  0.00    -0.304 N 
ATOM     25  C   UNL     1      -5.001  12.383  33.481  0.00  0.00    +0.214 C 
ATOM     39  H   UNL     1      -7.021  12.013  33.855  0.00  0.00    +0.150 HD
BRANCH   9  27
ATOM     27  C   UNL     1      -6.808  12.263  31.771  0.00  0.00    +0.193 C 
BRANCH  27  30
ATOM     30  C   UNL     1      -7.698  13.403  31.556  0.00  0.00    -0.087 C 
ATOM     33  C   UNL     1      -8.428  14.340  31.376  0.00  0.00    +0.005 C 
ENDBRANCH  27  30
ENDBRANCH   9  27
ENDBRANCH  24  25
ENDBRANCH  14  24
TORSDOF 8
ENDMDL
