MODEL 1
REMARK VINA RESULT:      -7.1      0.000      0.000
REMARK  Name = 75536627
REMARK  7 active torsions:
REMARK  status: ('A' for Active; 'I' for Inactive)
REMARK    1  A    between atoms: O_2  and  C_8
REMARK    2  A    between atoms: N_4  and  C_7
REMARK    3  A    between atoms: N_4  and  C_12
REMARK    4  A    between atoms: N_5  and  C_11
REMARK    5  A    between atoms: C_9  and  C_11
REMARK    6  A    between atoms: C_12  and  C_13
REMARK    7  A    between atoms: C_14  and  C_17
REMARK                            x       y       z     vdW  Elec       q    Type
REMARK                         _______ _______ _______ _____ _____    ______ ____
ROOT
ATOM      1  O   UNL     1      10.549   8.472  19.960  0.00  0.00    -0.371 OA
ATOM      7  C   UNL     1      12.682   7.649  19.313  0.00  0.00    +0.111 C 
ATOM      8  C   UNL     1      12.529   7.503  20.816  0.00  0.00    +0.164 C 
ATOM      9  C   UNL     1      11.015   7.556  20.964  0.00  0.00    +0.165 C 
ATOM     10  C   UNL     1      11.602   8.672  19.000  0.00  0.00    +0.181 C 
ENDROOT
BRANCH   8   2
ATOM      2  O   UNL     1      13.065   6.287  21.302  0.00  0.00    -0.388 OA
ATOM     26  H   UNL     1      12.335   5.749  21.653  0.00  0.00    +0.210 HD
ENDBRANCH   8   2
BRANCH   7   4
ATOM      4  N   UNL     1      14.007   8.080  18.899  0.00  0.00    -0.305 NA
ATOM     25  H   UNL     1      14.438   8.604  19.661  0.00  0.00    +0.123 HD
BRANCH   4  12
ATOM     12  C   UNL     1      14.853   6.939  18.573  0.00  0.00    +0.118 C 
BRANCH  12  13
ATOM      6  N   UNL     1      17.355   7.799  21.281  0.00  0.00    -0.263 NA
ATOM     13  C   UNL     1      16.097   6.903  19.421  0.00  0.00    -0.015 A 
ATOM     15  C   UNL     1      17.113   5.990  19.164  0.00  0.00    +0.008 A 
ATOM     16  C   UNL     1      16.264   7.778  20.482  0.00  0.00    +0.115 A 
ATOM     18  C   UNL     1      18.250   5.981  19.964  0.00  0.00    +0.020 A 
ATOM     21  C   UNL     1      18.322   6.897  21.001  0.00  0.00    +0.111 A 
ENDBRANCH  12  13
ENDBRANCH   4  12
ENDBRANCH   7   4
BRANCH   9  11
ATOM     11  C   UNL     1      10.562   8.023  22.336  0.00  0.00    +0.138 C 
BRANCH  11   5
ATOM      3  O   UNL     1      12.515  10.014  23.016  0.00  0.00    -0.270 OA
ATOM      5  N   UNL     1      10.363   9.443  22.365  0.00  0.00    -0.309 N 
ATOM     14  C   UNL     1      11.371  10.338  22.708  0.00  0.00    +0.244 C 
ATOM     27  H   UNL     1       9.419   9.773  22.190  0.00  0.00    +0.149 HD
BRANCH  14  17
ATOM     17  C   UNL     1      10.997  11.776  22.717  0.00  0.00    +0.037 A 
ATOM     19  C   UNL     1      11.184  12.553  21.574  0.00  0.00    +0.013 A 
ATOM     20  C   UNL     1      10.457  12.348  23.868  0.00  0.00    +0.013 A 
ATOM     22  C   UNL     1      10.831  13.903  21.582  0.00  0.00    +0.001 A 
ATOM     23  C   UNL     1      10.103  13.697  23.877  0.00  0.00    +0.001 A 
ATOM     24  C   UNL     1      10.290  14.475  22.733  0.00  0.00    +0.000 A 
ENDBRANCH  14  17
ENDBRANCH  11   5
ENDBRANCH   9  11
TORSDOF 7
ENDMDL
MODEL 2
REMARK VINA RESULT:      -7.0      1.831      7.153
REMARK  Name = 75536627
REMARK  7 active torsions:
REMARK  status: ('A' for Active; 'I' for Inactive)
REMARK    1  A    between atoms: O_2  and  C_8
REMARK    2  A    between atoms: N_4  and  C_7
REMARK    3  A    between atoms: N_4  and  C_12
REMARK    4  A    between atoms: N_5  and  C_11
REMARK    5  A    between atoms: C_9  and  C_11
REMARK    6  A    between atoms: C_12  and  C_13
REMARK    7  A    between atoms: C_14  and  C_17
REMARK                            x       y       z     vdW  Elec       q    Type
REMARK                         _______ _______ _______ _____ _____    ______ ____
ROOT
ATOM      1  O   UNL     1      12.853   6.702  20.756  0.00  0.00    -0.371 OA
ATOM      7  C   UNL     1      10.911   8.014  21.147  0.00  0.00    +0.111 C 
ATOM      8  C   UNL     1      11.476   8.359  19.781  0.00  0.00    +0.164 C 
ATOM      9  C   UNL     1      12.318   7.125  19.491  0.00  0.00    +0.165 C 
ATOM     10  C   UNL     1      12.106   7.344  21.805  0.00  0.00    +0.181 C 
ENDROOT
BRANCH   8   2
ATOM      2  O   UNL     1      10.468   8.552  18.808  0.00  0.00    -0.388 OA
ATOM     26  H   UNL     1       9.803   9.161  19.171  0.00  0.00    +0.210 HD
ENDBRANCH   8   2
BRANCH   7   4
ATOM      4  N   UNL     1      10.431   9.168  21.890  0.00  0.00    -0.305 NA
ATOM     25  H   UNL     1      10.421   8.942  22.884  0.00  0.00    +0.123 HD
BRANCH   4  12
ATOM     12  C   UNL     1      11.291  10.325  21.677  0.00  0.00    +0.118 C 
BRANCH  12  13
ATOM      6  N   UNL     1      13.419  11.956  24.350  0.00  0.00    -0.263 NA
ATOM     13  C   UNL     1      11.688  10.974  22.976  0.00  0.00    -0.015 A 
ATOM     15  C   UNL     1      10.754  11.196  23.982  0.00  0.00    +0.008 A 
ATOM     16  C   UNL     1      12.996  11.369  23.208  0.00  0.00    +0.115 A 
ATOM     18  C   UNL     1      11.150  11.797  25.171  0.00  0.00    +0.020 A 
ATOM     21  C   UNL     1      12.482  12.155  25.305  0.00  0.00    +0.111 A 
ENDBRANCH  12  13
ENDBRANCH   4  12
ENDBRANCH   7   4
BRANCH   9  11
ATOM     11  C   UNL     1      13.451   7.386  18.516  0.00  0.00    +0.138 C 
BRANCH  11   5
ATOM      3  O   UNL     1      15.325   9.186  19.738  0.00  0.00    -0.270 OA
ATOM      5  N   UNL     1      14.721   7.043  19.086  0.00  0.00    -0.309 N 
ATOM     14  C   UNL     1      15.570   7.985  19.660  0.00  0.00    +0.244 C 
ATOM     27  H   UNL     1      15.016   6.076  18.991  0.00  0.00    +0.149 HD
BRANCH  14  17
ATOM     17  C   UNL     1      16.862   7.472  20.183  0.00  0.00    +0.037 A 
ATOM     19  C   UNL     1      17.425   6.316  19.642  0.00  0.00    +0.013 A 
ATOM     20  C   UNL     1      17.514   8.148  21.214  0.00  0.00    +0.013 A 
ATOM     22  C   UNL     1      18.640   5.836  20.131  0.00  0.00    +0.001 A 
ATOM     23  C   UNL     1      18.729   7.669  21.704  0.00  0.00    +0.001 A 
ATOM     24  C   UNL     1      19.292   6.512  21.162  0.00  0.00    +0.000 A 
ENDBRANCH  14  17
ENDBRANCH  11   5
ENDBRANCH   9  11
TORSDOF 7
ENDMDL
MODEL 3
REMARK VINA RESULT:      -6.8     26.391     29.177
REMARK  Name = 75536627
REMARK  7 active torsions:
REMARK  status: ('A' for Active; 'I' for Inactive)
REMARK    1  A    between atoms: O_2  and  C_8
REMARK    2  A    between atoms: N_4  and  C_7
REMARK    3  A    between atoms: N_4  and  C_12
REMARK    4  A    between atoms: N_5  and  C_11
REMARK    5  A    between atoms: C_9  and  C_11
REMARK    6  A    between atoms: C_12  and  C_13
REMARK    7  A    between atoms: C_14  and  C_17
REMARK                            x       y       z     vdW  Elec       q    Type
REMARK                         _______ _______ _______ _____ _____    ______ ____
ROOT
ATOM      1  O   UNL     1     -17.540   5.480  24.139  0.00  0.00    -0.371 OA
ATOM      7  C   UNL     1     -15.991   4.204  22.867  0.00  0.00    +0.111 C 
ATOM      8  C   UNL     1     -15.756   3.941  24.343  0.00  0.00    +0.164 C 
ATOM      9  C   UNL     1     -17.092   4.370  24.934  0.00  0.00    +0.165 C 
ATOM     10  C   UNL     1     -16.783   5.501  22.916  0.00  0.00    +0.181 C 
ENDROOT
BRANCH   8   2
ATOM      2  O   UNL     1     -15.471   2.583  24.616  0.00  0.00    -0.388 OA
ATOM     26  H   UNL     1     -16.313   2.102  24.693  0.00  0.00    +0.210 HD
ENDBRANCH   8   2
BRANCH   7   4
ATOM      4  N   UNL     1     -14.767   4.318  22.092  0.00  0.00    -0.305 NA
ATOM     25  H   UNL     1     -15.007   4.478  21.113  0.00  0.00    +0.123 HD
BRANCH   4  12
ATOM     12  C   UNL     1     -13.946   5.426  22.564  0.00  0.00    +0.118 C 
BRANCH  12  13
ATOM      6  N   UNL     1     -13.920   7.742  19.569  0.00  0.00    -0.263 NA
ATOM     13  C   UNL     1     -13.438   6.271  21.426  0.00  0.00    -0.015 A 
ATOM     15  C   UNL     1     -12.076   6.377  21.165  0.00  0.00    +0.008 A 
ATOM     16  C   UNL     1     -14.310   6.968  20.606  0.00  0.00    +0.115 A 
ATOM     18  C   UNL     1     -11.635   7.164  20.107  0.00  0.00    +0.020 A 
ATOM     21  C   UNL     1     -12.589   7.820  19.346  0.00  0.00    +0.111 A 
ENDBRANCH  12  13
ENDBRANCH   4  12
ENDBRANCH   7   4
BRANCH   9  11
ATOM     11  C   UNL     1     -16.998   4.787  26.391  0.00  0.00    +0.138 C 
BRANCH  11   5
ATOM      3  O   UNL     1     -16.842   4.650  29.254  0.00  0.00    -0.270 OA
ATOM      5  N   UNL     1     -16.266   3.826  27.163  0.00  0.00    -0.309 N 
ATOM     14  C   UNL     1     -16.246   3.835  28.555  0.00  0.00    +0.244 C 
ATOM     27  H   UNL     1     -15.693   3.168  26.645  0.00  0.00    +0.149 HD
BRANCH  14  17
ATOM     17  C   UNL     1     -15.418   2.788  29.206  0.00  0.00    +0.037 A 
ATOM     19  C   UNL     1     -15.686   1.439  28.972  0.00  0.00    +0.013 A 
ATOM     20  C   UNL     1     -14.370   3.154  30.050  0.00  0.00    +0.013 A 
ATOM     22  C   UNL     1     -14.907   0.456  29.582  0.00  0.00    +0.001 A 
ATOM     23  C   UNL     1     -13.590   2.172  30.660  0.00  0.00    +0.001 A 
ATOM     24  C   UNL     1     -13.858   0.822  30.426  0.00  0.00    +0.000 A 
ENDBRANCH  14  17
ENDBRANCH  11   5
ENDBRANCH   9  11
TORSDOF 7
ENDMDL
MODEL 4
REMARK VINA RESULT:      -6.5     25.698     28.584
REMARK  Name = 75536627
REMARK  7 active torsions:
REMARK  status: ('A' for Active; 'I' for Inactive)
REMARK    1  A    between atoms: O_2  and  C_8
REMARK    2  A    between atoms: N_4  and  C_7
REMARK    3  A    between atoms: N_4  and  C_12
REMARK    4  A    between atoms: N_5  and  C_11
REMARK    5  A    between atoms: C_9  and  C_11
REMARK    6  A    between atoms: C_12  and  C_13
REMARK    7  A    between atoms: C_14  and  C_17
REMARK                            x       y       z     vdW  Elec       q    Type
REMARK                         _______ _______ _______ _____ _____    ______ ____
ROOT
ATOM      1  O   UNL     1     -17.027   5.653  23.188  0.00  0.00    -0.371 OA
ATOM      7  C   UNL     1     -16.072   4.365  24.941  0.00  0.00    +0.111 C 
ATOM      8  C   UNL     1     -15.140   4.340  23.743  0.00  0.00    +0.164 C 
ATOM      9  C   UNL     1     -15.607   5.573  22.982  0.00  0.00    +0.165 C 
ATOM     10  C   UNL     1     -17.376   4.806  24.297  0.00  0.00    +0.181 C 
ENDROOT
BRANCH   8   2
ATOM      2  O   UNL     1     -13.777   4.432  24.112  0.00  0.00    -0.388 OA
ATOM     26  H   UNL     1     -13.725   4.502  25.080  0.00  0.00    +0.210 HD
ENDBRANCH   8   2
BRANCH   7   4
ATOM      4  N   UNL     1     -16.181   3.086  25.624  0.00  0.00    -0.305 NA
ATOM     25  H   UNL     1     -15.246   2.707  25.769  0.00  0.00    +0.123 HD
BRANCH   4  12
ATOM     12  C   UNL     1     -16.837   3.235  26.916  0.00  0.00    +0.118 C 
BRANCH  12  13
ATOM      6  N   UNL     1     -15.675   0.357  29.085  0.00  0.00    -0.263 NA
ATOM     13  C   UNL     1     -16.122   2.471  27.999  0.00  0.00    -0.015 A 
ATOM     15  C   UNL     1     -15.275   3.117  28.892  0.00  0.00    +0.008 A 
ATOM     16  C   UNL     1     -16.286   1.102  28.136  0.00  0.00    +0.115 A 
ATOM     18  C   UNL     1     -14.628   2.386  29.882  0.00  0.00    +0.020 A 
ATOM     21  C   UNL     1     -14.860   1.020  29.935  0.00  0.00    +0.111 A 
ENDBRANCH  12  13
ENDBRANCH   4  12
ENDBRANCH   7   4
BRANCH   9  11
ATOM     11  C   UNL     1     -15.306   5.510  21.495  0.00  0.00    +0.138 C 
BRANCH  11   5
ATOM      3  O   UNL     1     -12.448   5.661  21.717  0.00  0.00    -0.270 OA
ATOM      5  N   UNL     1     -14.472   6.602  21.085  0.00  0.00    -0.309 N 
ATOM     14  C   UNL     1     -13.088   6.589  21.231  0.00  0.00    +0.244 C 
ATOM     27  H   UNL     1     -14.945   7.431  20.740  0.00  0.00    +0.149 HD
BRANCH  14  17
ATOM     17  C   UNL     1     -12.370   7.809  20.781  0.00  0.00    +0.037 A 
ATOM     19  C   UNL     1     -12.753   9.062  21.259  0.00  0.00    +0.013 A 
ATOM     20  C   UNL     1     -11.310   7.701  19.881  0.00  0.00    +0.013 A 
ATOM     22  C   UNL     1     -12.077  10.207  20.838  0.00  0.00    +0.001 A 
ATOM     23  C   UNL     1     -10.633   8.846  19.459  0.00  0.00    +0.001 A 
ATOM     24  C   UNL     1     -11.017  10.099  19.938  0.00  0.00    +0.000 A 
ENDBRANCH  14  17
ENDBRANCH  11   5
ENDBRANCH   9  11
TORSDOF 7
ENDMDL
MODEL 5
REMARK VINA RESULT:      -6.4     26.977     29.912
REMARK  Name = 75536627
REMARK  7 active torsions:
REMARK  status: ('A' for Active; 'I' for Inactive)
REMARK    1  A    between atoms: O_2  and  C_8
REMARK    2  A    between atoms: N_4  and  C_7
REMARK    3  A    between atoms: N_4  and  C_12
REMARK    4  A    between atoms: N_5  and  C_11
REMARK    5  A    between atoms: C_9  and  C_11
REMARK    6  A    between atoms: C_12  and  C_13
REMARK    7  A    between atoms: C_14  and  C_17
REMARK                            x       y       z     vdW  Elec       q    Type
REMARK                         _______ _______ _______ _____ _____    ______ ____
ROOT
ATOM      1  O   UNL     1     -17.528   1.787  25.099  0.00  0.00    -0.371 OA
ATOM      7  C   UNL     1     -16.471   3.111  26.765  0.00  0.00    +0.111 C 
ATOM      8  C   UNL     1     -16.087   3.639  25.394  0.00  0.00    +0.164 C 
ATOM      9  C   UNL     1     -17.208   3.070  24.536  0.00  0.00    +0.165 C 
ATOM     10  C   UNL     1     -16.965   1.715  26.421  0.00  0.00    +0.181 C 
ENDROOT
BRANCH   8   2
ATOM      2  O   UNL     1     -16.051   5.052  25.345  0.00  0.00    -0.388 OA
ATOM     26  H   UNL     1     -15.510   5.371  26.088  0.00  0.00    +0.210 HD
ENDBRANCH   8   2
BRANCH   7   4
ATOM      4  N   UNL     1     -15.373   3.105  27.717  0.00  0.00    -0.305 NA
ATOM     25  H   UNL     1     -14.752   3.888  27.513  0.00  0.00    +0.123 HD
BRANCH   4  12
ATOM     12  C   UNL     1     -15.862   3.234  29.084  0.00  0.00    +0.118 C 
BRANCH  12  13
ATOM      6  N   UNL     1     -15.139  -0.346  30.082  0.00  0.00    -0.263 NA
ATOM     13  C   UNL     1     -15.495   2.040  29.926  0.00  0.00    -0.015 A 
ATOM     15  C   UNL     1     -15.180   2.182  31.272  0.00  0.00    +0.008 A 
ATOM     16  C   UNL     1     -15.460   0.766  29.383  0.00  0.00    +0.115 A 
ATOM     18  C   UNL     1     -14.846   1.062  32.025  0.00  0.00    +0.020 A 
ATOM     21  C   UNL     1     -14.840  -0.169  31.388  0.00  0.00    +0.111 A 
ENDBRANCH  12  13
ENDBRANCH   4  12
ENDBRANCH   7   4
BRANCH   9  11
ATOM     11  C   UNL     1     -16.823   2.908  23.076  0.00  0.00    +0.138 C 
BRANCH  11   5
ATOM      3  O   UNL     1     -17.016   5.167  21.315  0.00  0.00    -0.270 OA
ATOM      5  N   UNL     1     -15.764   3.803  22.713  0.00  0.00    -0.309 N 
ATOM     14  C   UNL     1     -15.948   4.878  21.847  0.00  0.00    +0.244 C 
ATOM     27  H   UNL     1     -14.838   3.578  23.063  0.00  0.00    +0.149 HD
BRANCH  14  17
ATOM     17  C   UNL     1     -14.744   5.695  21.550  0.00  0.00    +0.037 A 
ATOM     19  C   UNL     1     -14.879   6.937  20.929  0.00  0.00    +0.013 A 
ATOM     20  C   UNL     1     -13.478   5.222  21.893  0.00  0.00    +0.013 A 
ATOM     22  C   UNL     1     -13.749   7.706  20.652  0.00  0.00    +0.001 A 
ATOM     23  C   UNL     1     -12.347   5.990  21.617  0.00  0.00    +0.001 A 
ATOM     24  C   UNL     1     -12.482   7.232  20.996  0.00  0.00    +0.000 A 
ENDBRANCH  14  17
ENDBRANCH  11   5
ENDBRANCH   9  11
TORSDOF 7
ENDMDL
MODEL 6
REMARK VINA RESULT:      -6.4      2.177      2.411
REMARK  Name = 75536627
REMARK  7 active torsions:
REMARK  status: ('A' for Active; 'I' for Inactive)
REMARK    1  A    between atoms: O_2  and  C_8
REMARK    2  A    between atoms: N_4  and  C_7
REMARK    3  A    between atoms: N_4  and  C_12
REMARK    4  A    between atoms: N_5  and  C_11
REMARK    5  A    between atoms: C_9  and  C_11
REMARK    6  A    between atoms: C_12  and  C_13
REMARK    7  A    between atoms: C_14  and  C_17
REMARK                            x       y       z     vdW  Elec       q    Type
REMARK                         _______ _______ _______ _____ _____    ______ ____
ROOT
ATOM      1  O   UNL     1      12.095   9.637  20.863  0.00  0.00    -0.371 OA
ATOM      7  C   UNL     1      12.680   7.451  20.140  0.00  0.00    +0.111 C 
ATOM      8  C   UNL     1      11.781   7.346  21.358  0.00  0.00    +0.164 C 
ATOM      9  C   UNL     1      11.107   8.711  21.343  0.00  0.00    +0.165 C 
ATOM     10  C   UNL     1      13.157   8.891  20.242  0.00  0.00    +0.181 C 
ENDROOT
BRANCH   8   2
ATOM      2  O   UNL     1      10.842   6.294  21.252  0.00  0.00    -0.388 OA
ATOM     26  H   UNL     1      10.875   5.770  22.071  0.00  0.00    +0.210 HD
ENDBRANCH   8   2
BRANCH   7   4
ATOM      4  N   UNL     1      13.773   6.492  20.136  0.00  0.00    -0.305 NA
ATOM     25  H   UNL     1      13.405   5.571  19.897  0.00  0.00    +0.123 HD
BRANCH   4  12
ATOM     12  C   UNL     1      14.792   6.861  19.162  0.00  0.00    +0.118 C 
BRANCH  12  13
ATOM      6  N   UNL     1      17.809   7.093  21.438  0.00  0.00    -0.263 NA
ATOM     13  C   UNL     1      16.183   6.658  19.702  0.00  0.00    -0.015 A 
ATOM     15  C   UNL     1      17.113   5.885  19.015  0.00  0.00    +0.008 A 
ATOM     16  C   UNL     1      16.578   7.235  20.898  0.00  0.00    +0.115 A 
ATOM     18  C   UNL     1      18.390   5.716  19.538  0.00  0.00    +0.020 A 
ATOM     21  C   UNL     1      18.686   6.335  20.742  0.00  0.00    +0.111 A 
ENDBRANCH  12  13
ENDBRANCH   4  12
ENDBRANCH   7   4
BRANCH   9  11
ATOM     11  C   UNL     1      10.613   9.151  22.710  0.00  0.00    +0.138 C 
BRANCH  11   5
ATOM      3  O   UNL     1      10.213  11.711  23.947  0.00  0.00    -0.270 OA
ATOM      5  N   UNL     1      11.600   9.935  23.395  0.00  0.00    -0.309 N 
ATOM     14  C   UNL     1      11.316  11.171  23.967  0.00  0.00    +0.244 C 
ATOM     27  H   UNL     1      12.550   9.578  23.386  0.00  0.00    +0.149 HD
BRANCH  14  17
ATOM     17  C   UNL     1      12.454  11.870  24.617  0.00  0.00    +0.037 A 
ATOM     19  C   UNL     1      13.750  11.698  24.129  0.00  0.00    +0.013 A 
ATOM     20  C   UNL     1      12.228  12.700  25.715  0.00  0.00    +0.013 A 
ATOM     22  C   UNL     1      14.819  12.356  24.739  0.00  0.00    +0.001 A 
ATOM     23  C   UNL     1      13.295  13.358  26.325  0.00  0.00    +0.001 A 
ATOM     24  C   UNL     1      14.591  13.186  25.837  0.00  0.00    +0.000 A 
ENDBRANCH  14  17
ENDBRANCH  11   5
ENDBRANCH   9  11
TORSDOF 7
ENDMDL
MODEL 7
REMARK VINA RESULT:      -6.3     26.534     28.975
REMARK  Name = 75536627
REMARK  7 active torsions:
REMARK  status: ('A' for Active; 'I' for Inactive)
REMARK    1  A    between atoms: O_2  and  C_8
REMARK    2  A    between atoms: N_4  and  C_7
REMARK    3  A    between atoms: N_4  and  C_12
REMARK    4  A    between atoms: N_5  and  C_11
REMARK    5  A    between atoms: C_9  and  C_11
REMARK    6  A    between atoms: C_12  and  C_13
REMARK    7  A    between atoms: C_14  and  C_17
REMARK                            x       y       z     vdW  Elec       q    Type
REMARK                         _______ _______ _______ _____ _____    ______ ____
ROOT
ATOM      1  O   UNL     1      -6.206 -11.204  18.344  0.00  0.00    -0.371 OA
ATOM      7  C   UNL     1      -8.035  -9.928  17.524  0.00  0.00    +0.111 C 
ATOM      8  C   UNL     1      -6.790  -9.578  16.729  0.00  0.00    +0.164 C 
ATOM      9  C   UNL     1      -5.919 -10.797  16.997  0.00  0.00    +0.165 C 
ATOM     10  C   UNL     1      -7.430 -10.572  18.761  0.00  0.00    +0.181 C 
ENDROOT
BRANCH   8   2
ATOM      2  O   UNL     1      -7.054  -9.409  15.350  0.00  0.00    -0.388 OA
ATOM     26  H   UNL     1      -6.207  -9.416  14.873  0.00  0.00    +0.210 HD
ENDBRANCH   8   2
BRANCH   7   4
ATOM      4  N   UNL     1      -8.872  -8.781  17.836  0.00  0.00    -0.305 NA
ATOM     25  H   UNL     1      -8.720  -8.059  17.132  0.00  0.00    +0.123 HD
BRANCH   4  12
ATOM     12  C   UNL     1     -10.283  -9.146  17.842  0.00  0.00    +0.118 C 
BRANCH  12  13
ATOM      6  N   UNL     1     -11.296  -6.003  15.991  0.00  0.00    -0.263 NA
ATOM     13  C   UNL     1     -11.122  -8.154  17.081  0.00  0.00    -0.015 A 
ATOM     15  C   UNL     1     -12.447  -8.430  16.763  0.00  0.00    +0.008 A 
ATOM     16  C   UNL     1     -10.598  -6.937  16.675  0.00  0.00    +0.115 A 
ATOM     18  C   UNL     1     -13.197  -7.495  16.060  0.00  0.00    +0.020 A 
ATOM     21  C   UNL     1     -12.581  -6.307  15.700  0.00  0.00    +0.111 A 
ENDBRANCH  12  13
ENDBRANCH   4  12
ENDBRANCH   7   4
BRANCH   9  11
ATOM     11  C   UNL     1      -4.434 -10.517  16.850  0.00  0.00    +0.138 C 
BRANCH  11   5
ATOM      3  O   UNL     1      -3.595 -12.324  14.783  0.00  0.00    -0.270 OA
ATOM      5  N   UNL     1      -4.097 -10.175  15.499  0.00  0.00    -0.309 N 
ATOM     14  C   UNL     1      -3.698 -11.121  14.559  0.00  0.00    +0.244 C 
ATOM     27  H   UNL     1      -4.093  -9.187  15.267  0.00  0.00    +0.149 HD
BRANCH  14  17
ATOM     17  C   UNL     1      -3.358 -10.603  13.210  0.00  0.00    +0.037 A 
ATOM     19  C   UNL     1      -4.373 -10.248  12.321  0.00  0.00    +0.013 A 
ATOM     20  C   UNL     1      -2.022 -10.468  12.831  0.00  0.00    +0.013 A 
ATOM     22  C   UNL     1      -4.053  -9.759  11.054  0.00  0.00    +0.001 A 
ATOM     23  C   UNL     1      -1.702  -9.979  11.565  0.00  0.00    +0.001 A 
ATOM     24  C   UNL     1      -2.717  -9.624  10.676  0.00  0.00    +0.000 A 
ENDBRANCH  14  17
ENDBRANCH  11   5
ENDBRANCH   9  11
TORSDOF 7
ENDMDL
MODEL 8
REMARK VINA RESULT:      -6.3     16.406     19.016
REMARK  Name = 75536627
REMARK  7 active torsions:
REMARK  status: ('A' for Active; 'I' for Inactive)
REMARK    1  A    between atoms: O_2  and  C_8
REMARK    2  A    between atoms: N_4  and  C_7
REMARK    3  A    between atoms: N_4  and  C_12
REMARK    4  A    between atoms: N_5  and  C_11
REMARK    5  A    between atoms: C_9  and  C_11
REMARK    6  A    between atoms: C_12  and  C_13
REMARK    7  A    between atoms: C_14  and  C_17
REMARK                            x       y       z     vdW  Elec       q    Type
REMARK                         _______ _______ _______ _____ _____    ______ ____
ROOT
ATOM      1  O   UNL     1      13.419   4.545  -0.173  0.00  0.00    -0.371 OA
ATOM      7  C   UNL     1      15.362   5.376   0.912  0.00  0.00    +0.111 C 
ATOM      8  C   UNL     1      14.697   4.346   1.806  0.00  0.00    +0.164 C 
ATOM      9  C   UNL     1      13.856   3.578   0.796  0.00  0.00    +0.165 C 
ATOM     10  C   UNL     1      14.227   5.727  -0.037  0.00  0.00    +0.181 C 
ENDROOT
BRANCH   8   2
ATOM      2  O   UNL     1      15.631   3.509   2.460  0.00  0.00    -0.388 OA
ATOM     26  H   UNL     1      15.561   2.616   2.081  0.00  0.00    +0.210 HD
ENDBRANCH   8   2
BRANCH   7   4
ATOM      4  N   UNL     1      15.876   6.530   1.630  0.00  0.00    -0.305 NA
ATOM     25  H   UNL     1      16.553   7.014   1.040  0.00  0.00    +0.123 HD
BRANCH   4  12
ATOM     12  C   UNL     1      14.804   7.454   1.975  0.00  0.00    +0.118 C 
BRANCH  12  13
ATOM      6  N   UNL     1      15.303   7.471   5.729  0.00  0.00    -0.263 NA
ATOM     13  C   UNL     1      14.497   7.431   3.450  0.00  0.00    -0.015 A 
ATOM     15  C   UNL     1      13.186   7.350   3.907  0.00  0.00    +0.008 A 
ATOM     16  C   UNL     1      15.510   7.489   4.392  0.00  0.00    +0.115 A 
ATOM     18  C   UNL     1      12.933   7.329   5.274  0.00  0.00    +0.020 A 
ATOM     21  C   UNL     1      14.016   7.392   6.135  0.00  0.00    +0.111 A 
ENDBRANCH  12  13
ENDBRANCH   4  12
ENDBRANCH   7   4
BRANCH   9  11
ATOM     11  C   UNL     1      12.652   2.891   1.415  0.00  0.00    +0.138 C 
BRANCH  11   5
ATOM      3  O   UNL     1      10.026   4.029   1.183  0.00  0.00    -0.270 OA
ATOM      5  N   UNL     1      12.000   3.740   2.369  0.00  0.00    -0.309 N 
ATOM     14  C   UNL     1      10.719   4.249   2.173  0.00  0.00    +0.244 C 
ATOM     27  H   UNL     1      12.545   4.019   3.178  0.00  0.00    +0.149 HD
BRANCH  14  17
ATOM     17  C   UNL     1      10.194   5.135   3.243  0.00  0.00    +0.037 A 
ATOM     19  C   UNL     1      10.180   4.698   4.568  0.00  0.00    +0.013 A 
ATOM     20  C   UNL     1       9.717   6.406   2.923  0.00  0.00    +0.013 A 
ATOM     22  C   UNL     1       9.689   5.532   5.573  0.00  0.00    +0.001 A 
ATOM     23  C   UNL     1       9.227   7.240   3.928  0.00  0.00    +0.001 A 
ATOM     24  C   UNL     1       9.212   6.803   5.253  0.00  0.00    +0.000 A 
ENDBRANCH  14  17
ENDBRANCH  11   5
ENDBRANCH   9  11
TORSDOF 7
ENDMDL
MODEL 9
REMARK VINA RESULT:      -6.2     26.311     28.509
REMARK  Name = 75536627
REMARK  7 active torsions:
REMARK  status: ('A' for Active; 'I' for Inactive)
REMARK    1  A    between atoms: O_2  and  C_8
REMARK    2  A    between atoms: N_4  and  C_7
REMARK    3  A    between atoms: N_4  and  C_12
REMARK    4  A    between atoms: N_5  and  C_11
REMARK    5  A    between atoms: C_9  and  C_11
REMARK    6  A    between atoms: C_12  and  C_13
REMARK    7  A    between atoms: C_14  and  C_17
REMARK                            x       y       z     vdW  Elec       q    Type
REMARK                         _______ _______ _______ _____ _____    ______ ____
ROOT
ATOM      1  O   UNL     1      -7.013 -13.242  18.730  0.00  0.00    -0.371 OA
ATOM      7  C   UNL     1      -5.494 -11.415  18.738  0.00  0.00    +0.111 C 
ATOM      8  C   UNL     1      -6.876 -10.912  19.112  0.00  0.00    +0.164 C 
ATOM      9  C   UNL     1      -7.545 -12.202  19.566  0.00  0.00    +0.165 C 
ATOM     10  C   UNL     1      -5.826 -12.747  18.085  0.00  0.00    +0.181 C 
ENDROOT
BRANCH   8   2
ATOM      2  O   UNL     1      -6.843  -9.944  20.142  0.00  0.00    -0.388 OA
ATOM     26  H   UNL     1      -6.577  -9.092  19.755  0.00  0.00    +0.210 HD
ENDBRANCH   8   2
BRANCH   7   4
ATOM      4  N   UNL     1      -4.764 -10.519  17.857  0.00  0.00    -0.305 NA
ATOM     25  H   UNL     1      -3.764 -10.686  17.968  0.00  0.00    +0.123 HD
BRANCH   4  12
ATOM     12  C   UNL     1      -5.128 -10.742  16.463  0.00  0.00    +0.118 C 
BRANCH  12  13
ATOM      6  N   UNL     1      -3.055 -10.581  13.299  0.00  0.00    -0.263 NA
ATOM     13  C   UNL     1      -3.934 -10.646  15.550  0.00  0.00    -0.015 A 
ATOM     15  C   UNL     1      -2.646 -10.537  16.064  0.00  0.00    +0.008 A 
ATOM     16  C   UNL     1      -4.083 -10.663  14.173  0.00  0.00    +0.115 A 
ATOM     18  C   UNL     1      -1.563 -10.451  15.197  0.00  0.00    +0.020 A 
ATOM     21  C   UNL     1      -1.818 -10.477  13.835  0.00  0.00    +0.111 A 
ENDBRANCH  12  13
ENDBRANCH   4  12
ENDBRANCH   7   4
BRANCH   9  11
ATOM     11  C   UNL     1      -9.058 -12.169  19.445  0.00  0.00    +0.138 C 
BRANCH  11   5
ATOM      3  O   UNL     1     -10.930 -10.085  20.076  0.00  0.00    -0.270 OA
ATOM      5  N   UNL     1      -9.489 -11.113  18.576  0.00  0.00    -0.309 N 
ATOM     14  C   UNL     1     -10.405 -10.141  18.967  0.00  0.00    +0.244 C 
ATOM     27  H   UNL     1      -9.147 -11.142  17.620  0.00  0.00    +0.149 HD
BRANCH  14  17
ATOM     17  C   UNL     1     -10.769  -9.131  17.941  0.00  0.00    +0.037 A 
ATOM     19  C   UNL     1     -12.092  -9.017  17.511  0.00  0.00    +0.013 A 
ATOM     20  C   UNL     1      -9.789  -8.294  17.408  0.00  0.00    +0.013 A 
ATOM     22  C   UNL     1     -12.434  -8.067  16.549  0.00  0.00    +0.001 A 
ATOM     23  C   UNL     1     -10.131  -7.343  16.446  0.00  0.00    +0.001 A 
ATOM     24  C   UNL     1     -11.453  -7.230  16.016  0.00  0.00    +0.000 A 
ENDBRANCH  14  17
ENDBRANCH  11   5
ENDBRANCH   9  11
TORSDOF 7
ENDMDL
MODEL 10
REMARK VINA RESULT:      -6.2     25.620     27.925
REMARK  Name = 75536627
REMARK  7 active torsions:
REMARK  status: ('A' for Active; 'I' for Inactive)
REMARK    1  A    between atoms: O_2  and  C_8
REMARK    2  A    between atoms: N_4  and  C_7
REMARK    3  A    between atoms: N_4  and  C_12
REMARK    4  A    between atoms: N_5  and  C_11
REMARK    5  A    between atoms: C_9  and  C_11
REMARK    6  A    between atoms: C_12  and  C_13
REMARK    7  A    between atoms: C_14  and  C_17
REMARK                            x       y       z     vdW  Elec       q    Type
REMARK                         _______ _______ _______ _____ _____    ______ ____
ROOT
ATOM      1  O   UNL     1      -1.089 -11.517  15.057  0.00  0.00    -0.371 OA
ATOM      7  C   UNL     1      -3.108 -11.017  16.206  0.00  0.00    +0.111 C 
ATOM      8  C   UNL     1      -3.442 -11.624  14.855  0.00  0.00    +0.164 C 
ATOM      9  C   UNL     1      -2.139 -12.338  14.523  0.00  0.00    +0.165 C 
ATOM     10  C   UNL     1      -1.665 -10.588  15.992  0.00  0.00    +0.181 C 
ENDROOT
BRANCH   8   2
ATOM      2  O   UNL     1      -4.535 -12.521  14.917  0.00  0.00    -0.388 OA
ATOM     26  H   UNL     1      -4.441 -13.169  14.198  0.00  0.00    +0.210 HD
ENDBRANCH   8   2
BRANCH   7   4
ATOM      4  N   UNL     1      -3.977  -9.915  16.583  0.00  0.00    -0.305 NA
ATOM     25  H   UNL     1      -3.738  -9.097  16.020  0.00  0.00    +0.123 HD
BRANCH   4  12
ATOM     12  C   UNL     1      -5.377 -10.250  16.359  0.00  0.00    +0.118 C 
BRANCH  12  13
ATOM      6  N   UNL     1      -7.631 -12.444  18.466  0.00  0.00    -0.263 NA
ATOM     13  C   UNL     1      -5.995 -10.910  17.563  0.00  0.00    -0.015 A 
ATOM     15  C   UNL     1      -5.539 -10.629  18.847  0.00  0.00    +0.008 A 
ATOM     16  C   UNL     1      -7.033 -11.817  17.428  0.00  0.00    +0.115 A 
ATOM     18  C   UNL     1      -6.129 -11.254  19.940  0.00  0.00    +0.020 A 
ATOM     21  C   UNL     1      -7.162 -12.145  19.698  0.00  0.00    +0.111 A 
ENDBRANCH  12  13
ENDBRANCH   4  12
ENDBRANCH   7   4
BRANCH   9  11
ATOM     11  C   UNL     1      -1.928 -12.539  13.033  0.00  0.00    +0.138 C 
BRANCH  11   5
ATOM      3  O   UNL     1      -1.494  -9.897  11.996  0.00  0.00    -0.270 OA
ATOM      5  N   UNL     1      -2.853 -11.758  12.265  0.00  0.00    -0.309 N 
ATOM     14  C   UNL     1      -2.557 -10.479  11.801  0.00  0.00    +0.244 C 
ATOM     27  H   UNL     1      -3.778 -12.153  12.128  0.00  0.00    +0.149 HD
BRANCH  14  17
ATOM     17  C   UNL     1      -3.632  -9.792  11.042  0.00  0.00    +0.037 A 
ATOM     19  C   UNL     1      -4.869  -9.553  11.643  0.00  0.00    +0.013 A 
ATOM     20  C   UNL     1      -3.406  -9.382   9.728  0.00  0.00    +0.013 A 
ATOM     22  C   UNL     1      -5.878  -8.905  10.930  0.00  0.00    +0.001 A 
ATOM     23  C   UNL     1      -4.414  -8.734   9.015  0.00  0.00    +0.001 A 
ATOM     24  C   UNL     1      -5.651  -8.495   9.616  0.00  0.00    +0.000 A 
ENDBRANCH  14  17
ENDBRANCH  11   5
ENDBRANCH   9  11
TORSDOF 7
ENDMDL
