REMARK  Name = 45784217
REMARK  4 active torsions:
REMARK  status: ('A' for Active; 'I' for Inactive)
REMARK    1  A    between atoms: N_1  and  C_10
REMARK    2  A    between atoms: C_5  and  C_9
REMARK    3  A    between atoms: C_10  and  C_13
REMARK    4  A    between atoms: C_17  and  C_20
REMARK                            x       y       z     vdW  Elec       q    Type
REMARK                         _______ _______ _______ _____ _____    ______ ____
ROOT
ATOM      1  N   UNL     1      -2.057  -0.281  -0.111  0.00  0.00    -0.296 NA
ATOM      5  C   UNL     1       0.146  -0.821   0.482  0.00  0.00    +0.070 C 
ATOM      6  C   UNL     1      -0.560  -0.157   1.676  0.00  0.00    +0.028 C 
ATOM      7  C   UNL     1      -0.746  -0.500  -0.725  0.00  0.00    +0.096 C 
ATOM      8  C   UNL     1      -1.787   0.523   1.081  0.00  0.00    +0.085 C 
ENDROOT
BRANCH   5   9
ATOM      2  N   UNL     1       2.602  -1.313   0.318  0.00  0.00    -0.342 N 
ATOM      3  N   UNL     1       2.023   0.817   0.057  0.00  0.00    -0.232 NA
ATOM      9  C   UNL     1       1.584  -0.401   0.281  0.00  0.00    +0.113 A 
ATOM     11  C   UNL     1       3.776  -0.638   0.103  0.00  0.00    +0.066 A 
ATOM     12  C   UNL     1       3.388   0.690  -0.057  0.00  0.00    +0.089 A 
ATOM     14  C   UNL     1       5.104  -1.061   0.037  0.00  0.00    +0.031 A 
ATOM     15  C   UNL     1       4.370   1.666  -0.297  0.00  0.00    +0.030 A 
ATOM     17  C   UNL     1       6.068  -0.076  -0.203  0.00  0.00    -0.048 A 
ATOM     18  C   UNL     1       5.709   1.264  -0.367  0.00  0.00    +0.005 A 
ATOM     20  C   UNL     1       7.507  -0.467  -0.285  0.00  0.00    +0.044 C 
ATOM     23  H   UNL     1       2.510  -2.308   0.475  0.00  0.00    +0.167 HD
ENDBRANCH   5   9
BRANCH   1  10
ATOM     10  C   UNL     1      -2.992   0.370  -1.017  0.00  0.00    +0.139 C 
BRANCH  10  13
ATOM      4  N   UNL     1      -5.002   1.274   0.015  0.00  0.00    -0.259 NA
ATOM     13  C   UNL     1      -4.419   0.201  -0.567  0.00  0.00    +0.055 A 
ATOM     16  C   UNL     1      -5.054  -1.014  -0.764  0.00  0.00    +0.024 A 
ATOM     19  C   UNL     1      -6.372  -1.137  -0.338  0.00  0.00    +0.003 A 
ATOM     21  C   UNL     1      -6.283   1.117   0.417  0.00  0.00    +0.111 A 
ATOM     22  C   UNL     1      -7.005  -0.056   0.265  0.00  0.00    +0.020 A 
ENDBRANCH  10  13
ENDBRANCH   1  10
TORSDOF 3
