REMARK  Name = 11884015
REMARK  9 active torsions:
REMARK  status: ('A' for Active; 'I' for Inactive)
REMARK    1  A    between atoms: O_3  and  C_13
REMARK    2  A    between atoms: O_3  and  C_17
REMARK    3  A    between atoms: O_6  and  C_30
REMARK    4  A    between atoms: O_6  and  C_31
REMARK    5  A    between atoms: N_8  and  C_12
REMARK    6  A    between atoms: N_9  and  C_21
REMARK    7  A    between atoms: C_16  and  C_18
REMARK    8  A    between atoms: C_27  and  C_30
REMARK    9  A    between atoms: C_31  and  C_32
REMARK                            x       y       z     vdW  Elec       q    Type
REMARK                         _______ _______ _______ _____ _____    ______ ____
ROOT
ATOM      1  O   UNL     1      -1.723   0.928   1.062  0.00  0.00    -0.368 OA
ATOM      2  O   UNL     1      -2.669   3.419  -0.456  0.00  0.00    -0.368 OA
ATOM     10  C   UNL     1      -3.013   2.025  -0.598  0.00  0.00    +0.173 C 
ATOM     11  C   UNL     1      -1.748   1.231  -0.343  0.00  0.00    +0.192 C 
ATOM     12  C   UNL     1      -3.937   1.603   0.521  0.00  0.00    +0.130 C 
ATOM     13  C   UNL     1      -0.665   2.213  -0.723  0.00  0.00    +0.235 C 
ATOM     14  C   UNL     1      -2.965   1.333   1.657  0.00  0.00    +0.185 C 
ATOM     15  C   UNL     1      -1.251   3.528  -0.262  0.00  0.00    +0.207 C 
ENDROOT
BRANCH  12   8
ATOM      4  O   UNL     1      -6.478   0.787   1.581  0.00  0.00    -0.270 OA
ATOM      8  N   UNL     1      -4.676   0.415   0.170  0.00  0.00    -0.304 N 
ATOM     16  C   UNL     1      -5.903   0.103   0.739  0.00  0.00    +0.244 C 
ATOM     33  H   UNL     1      -4.214  -0.252  -0.440  0.00  0.00    +0.149 HD
BRANCH  16  18
ATOM     18  C   UNL     1      -6.524  -1.170   0.290  0.00  0.00    +0.037 A 
ATOM     19  C   UNL     1      -7.399  -1.854   1.133  0.00  0.00    +0.013 A 
ATOM     20  C   UNL     1      -6.232  -1.680  -0.975  0.00  0.00    +0.013 A 
ATOM     22  C   UNL     1      -7.982  -3.049   0.711  0.00  0.00    +0.001 A 
ATOM     23  C   UNL     1      -6.815  -2.875  -1.397  0.00  0.00    +0.001 A 
ATOM     24  C   UNL     1      -7.690  -3.560  -0.553  0.00  0.00    +0.000 A 
ENDBRANCH  16  18
ENDBRANCH  12   8
BRANCH  13   3
ATOM      3  O   UNL     1       0.578   1.943  -0.114  0.00  0.00    -0.442 OA
BRANCH   3  17
ATOM      5  O   UNL     1       1.211   0.721  -1.940  0.00  0.00    -0.226 OA
ATOM      9  N   UNL     1       2.626   1.000  -0.097  0.00  0.00    -0.251 N 
ATOM     17  C   UNL     1       1.467   1.167  -0.829  0.00  0.00    +0.405 C 
ATOM     34  H   UNL     1       2.652   1.451   0.815  0.00  0.00    +0.158 HD
BRANCH   9  21
ATOM     21  C   UNL     1       3.787   0.277  -0.457  0.00  0.00    +0.037 A 
ATOM     25  C   UNL     1       4.871   0.217   0.418  0.00  0.00    +0.038 A 
ATOM     26  C   UNL     1       3.846  -0.376  -1.688  0.00  0.00    +0.023 A 
ATOM     27  C   UNL     1       6.015  -0.497   0.063  0.00  0.00    +0.061 A 
ATOM     28  C   UNL     1       4.991  -1.091  -2.043  0.00  0.00    +0.003 A 
ATOM     29  C   UNL     1       6.075  -1.151  -1.168  0.00  0.00    +0.015 A 
BRANCH  27  30
ATOM      7  O   UNL     1       7.183  -0.013   2.084  0.00  0.00    -0.245 OA
ATOM     30  C   UNL     1       7.146  -0.560   0.974  0.00  0.00    +0.339 C 
BRANCH  30   6
ATOM      6  O   UNL     1       8.171  -1.303   0.455  0.00  0.00    -0.461 OA
BRANCH   6  31
ATOM     31  C   UNL     1       9.345  -1.441   1.262  0.00  0.00    +0.229 C 
ATOM     32  C   UNL     1      10.356  -2.290   0.522  0.00  0.00    +0.048 C 
ENDBRANCH   6  31
ENDBRANCH  30   6
ENDBRANCH  27  30
ENDBRANCH   9  21
ENDBRANCH   3  17
ENDBRANCH  13   3
TORSDOF 8
