MODEL 1
REMARK VINA RESULT:      -7.7      0.000      0.000
REMARK  Name = 11912995
REMARK  5 active torsions:
REMARK  status: ('A' for Active; 'I' for Inactive)
REMARK    1  A    between atoms: N_4  and  C_10
REMARK    2  A    between atoms: N_5  and  C_11
REMARK    3  A    between atoms: C_12  and  C_17
REMARK    4  A    between atoms: C_19  and  C_22
REMARK    5  A    between atoms: C_27  and  C_28
REMARK                            x       y       z     vdW  Elec       q    Type
REMARK                         _______ _______ _______ _____ _____    ______ ____
ROOT
ATOM      5  N   UNL     1     -15.805   3.539  23.787  0.00  0.00    -0.306 N 
ATOM      6  N   UNL     1     -15.801   3.301  26.121  0.00  0.00    -0.214 NA
ATOM      7  N   UNL     1     -16.685   1.566  24.702  0.00  0.00    -0.223 NA
ATOM     18  C   UNL     1     -16.106   2.779  24.904  0.00  0.00    +0.216 A 
ATOM     19  C   UNL     1     -16.108   2.533  27.188  0.00  0.00    +0.076 A 
ATOM     20  C   UNL     1     -16.965   0.851  25.812  0.00  0.00    +0.116 A 
ATOM     21  C   UNL     1     -16.697   1.288  27.092  0.00  0.00    +0.048 A 
ATOM     35  H   UNL     1     -16.084   3.163  22.888  0.00  0.00    +0.149 HD
ENDROOT
BRANCH   5  11
ATOM      1  O   UNL     1     -15.534   7.106  23.056  0.00  0.00    -0.370 OA
ATOM      2  O   UNL     1     -13.564   4.874  22.121  0.00  0.00    -0.370 OA
ATOM      8  C   UNL     1     -14.778   5.411  21.569  0.00  0.00    +0.171 C 
ATOM      9  C   UNL     1     -15.705   5.717  22.729  0.00  0.00    +0.171 C 
ATOM     10  C   UNL     1     -14.518   6.760  20.940  0.00  0.00    +0.130 C 
ATOM     11  C   UNL     1     -15.190   4.848  23.852  0.00  0.00    +0.130 C 
ATOM     13  C   UNL     1     -14.610   7.697  22.131  0.00  0.00    +0.185 C 
ATOM     14  C   UNL     1     -13.708   4.747  23.543  0.00  0.00    +0.185 C 
BRANCH  10   4
ATOM      3  O   UNL     1     -14.110   7.996  18.338  0.00  0.00    -0.276 OA
ATOM      4  N   UNL     1     -15.519   7.076  19.949  0.00  0.00    -0.307 N 
ATOM     17  C   UNL     1     -15.222   7.668  18.733  0.00  0.00    +0.216 C 
ATOM     34  H   UNL     1     -16.481   6.821  20.147  0.00  0.00    +0.149 HD
BRANCH  17  12
ATOM     12  C   UNL     1     -16.412   7.901  17.863  0.00  0.00    +0.075 C 
ATOM     15  C   UNL     1     -17.135   6.717  17.318  0.00  0.00    +0.013 C 
ATOM     16  C   UNL     1     -16.303   7.577  16.412  0.00  0.00    +0.013 C 
ENDBRANCH  17  12
ENDBRANCH  10   4
ENDBRANCH   5  11
BRANCH  19  22
ATOM     22  C   UNL     1     -15.777   3.105  28.471  0.00  0.00    +0.001 A 
ATOM     23  C   UNL     1     -16.293   4.350  28.838  0.00  0.00    +0.010 A 
ATOM     24  C   UNL     1     -14.938   2.416  29.350  0.00  0.00    +0.010 A 
ATOM     25  C   UNL     1     -15.971   4.903  30.077  0.00  0.00    +0.009 A 
ATOM     26  C   UNL     1     -14.616   2.969  30.589  0.00  0.00    +0.009 A 
ATOM     27  C   UNL     1     -15.133   4.213  30.952  0.00  0.00    -0.018 A 
BRANCH  27  28
ATOM     28  C   UNL     1     -14.800   4.787  32.239  0.00  0.00    -0.018 A 
ATOM     29  C   UNL     1     -14.656   6.168  32.368  0.00  0.00    +0.008 A 
ATOM     30  C   UNL     1     -14.624   3.960  33.348  0.00  0.00    +0.008 A 
ATOM     31  C   UNL     1     -14.335   6.723  33.607  0.00  0.00    +0.001 A 
ATOM     32  C   UNL     1     -14.304   4.514  34.587  0.00  0.00    +0.001 A 
ATOM     33  C   UNL     1     -14.159   5.896  34.717  0.00  0.00    +0.000 A 
ENDBRANCH  27  28
ENDBRANCH  19  22
TORSDOF 5
ENDMDL
MODEL 2
REMARK VINA RESULT:      -7.7      1.499      2.358
REMARK  Name = 11912995
REMARK  5 active torsions:
REMARK  status: ('A' for Active; 'I' for Inactive)
REMARK    1  A    between atoms: N_4  and  C_10
REMARK    2  A    between atoms: N_5  and  C_11
REMARK    3  A    between atoms: C_12  and  C_17
REMARK    4  A    between atoms: C_19  and  C_22
REMARK    5  A    between atoms: C_27  and  C_28
REMARK                            x       y       z     vdW  Elec       q    Type
REMARK                         _______ _______ _______ _____ _____    ______ ____
ROOT
ATOM      5  N   UNL     1     -16.218   4.061  22.620  0.00  0.00    -0.306 N 
ATOM      6  N   UNL     1     -16.350   3.090  24.752  0.00  0.00    -0.214 NA
ATOM      7  N   UNL     1     -17.323   2.002  22.833  0.00  0.00    -0.223 NA
ATOM     18  C   UNL     1     -16.643   3.019  23.426  0.00  0.00    +0.216 A 
ATOM     19  C   UNL     1     -16.779   2.057  25.507  0.00  0.00    +0.076 A 
ATOM     20  C   UNL     1     -17.722   1.003  23.648  0.00  0.00    +0.116 A 
ATOM     21  C   UNL     1     -17.477   0.977  25.005  0.00  0.00    +0.048 A 
ATOM     35  H   UNL     1     -16.487   4.024  21.643  0.00  0.00    +0.149 HD
ENDROOT
BRANCH   5  11
ATOM      1  O   UNL     1     -15.215   7.572  22.673  0.00  0.00    -0.370 OA
ATOM      2  O   UNL     1     -13.376   5.134  22.031  0.00  0.00    -0.370 OA
ATOM      8  C   UNL     1     -14.235   5.958  21.226  0.00  0.00    +0.171 C 
ATOM      9  C   UNL     1     -15.454   6.292  22.062  0.00  0.00    +0.171 C 
ATOM     10  C   UNL     1     -13.586   7.299  20.968  0.00  0.00    +0.130 C 
ATOM     11  C   UNL     1     -15.488   5.209  23.114  0.00  0.00    +0.130 C 
ATOM     13  C   UNL     1     -13.954   8.082  22.216  0.00  0.00    +0.185 C 
ATOM     14  C   UNL     1     -14.020   4.862  23.284  0.00  0.00    +0.185 C 
BRANCH  10   4
ATOM      3  O   UNL     1     -12.227   7.782  18.443  0.00  0.00    -0.276 OA
ATOM      4  N   UNL     1     -14.126   7.921  19.783  0.00  0.00    -0.307 N 
ATOM     17  C   UNL     1     -13.394   8.107  18.624  0.00  0.00    +0.216 C 
ATOM     34  H   UNL     1     -15.101   8.207  19.798  0.00  0.00    +0.149 HD
BRANCH  17  12
ATOM     12  C   UNL     1     -14.154   8.770  17.523  0.00  0.00    +0.075 C 
ATOM     15  C   UNL     1     -15.398   8.116  17.027  0.00  0.00    +0.013 C 
ATOM     16  C   UNL     1     -14.161   8.125  16.179  0.00  0.00    +0.013 C 
ENDBRANCH  17  12
ENDBRANCH  10   4
ENDBRANCH   5  11
BRANCH  19  22
ATOM     22  C   UNL     1     -16.459   2.151  26.911  0.00  0.00    +0.001 A 
ATOM     23  C   UNL     1     -16.526   1.016  27.724  0.00  0.00    +0.010 A 
ATOM     24  C   UNL     1     -16.080   3.376  27.463  0.00  0.00    +0.010 A 
ATOM     25  C   UNL     1     -16.218   1.108  29.081  0.00  0.00    +0.009 A 
ATOM     26  C   UNL     1     -15.771   3.468  28.820  0.00  0.00    +0.009 A 
ATOM     27  C   UNL     1     -15.840   2.334  29.629  0.00  0.00    -0.018 A 
BRANCH  27  28
ATOM     28  C   UNL     1     -15.519   2.428  31.037  0.00  0.00    -0.018 A 
ATOM     29  C   UNL     1     -14.956   1.337  31.698  0.00  0.00    +0.008 A 
ATOM     30  C   UNL     1     -15.772   3.610  31.733  0.00  0.00    +0.008 A 
ATOM     31  C   UNL     1     -14.645   1.427  33.055  0.00  0.00    +0.001 A 
ATOM     32  C   UNL     1     -15.462   3.701  33.090  0.00  0.00    +0.001 A 
ATOM     33  C   UNL     1     -14.899   2.608  33.751  0.00  0.00    +0.000 A 
ENDBRANCH  27  28
ENDBRANCH  19  22
TORSDOF 5
ENDMDL
MODEL 3
REMARK VINA RESULT:      -7.7     20.219     23.986
REMARK  Name = 11912995
REMARK  5 active torsions:
REMARK  status: ('A' for Active; 'I' for Inactive)
REMARK    1  A    between atoms: N_4  and  C_10
REMARK    2  A    between atoms: N_5  and  C_11
REMARK    3  A    between atoms: C_12  and  C_17
REMARK    4  A    between atoms: C_19  and  C_22
REMARK    5  A    between atoms: C_27  and  C_28
REMARK                            x       y       z     vdW  Elec       q    Type
REMARK                         _______ _______ _______ _____ _____    ______ ____
ROOT
ATOM      5  N   UNL     1      -3.818 -11.696  16.936  0.00  0.00    -0.306 N 
ATOM      6  N   UNL     1      -3.463 -11.213  14.668  0.00  0.00    -0.214 NA
ATOM      7  N   UNL     1      -1.847 -10.572  16.338  0.00  0.00    -0.223 NA
ATOM     18  C   UNL     1      -3.019 -11.144  15.951  0.00  0.00    +0.216 A 
ATOM     19  C   UNL     1      -2.657 -10.664  13.734  0.00  0.00    +0.076 A 
ATOM     20  C   UNL     1      -1.093 -10.044  15.353  0.00  0.00    +0.116 A 
ATOM     21  C   UNL     1      -1.450 -10.060  14.021  0.00  0.00    +0.048 A 
ATOM     35  H   UNL     1      -3.503 -11.593  17.894  0.00  0.00    +0.149 HD
ENDROOT
BRANCH   5  11
ATOM      1  O   UNL     1      -7.277 -11.821  15.772  0.00  0.00    -0.370 OA
ATOM      2  O   UNL     1      -6.301 -12.216  18.710  0.00  0.00    -0.370 OA
ATOM      8  C   UNL     1      -6.658 -11.057  17.938  0.00  0.00    +0.171 C 
ATOM      9  C   UNL     1      -6.171 -11.290  16.522  0.00  0.00    +0.171 C 
ATOM     10  C   UNL     1      -8.160 -10.960  17.800  0.00  0.00    +0.130 C 
ATOM     11  C   UNL     1      -5.090 -12.334  16.670  0.00  0.00    +0.130 C 
ATOM     13  C   UNL     1      -8.436 -11.870  16.617  0.00  0.00    +0.185 C 
ATOM     14  C   UNL     1      -5.548 -13.118  17.886  0.00  0.00    +0.185 C 
BRANCH  10   4
ATOM      3  O   UNL     1     -10.840  -9.847  17.997  0.00  0.00    -0.276 OA
ATOM      4  N   UNL     1      -8.572  -9.605  17.525  0.00  0.00    -0.307 N 
ATOM     17  C   UNL     1      -9.881  -9.170  17.648  0.00  0.00    +0.216 C 
ATOM     34  H   UNL     1      -7.857  -8.936  17.256  0.00  0.00    +0.149 HD
BRANCH  17  12
ATOM     12  C   UNL     1     -10.078  -7.729  17.313  0.00  0.00    +0.075 C 
ATOM     15  C   UNL     1     -11.344  -7.325  16.637  0.00  0.00    +0.013 C 
ATOM     16  C   UNL     1     -10.049  -7.324  15.879  0.00  0.00    +0.013 C 
ENDBRANCH  17  12
ENDBRANCH  10   4
ENDBRANCH   5  11
BRANCH  19  22
ATOM     22  C   UNL     1      -3.147 -10.747  12.379  0.00  0.00    +0.001 A 
ATOM     23  C   UNL     1      -3.929 -11.834  11.980  0.00  0.00    +0.010 A 
ATOM     24  C   UNL     1      -2.840  -9.741  11.460  0.00  0.00    +0.010 A 
ATOM     25  C   UNL     1      -4.400 -11.915  10.670  0.00  0.00    +0.009 A 
ATOM     26  C   UNL     1      -3.312  -9.821  10.150  0.00  0.00    +0.009 A 
ATOM     27  C   UNL     1      -4.092 -10.908   9.755  0.00  0.00    -0.018 A 
BRANCH  27  28
ATOM     28  C   UNL     1      -4.582 -10.992   8.396  0.00  0.00    -0.018 A 
ATOM     29  C   UNL     1      -4.370 -12.151   7.649  0.00  0.00    +0.008 A 
ATOM     30  C   UNL     1      -5.266  -9.914   7.832  0.00  0.00    +0.008 A 
ATOM     31  C   UNL     1      -4.842 -12.233   6.339  0.00  0.00    +0.001 A 
ATOM     32  C   UNL     1      -5.738  -9.996   6.523  0.00  0.00    +0.001 A 
ATOM     33  C   UNL     1      -5.526 -11.156   5.776  0.00  0.00    +0.000 A 
ENDBRANCH  27  28
ENDBRANCH  19  22
TORSDOF 5
ENDMDL
MODEL 4
REMARK VINA RESULT:      -7.4     20.481     22.590
REMARK  Name = 11912995
REMARK  5 active torsions:
REMARK  status: ('A' for Active; 'I' for Inactive)
REMARK    1  A    between atoms: N_4  and  C_10
REMARK    2  A    between atoms: N_5  and  C_11
REMARK    3  A    between atoms: C_12  and  C_17
REMARK    4  A    between atoms: C_19  and  C_22
REMARK    5  A    between atoms: C_27  and  C_28
REMARK                            x       y       z     vdW  Elec       q    Type
REMARK                         _______ _______ _______ _____ _____    ______ ____
ROOT
ATOM      5  N   UNL     1      -3.629 -10.314  12.076  0.00  0.00    -0.306 N 
ATOM      6  N   UNL     1      -4.629 -10.489  14.192  0.00  0.00    -0.214 NA
ATOM      7  N   UNL     1      -2.238 -10.651  13.934  0.00  0.00    -0.223 NA
ATOM     18  C   UNL     1      -3.494 -10.490  13.442  0.00  0.00    +0.216 A 
ATOM     19  C   UNL     1      -4.459 -10.663  15.519  0.00  0.00    +0.076 A 
ATOM     20  C   UNL     1      -2.142 -10.820  15.269  0.00  0.00    +0.116 A 
ATOM     21  C   UNL     1      -3.228 -10.835  16.120  0.00  0.00    +0.048 A 
ATOM     35  H   UNL     1      -2.783 -10.369  11.521  0.00  0.00    +0.149 HD
ENDROOT
BRANCH   5  11
ATOM      1  O   UNL     1      -6.285 -11.169   9.719  0.00  0.00    -0.370 OA
ATOM      2  O   UNL     1      -4.488  -8.619   9.633  0.00  0.00    -0.370 OA
ATOM      8  C   UNL     1      -4.339  -9.947   9.103  0.00  0.00    +0.171 C 
ATOM      9  C   UNL     1      -4.928 -10.907  10.117  0.00  0.00    +0.171 C 
ATOM     10  C   UNL     1      -5.209 -10.125   7.879  0.00  0.00    +0.130 C 
ATOM     11  C   UNL     1      -4.904 -10.133  11.415  0.00  0.00    +0.130 C 
ATOM     13  C   UNL     1      -6.553 -10.486   8.486  0.00  0.00    +0.185 C 
ATOM     14  C   UNL     1      -5.054  -8.696  10.949  0.00  0.00    +0.185 C 
BRANCH  10   4
ATOM      3  O   UNL     1      -5.914 -10.669   5.110  0.00  0.00    -0.276 OA
ATOM      4  N   UNL     1      -4.714 -11.188   7.038  0.00  0.00    -0.307 N 
ATOM     17  C   UNL     1      -5.113 -11.364   5.724  0.00  0.00    +0.216 C 
ATOM     34  H   UNL     1      -4.016 -11.816   7.425  0.00  0.00    +0.149 HD
BRANCH  17  12
ATOM     12  C   UNL     1      -4.472 -12.526   5.042  0.00  0.00    +0.075 C 
ATOM     15  C   UNL     1      -3.082 -12.367   4.526  0.00  0.00    +0.013 C 
ATOM     16  C   UNL     1      -4.238 -12.445   3.572  0.00  0.00    +0.013 C 
ENDBRANCH  17  12
ENDBRANCH  10   4
ENDBRANCH   5  11
BRANCH  19  22
ATOM     22  C   UNL     1      -5.675 -10.659  16.297  0.00  0.00    +0.001 A 
ATOM     23  C   UNL     1      -6.062 -11.803  16.999  0.00  0.00    +0.010 A 
ATOM     24  C   UNL     1      -6.469  -9.511  16.351  0.00  0.00    +0.010 A 
ATOM     25  C   UNL     1      -7.238 -11.799  17.749  0.00  0.00    +0.009 A 
ATOM     26  C   UNL     1      -7.645  -9.507  17.101  0.00  0.00    +0.009 A 
ATOM     27  C   UNL     1      -8.029 -10.651  17.800  0.00  0.00    -0.018 A 
BRANCH  27  28
ATOM     28  C   UNL     1      -9.249 -10.648  18.580  0.00  0.00    -0.018 A 
ATOM     29  C   UNL     1     -10.226  -9.682  18.338  0.00  0.00    +0.008 A 
ATOM     30  C   UNL     1      -9.447 -11.609  19.571  0.00  0.00    +0.008 A 
ATOM     31  C   UNL     1     -11.402  -9.677  19.088  0.00  0.00    +0.001 A 
ATOM     32  C   UNL     1     -10.623 -11.605  20.320  0.00  0.00    +0.001 A 
ATOM     33  C   UNL     1     -11.601 -10.639  20.079  0.00  0.00    +0.000 A 
ENDBRANCH  27  28
ENDBRANCH  19  22
TORSDOF 5
ENDMDL
MODEL 5
REMARK VINA RESULT:      -7.4     35.772     37.943
REMARK  Name = 11912995
REMARK  5 active torsions:
REMARK  status: ('A' for Active; 'I' for Inactive)
REMARK    1  A    between atoms: N_4  and  C_10
REMARK    2  A    between atoms: N_5  and  C_11
REMARK    3  A    between atoms: C_12  and  C_17
REMARK    4  A    between atoms: C_19  and  C_22
REMARK    5  A    between atoms: C_27  and  C_28
REMARK                            x       y       z     vdW  Elec       q    Type
REMARK                         _______ _______ _______ _____ _____    ______ ____
ROOT
ATOM      5  N   UNL     1       7.798   6.479  -4.203  0.00  0.00    -0.306 N 
ATOM      6  N   UNL     1       5.603   5.769  -4.632  0.00  0.00    -0.214 NA
ATOM      7  N   UNL     1       6.052   8.007  -3.858  0.00  0.00    -0.223 NA
ATOM     18  C   UNL     1       6.443   6.760  -4.232  0.00  0.00    +0.216 A 
ATOM     19  C   UNL     1       4.289   6.079  -4.648  0.00  0.00    +0.076 A 
ATOM     20  C   UNL     1       4.725   8.247  -3.897  0.00  0.00    +0.116 A 
ATOM     21  C   UNL     1       3.788   7.313  -4.287  0.00  0.00    +0.048 A 
ATOM     35  H   UNL     1       8.410   7.207  -3.854  0.00  0.00    +0.149 HD
ENDROOT
BRANCH   5  11
ATOM      1  O   UNL     1       8.953   3.071  -3.579  0.00  0.00    -0.370 OA
ATOM      2  O   UNL     1      10.713   5.480  -4.494  0.00  0.00    -0.370 OA
ATOM      8  C   UNL     1      10.303   4.993  -3.205  0.00  0.00    +0.171 C 
ATOM      9  C   UNL     1       8.881   4.488  -3.344  0.00  0.00    +0.171 C 
ATOM     10  C   UNL     1      11.097   3.762  -2.831  0.00  0.00    +0.130 C 
ATOM     11  C   UNL     1       8.356   5.195  -4.572  0.00  0.00    +0.130 C 
ATOM     13  C   UNL     1      10.325   2.656  -3.528  0.00  0.00    +0.185 C 
ATOM     14  C   UNL     1       9.609   5.388  -5.407  0.00  0.00    +0.185 C 
BRANCH  10   4
ATOM      3  O   UNL     1      12.998   4.848  -0.916  0.00  0.00    -0.276 OA
ATOM      4  N   UNL     1      11.114   3.567  -1.402  0.00  0.00    -0.307 N 
ATOM     17  C   UNL     1      12.067   4.130  -0.571  0.00  0.00    +0.216 C 
ATOM     34  H   UNL     1      10.370   3.013  -0.988  0.00  0.00    +0.149 HD
BRANCH  17  12
ATOM     12  C   UNL     1      11.891   3.796   0.873  0.00  0.00    +0.075 C 
ATOM     15  C   UNL     1      12.681   4.561   1.879  0.00  0.00    +0.013 C 
ATOM     16  C   UNL     1      13.016   3.127   1.588  0.00  0.00    +0.013 C 
ENDBRANCH  17  12
ENDBRANCH  10   4
ENDBRANCH   5  11
BRANCH  19  22
ATOM     22  C   UNL     1       3.414   5.014  -5.074  0.00  0.00    +0.001 A 
ATOM     23  C   UNL     1       2.267   4.709  -4.337  0.00  0.00    +0.010 A 
ATOM     24  C   UNL     1       3.711   4.282  -6.227  0.00  0.00    +0.010 A 
ATOM     25  C   UNL     1       1.423   3.679  -4.749  0.00  0.00    +0.009 A 
ATOM     26  C   UNL     1       2.866   3.252  -6.639  0.00  0.00    +0.009 A 
ATOM     27  C   UNL     1       1.722   2.950  -5.900  0.00  0.00    -0.018 A 
BRANCH  27  28
ATOM     28  C   UNL     1       0.845   1.881  -6.328  0.00  0.00    -0.018 A 
ATOM     29  C   UNL     1       0.364   1.858  -7.637  0.00  0.00    +0.008 A 
ATOM     30  C   UNL     1       0.483   0.874  -5.433  0.00  0.00    +0.008 A 
ATOM     31  C   UNL     1      -0.482   0.828  -8.051  0.00  0.00    +0.001 A 
ATOM     32  C   UNL     1      -0.361  -0.155  -5.847  0.00  0.00    +0.001 A 
ATOM     33  C   UNL     1      -0.844  -0.179  -7.156  0.00  0.00    +0.000 A 
ENDBRANCH  27  28
ENDBRANCH  19  22
TORSDOF 5
ENDMDL
MODEL 6
REMARK VINA RESULT:      -7.2     27.897     30.551
REMARK  Name = 11912995
REMARK  5 active torsions:
REMARK  status: ('A' for Active; 'I' for Inactive)
REMARK    1  A    between atoms: N_4  and  C_10
REMARK    2  A    between atoms: N_5  and  C_11
REMARK    3  A    between atoms: C_12  and  C_17
REMARK    4  A    between atoms: C_19  and  C_22
REMARK    5  A    between atoms: C_27  and  C_28
REMARK                            x       y       z     vdW  Elec       q    Type
REMARK                         _______ _______ _______ _____ _____    ______ ____
ROOT
ATOM      5  N   UNL     1      13.139  13.052  12.138  0.00  0.00    -0.306 N 
ATOM      6  N   UNL     1      13.528  11.736  14.041  0.00  0.00    -0.214 NA
ATOM      7  N   UNL     1      15.357  12.508  12.674  0.00  0.00    -0.223 NA
ATOM     18  C   UNL     1      14.035  12.413  12.976  0.00  0.00    +0.216 A 
ATOM     19  C   UNL     1      14.431  11.125  14.837  0.00  0.00    +0.076 A 
ATOM     20  C   UNL     1      16.203  11.872  13.512  0.00  0.00    +0.116 A 
ATOM     21  C   UNL     1      15.794  11.159  14.619  0.00  0.00    +0.048 A 
ATOM     35  H   UNL     1      13.523  13.509  11.319  0.00  0.00    +0.149 HD
ENDROOT
BRANCH   5  11
ATOM      1  O   UNL     1       9.807  11.559  12.063  0.00  0.00    -0.370 OA
ATOM      2  O   UNL     1      10.778  13.996  10.373  0.00  0.00    -0.370 OA
ATOM      8  C   UNL     1      10.823  12.574  10.167  0.00  0.00    +0.171 C 
ATOM      9  C   UNL     1      11.084  11.930  11.514  0.00  0.00    +0.171 C 
ATOM     10  C   UNL     1       9.460  12.057   9.768  0.00  0.00    +0.130 C 
ATOM     11  C   UNL     1      11.705  13.034  12.337  0.00  0.00    +0.130 C 
ATOM     13  C   UNL     1       8.779  11.871  11.112  0.00  0.00    +0.185 C 
ATOM     14  C   UNL     1      11.078  14.284  11.746  0.00  0.00    +0.185 C 
BRANCH  10   4
ATOM      3  O   UNL     1       9.778  11.666   6.904  0.00  0.00    -0.276 OA
ATOM      4  N   UNL     1       9.564  10.805   9.057  0.00  0.00    -0.307 N 
ATOM     17  C   UNL     1       9.713  10.723   7.684  0.00  0.00    +0.216 C 
ATOM     34  H   UNL     1       9.556   9.948   9.601  0.00  0.00    +0.149 HD
BRANCH  17  12
ATOM     12  C   UNL     1       9.801   9.328   7.162  0.00  0.00    +0.075 C 
ATOM     15  C   UNL     1       8.603   8.743   6.496  0.00  0.00    +0.013 C 
ATOM     16  C   UNL     1       9.022   8.262   7.854  0.00  0.00    +0.013 C 
ENDBRANCH  17  12
ENDBRANCH  10   4
ENDBRANCH   5  11
BRANCH  19  22
ATOM     22  C   UNL     1      13.873  10.412  15.961  0.00  0.00    +0.001 A 
ATOM     23  C   UNL     1      12.713   9.649  15.802  0.00  0.00    +0.010 A 
ATOM     24  C   UNL     1      14.490  10.482  17.212  0.00  0.00    +0.010 A 
ATOM     25  C   UNL     1      12.174   8.962  16.889  0.00  0.00    +0.009 A 
ATOM     26  C   UNL     1      13.951   9.794  18.299  0.00  0.00    +0.009 A 
ATOM     27  C   UNL     1      12.792   9.034  18.137  0.00  0.00    -0.018 A 
BRANCH  27  28
ATOM     28  C   UNL     1      12.232   8.320  19.264  0.00  0.00    -0.018 A 
ATOM     29  C   UNL     1      11.208   8.897  20.015  0.00  0.00    +0.008 A 
ATOM     30  C   UNL     1      12.715   7.055  19.599  0.00  0.00    +0.008 A 
ATOM     31  C   UNL     1      10.667   8.210  21.102  0.00  0.00    +0.001 A 
ATOM     32  C   UNL     1      12.174   6.367  20.685  0.00  0.00    +0.001 A 
ATOM     33  C   UNL     1      11.150   6.945  21.437  0.00  0.00    +0.000 A 
ENDBRANCH  27  28
ENDBRANCH  19  22
TORSDOF 5
ENDMDL
MODEL 7
REMARK VINA RESULT:      -7.2     37.322     39.163
REMARK  Name = 11912995
REMARK  5 active torsions:
REMARK  status: ('A' for Active; 'I' for Inactive)
REMARK    1  A    between atoms: N_4  and  C_10
REMARK    2  A    between atoms: N_5  and  C_11
REMARK    3  A    between atoms: C_12  and  C_17
REMARK    4  A    between atoms: C_19  and  C_22
REMARK    5  A    between atoms: C_27  and  C_28
REMARK                            x       y       z     vdW  Elec       q    Type
REMARK                         _______ _______ _______ _____ _____    ______ ____
ROOT
ATOM      5  N   UNL     1      23.171 -10.218  21.586  0.00  0.00    -0.306 N 
ATOM      6  N   UNL     1      21.917  -8.506  22.588  0.00  0.00    -0.214 NA
ATOM      7  N   UNL     1      23.371  -9.908  23.903  0.00  0.00    -0.223 NA
ATOM     18  C   UNL     1      22.809  -9.523  22.727  0.00  0.00    +0.216 A 
ATOM     19  C   UNL     1      21.586  -7.851  23.721  0.00  0.00    +0.076 A 
ATOM     20  C   UNL     1      22.995  -9.209  24.995  0.00  0.00    +0.116 A 
ATOM     21  C   UNL     1      22.099  -8.162  24.964  0.00  0.00    +0.048 A 
ATOM     35  H   UNL     1      23.795 -11.007  21.709  0.00  0.00    +0.149 HD
ENDROOT
BRANCH   5  11
ATOM      1  O   UNL     1      20.701 -10.337  18.899  0.00  0.00    -0.370 OA
ATOM      2  O   UNL     1      23.563 -11.577  18.834  0.00  0.00    -0.370 OA
ATOM      8  C   UNL     1      22.289 -12.065  19.287  0.00  0.00    +0.171 C 
ATOM      9  C   UNL     1      21.555 -10.896  19.912  0.00  0.00    +0.171 C 
ATOM     10  C   UNL     1      21.426 -12.454  18.108  0.00  0.00    +0.130 C 
ATOM     11  C   UNL     1      22.651  -9.919  20.269  0.00  0.00    +0.130 C 
ATOM     13  C   UNL     1      20.809 -11.126  17.706  0.00  0.00    +0.185 C 
ATOM     14  C   UNL     1      23.705 -10.201  19.213  0.00  0.00    +0.185 C 
BRANCH  10   4
ATOM      3  O   UNL     1      21.659 -15.351  18.212  0.00  0.00    -0.276 OA
ATOM      4  N   UNL     1      20.412 -13.405  18.496  0.00  0.00    -0.307 N 
ATOM     17  C   UNL     1      20.621 -14.773  18.512  0.00  0.00    +0.216 C 
ATOM     34  H   UNL     1      19.512 -13.044  18.798  0.00  0.00    +0.149 HD
BRANCH  17  12
ATOM     12  C   UNL     1      19.435 -15.566  18.947  0.00  0.00    +0.075 C 
ATOM     15  C   UNL     1      18.179 -15.459  18.151  0.00  0.00    +0.013 C 
ATOM     16  C   UNL     1      18.264 -14.838  19.514  0.00  0.00    +0.013 C 
ENDBRANCH  17  12
ENDBRANCH  10   4
ENDBRANCH   5  11
BRANCH  19  22
ATOM     22  C   UNL     1      20.638  -6.776  23.552  0.00  0.00    +0.001 A 
ATOM     23  C   UNL     1      19.514  -6.953  22.742  0.00  0.00    +0.010 A 
ATOM     24  C   UNL     1      20.842  -5.554  24.197  0.00  0.00    +0.010 A 
ATOM     25  C   UNL     1      18.599  -5.913  22.578  0.00  0.00    +0.009 A 
ATOM     26  C   UNL     1      19.928  -4.514  24.033  0.00  0.00    +0.009 A 
ATOM     27  C   UNL     1      18.806  -4.694  23.223  0.00  0.00    -0.018 A 
BRANCH  27  28
ATOM     28  C   UNL     1      17.856  -3.615  23.053  0.00  0.00    -0.018 A 
ATOM     29  C   UNL     1      16.487  -3.884  23.069  0.00  0.00    +0.008 A 
ATOM     30  C   UNL     1      18.308  -2.308  22.876  0.00  0.00    +0.008 A 
ATOM     31  C   UNL     1      15.570  -2.845  22.905  0.00  0.00    +0.001 A 
ATOM     32  C   UNL     1      17.391  -1.269  22.713  0.00  0.00    +0.001 A 
ATOM     33  C   UNL     1      16.022  -1.538  22.728  0.00  0.00    +0.000 A 
ENDBRANCH  27  28
ENDBRANCH  19  22
TORSDOF 5
ENDMDL
MODEL 8
REMARK VINA RESULT:      -7.1     18.019     22.174
REMARK  Name = 11912995
REMARK  5 active torsions:
REMARK  status: ('A' for Active; 'I' for Inactive)
REMARK    1  A    between atoms: N_4  and  C_10
REMARK    2  A    between atoms: N_5  and  C_11
REMARK    3  A    between atoms: C_12  and  C_17
REMARK    4  A    between atoms: C_19  and  C_22
REMARK    5  A    between atoms: C_27  and  C_28
REMARK                            x       y       z     vdW  Elec       q    Type
REMARK                         _______ _______ _______ _____ _____    ______ ____
ROOT
ATOM      5  N   UNL     1      -7.626 -11.382  19.676  0.00  0.00    -0.306 N 
ATOM      6  N   UNL     1      -6.295 -11.106  17.763  0.00  0.00    -0.214 NA
ATOM      7  N   UNL     1      -5.329 -11.826  19.851  0.00  0.00    -0.223 NA
ATOM     18  C   UNL     1      -6.379 -11.440  19.079  0.00  0.00    +0.216 A 
ATOM     19  C   UNL     1      -5.064 -11.174  17.214  0.00  0.00    +0.076 A 
ATOM     20  C   UNL     1      -4.128 -11.872  19.238  0.00  0.00    +0.116 A 
ATOM     21  C   UNL     1      -3.933 -11.554  17.910  0.00  0.00    +0.048 A 
ATOM     35  H   UNL     1      -7.669 -11.582  20.668  0.00  0.00    +0.149 HD
ENDROOT
BRANCH   5  11
ATOM      1  O   UNL     1     -10.981  -9.964  19.406  0.00  0.00    -0.370 OA
ATOM      2  O   UNL     1     -10.184 -12.936  18.886  0.00  0.00    -0.370 OA
ATOM      8  C   UNL     1     -10.565 -12.211  20.067  0.00  0.00    +0.171 C 
ATOM      9  C   UNL     1      -9.967 -10.822  19.958  0.00  0.00    +0.171 C 
ATOM     10  C   UNL     1     -12.058 -11.970  20.077  0.00  0.00    +0.130 C 
ATOM     11  C   UNL     1      -8.830 -10.987  18.977  0.00  0.00    +0.130 C 
ATOM     13  C   UNL     1     -12.189 -10.717  19.229  0.00  0.00    +0.185 C 
ATOM     14  C   UNL     1      -9.316 -12.117  18.088  0.00  0.00    +0.185 C 
BRANCH  10   4
ATOM      3  O   UNL     1     -13.869 -13.649  21.612  0.00  0.00    -0.276 OA
ATOM      4  N   UNL     1     -12.541 -11.746  21.418  0.00  0.00    -0.307 N 
ATOM     17  C   UNL     1     -13.407 -12.610  22.066  0.00  0.00    +0.216 C 
ATOM     34  H   UNL     1     -12.202 -10.928  21.916  0.00  0.00    +0.149 HD
BRANCH  17  12
ATOM     12  C   UNL     1     -13.775 -12.181  23.448  0.00  0.00    +0.075 C 
ATOM     15  C   UNL     1     -14.334 -13.201  24.381  0.00  0.00    +0.013 C 
ATOM     16  C   UNL     1     -15.219 -12.130  23.813  0.00  0.00    +0.013 C 
ENDBRANCH  17  12
ENDBRANCH  10   4
ENDBRANCH   5  11
BRANCH  19  22
ATOM     22  C   UNL     1      -4.996 -10.816  15.818  0.00  0.00    +0.001 A 
ATOM     23  C   UNL     1      -3.817 -11.023  15.097  0.00  0.00    +0.010 A 
ATOM     24  C   UNL     1      -6.108 -10.259  15.182  0.00  0.00    +0.010 A 
ATOM     25  C   UNL     1      -3.752 -10.675  13.748  0.00  0.00    +0.009 A 
ATOM     26  C   UNL     1      -6.043  -9.911  13.833  0.00  0.00    +0.009 A 
ATOM     27  C   UNL     1      -4.864 -10.119  13.116  0.00  0.00    -0.018 A 
BRANCH  27  28
ATOM     28  C   UNL     1      -4.796  -9.759  11.716  0.00  0.00    -0.018 A 
ATOM     29  C   UNL     1      -3.920 -10.433  10.866  0.00  0.00    +0.008 A 
ATOM     30  C   UNL     1      -5.606  -8.739  11.217  0.00  0.00    +0.008 A 
ATOM     31  C   UNL     1      -3.854 -10.087   9.516  0.00  0.00    +0.001 A 
ATOM     32  C   UNL     1      -5.541  -8.393   9.868  0.00  0.00    +0.001 A 
ATOM     33  C   UNL     1      -4.664  -9.067   9.017  0.00  0.00    +0.000 A 
ENDBRANCH  27  28
ENDBRANCH  19  22
TORSDOF 5
ENDMDL
MODEL 9
REMARK VINA RESULT:      -7.1     32.928     37.732
REMARK  Name = 11912995
REMARK  5 active torsions:
REMARK  status: ('A' for Active; 'I' for Inactive)
REMARK    1  A    between atoms: N_4  and  C_10
REMARK    2  A    between atoms: N_5  and  C_11
REMARK    3  A    between atoms: C_12  and  C_17
REMARK    4  A    between atoms: C_19  and  C_22
REMARK    5  A    between atoms: C_27  and  C_28
REMARK                            x       y       z     vdW  Elec       q    Type
REMARK                         _______ _______ _______ _____ _____    ______ ____
ROOT
ATOM      5  N   UNL     1      12.115   8.106   5.955  0.00  0.00    -0.306 N 
ATOM      6  N   UNL     1      11.540   6.544   4.301  0.00  0.00    -0.214 NA
ATOM      7  N   UNL     1      10.782   6.277   6.574  0.00  0.00    -0.223 NA
ATOM     18  C   UNL     1      11.459   6.941   5.599  0.00  0.00    +0.216 A 
ATOM     19  C   UNL     1      10.889   5.403   3.990  0.00  0.00    +0.076 A 
ATOM     20  C   UNL     1      10.155   5.145   6.192  0.00  0.00    +0.116 A 
ATOM     21  C   UNL     1      10.174   4.655   4.903  0.00  0.00    +0.048 A 
ATOM     35  H   UNL     1      12.092   8.364   6.935  0.00  0.00    +0.149 HD
ENDROOT
BRANCH   5  11
ATOM      1  O   UNL     1      15.025   8.945   3.915  0.00  0.00    -0.370 OA
ATOM      2  O   UNL     1      13.939  10.576   6.344  0.00  0.00    -0.370 OA
ATOM      8  C   UNL     1      14.858   9.477   6.228  0.00  0.00    +0.171 C 
ATOM      9  C   UNL     1      14.343   8.573   5.125  0.00  0.00    +0.171 C 
ATOM     10  C   UNL     1      16.194   9.961   5.714  0.00  0.00    +0.130 C 
ATOM     11  C   UNL     1      12.875   8.913   5.025  0.00  0.00    +0.130 C 
ATOM     13  C   UNL     1      15.977   9.977   4.211  0.00  0.00    +0.185 C 
ATOM     14  C   UNL     1      12.840  10.371   5.444  0.00  0.00    +0.185 C 
BRANCH  10   4
ATOM      3  O   UNL     1      19.056  10.484   5.722  0.00  0.00    -0.276 OA
ATOM      4  N   UNL     1      17.254   9.051   6.078  0.00  0.00    -0.307 N 
ATOM     17  C   UNL     1      18.594   9.397   6.048  0.00  0.00    +0.216 C 
ATOM     34  H   UNL     1      16.995   8.124   6.400  0.00  0.00    +0.149 HD
BRANCH  17  12
ATOM     12  C   UNL     1      19.516   8.301   6.467  0.00  0.00    +0.075 C 
ATOM     15  C   UNL     1      20.646   8.635   7.380  0.00  0.00    +0.013 C 
ATOM     16  C   UNL     1      20.910   8.307   5.940  0.00  0.00    +0.013 C 
ENDBRANCH  17  12
ENDBRANCH  10   4
ENDBRANCH   5  11
BRANCH  19  22
ATOM     22  C   UNL     1      10.988   5.000   2.608  0.00  0.00    +0.001 A 
ATOM     23  C   UNL     1      11.911   4.022   2.227  0.00  0.00    +0.010 A 
ATOM     24  C   UNL     1      10.162   5.585   1.646  0.00  0.00    +0.010 A 
ATOM     25  C   UNL     1      12.007   3.634   0.891  0.00  0.00    +0.009 A 
ATOM     26  C   UNL     1      10.258   5.197   0.310  0.00  0.00    +0.009 A 
ATOM     27  C   UNL     1      11.180   4.221  -0.068  0.00  0.00    -0.018 A 
BRANCH  27  28
ATOM     28  C   UNL     1      11.280   3.817  -1.454  0.00  0.00    -0.018 A 
ATOM     29  C   UNL     1      10.338   4.266  -2.379  0.00  0.00    +0.008 A 
ATOM     30  C   UNL     1      12.317   2.980  -1.865  0.00  0.00    +0.008 A 
ATOM     31  C   UNL     1      10.433   3.878  -3.716  0.00  0.00    +0.001 A 
ATOM     32  C   UNL     1      12.412   2.592  -3.201  0.00  0.00    +0.001 A 
ATOM     33  C   UNL     1      11.470   3.041  -4.126  0.00  0.00    +0.000 A 
ENDBRANCH  27  28
ENDBRANCH  19  22
TORSDOF 5
ENDMDL
MODEL 10
REMARK VINA RESULT:      -7.0     15.940     17.112
REMARK  Name = 11912995
REMARK  5 active torsions:
REMARK  status: ('A' for Active; 'I' for Inactive)
REMARK    1  A    between atoms: N_4  and  C_10
REMARK    2  A    between atoms: N_5  and  C_11
REMARK    3  A    between atoms: C_12  and  C_17
REMARK    4  A    between atoms: C_19  and  C_22
REMARK    5  A    between atoms: C_27  and  C_28
REMARK                            x       y       z     vdW  Elec       q    Type
REMARK                         _______ _______ _______ _____ _____    ______ ____
ROOT
ATOM      5  N   UNL     1     -14.162  -6.261  14.796  0.00  0.00    -0.306 N 
ATOM      6  N   UNL     1     -12.707  -7.653  16.001  0.00  0.00    -0.214 NA
ATOM      7  N   UNL     1     -15.089  -7.740  16.364  0.00  0.00    -0.223 NA
ATOM     18  C   UNL     1     -13.981  -7.248  15.749  0.00  0.00    +0.216 A 
ATOM     19  C   UNL     1     -12.568  -8.616  16.936  0.00  0.00    +0.076 A 
ATOM     20  C   UNL     1     -14.876  -8.700  17.288  0.00  0.00    +0.116 A 
ATOM     21  C   UNL     1     -13.626  -9.182  17.618  0.00  0.00    +0.048 A 
ATOM     35  H   UNL     1     -15.109  -5.929  14.654  0.00  0.00    +0.149 HD
ENDROOT
BRANCH   5  11
ATOM      1  O   UNL     1     -12.479  -3.534  13.045  0.00  0.00    -0.370 OA
ATOM      2  O   UNL     1     -13.427  -6.229  11.790  0.00  0.00    -0.370 OA
ATOM      8  C   UNL     1     -14.072  -4.963  12.006  0.00  0.00    +0.171 C 
ATOM      9  C   UNL     1     -13.573  -4.422  13.332  0.00  0.00    +0.171 C 
ATOM     10  C   UNL     1     -13.594  -3.949  10.992  0.00  0.00    +0.130 C 
ATOM     11  C   UNL     1     -13.075  -5.645  14.065  0.00  0.00    +0.130 C 
ATOM     13  C   UNL     1     -12.312  -3.438  11.623  0.00  0.00    +0.185 C 
ATOM     14  C   UNL     1     -12.624  -6.552  12.935  0.00  0.00    +0.185 C 
BRANCH  10   4
ATOM      3  O   UNL     1     -14.530  -2.780   8.498  0.00  0.00    -0.276 OA
ATOM      4  N   UNL     1     -14.555  -2.885  10.825  0.00  0.00    -0.307 N 
ATOM     17  C   UNL     1     -14.936  -2.395   9.588  0.00  0.00    +0.216 C 
ATOM     34  H   UNL     1     -14.990  -2.502  11.658  0.00  0.00    +0.149 HD
BRANCH  17  12
ATOM     12  C   UNL     1     -15.943  -1.295   9.652  0.00  0.00    +0.075 C 
ATOM     15  C   UNL     1     -16.789  -1.037   8.452  0.00  0.00    +0.013 C 
ATOM     16  C   UNL     1     -15.708  -0.070   8.836  0.00  0.00    +0.013 C 
ENDBRANCH  17  12
ENDBRANCH  10   4
ENDBRANCH   5  11
BRANCH  19  22
ATOM     22  C   UNL     1     -11.209  -9.032  17.189  0.00  0.00    +0.001 A 
ATOM     23  C   UNL     1     -10.147  -8.176  16.890  0.00  0.00    +0.010 A 
ATOM     24  C   UNL     1     -10.952 -10.292  17.734  0.00  0.00    +0.010 A 
ATOM     25  C   UNL     1      -8.834  -8.578  17.133  0.00  0.00    +0.009 A 
ATOM     26  C   UNL     1      -9.639 -10.695  17.978  0.00  0.00    +0.009 A 
ATOM     27  C   UNL     1      -8.580  -9.838  17.677  0.00  0.00    -0.018 A 
BRANCH  27  28
ATOM     28  C   UNL     1      -7.217 -10.255  17.930  0.00  0.00    -0.018 A 
ATOM     29  C   UNL     1      -6.892 -10.877  19.135  0.00  0.00    +0.008 A 
ATOM     30  C   UNL     1      -6.230 -10.036  16.970  0.00  0.00    +0.008 A 
ATOM     31  C   UNL     1      -5.579 -11.280  19.381  0.00  0.00    +0.001 A 
ATOM     32  C   UNL     1      -4.918 -10.439  17.214  0.00  0.00    +0.001 A 
ATOM     33  C   UNL     1      -4.592 -11.061  18.420  0.00  0.00    +0.000 A 
ENDBRANCH  27  28
ENDBRANCH  19  22
TORSDOF 5
ENDMDL
