REMARK  Name = 75537119
REMARK  5 active torsions:
REMARK  status: ('A' for Active; 'I' for Inactive)
REMARK    1  A    between atoms: O_2  and  C_24
REMARK    2  A    between atoms: O_2  and  C_25
REMARK    3  A    between atoms: N_3  and  C_7
REMARK    4  A    between atoms: N_5  and  C_18
REMARK    5  A    between atoms: C_18  and  C_19
REMARK                            x       y       z     vdW  Elec       q    Type
REMARK                         _______ _______ _______ _____ _____    ______ ____
ROOT
ATOM      1  O   UNL     1       3.622   2.534  -0.326  0.00  0.00    -0.252 OA
ATOM      3  N   UNL     1       3.025   0.254  -0.214  0.00  0.00    -0.281 N 
ATOM      4  N   UNL     1       1.394   1.790  -0.371  0.00  0.00    -0.278 N 
ATOM      5  N   UNL     1      -1.352   1.687   0.229  0.00  0.00    -0.295 NA
ATOM      6  C   UNL     1       0.705   0.518  -0.449  0.00  0.00    +0.109 C 
ATOM      8  C   UNL     1       1.789  -0.503  -0.112  0.00  0.00    +0.133 C 
ATOM      9  C   UNL     1      -0.501   0.508   0.489  0.00  0.00    +0.109 C 
ATOM     12  C   UNL     1       2.786   1.640  -0.310  0.00  0.00    +0.305 C 
ATOM     13  C   UNL     1       0.630   3.016  -0.465  0.00  0.00    +0.125 C 
ATOM     14  C   UNL     1      -0.599   2.939   0.444  0.00  0.00    +0.104 C 
ENDROOT
BRANCH   3   7
ATOM      7  C   UNL     1       4.318  -0.371  -0.074  0.00  0.00    +0.078 C 
ATOM     10  C   UNL     1       4.608  -1.278  -1.272  0.00  0.00    +0.022 C 
ATOM     11  C   UNL     1       4.407  -1.144   1.245  0.00  0.00    +0.022 C 
ATOM     15  C   UNL     1       5.949  -1.993  -1.125  0.00  0.00    +0.002 C 
ATOM     16  C   UNL     1       5.749  -1.858   1.388  0.00  0.00    +0.002 C 
ATOM     17  C   UNL     1       6.036  -2.760   0.192  0.00  0.00    +0.000 C 
ENDBRANCH   3   7
BRANCH   5  18
ATOM     18  C   UNL     1      -2.541   1.655   1.080  0.00  0.00    +0.119 C 
BRANCH  18  19
ATOM     19  C   UNL     1      -3.568   0.679   0.572  0.00  0.00    -0.033 A 
ATOM     20  C   UNL     1      -4.360   1.007  -0.528  0.00  0.00    +0.008 A 
ATOM     21  C   UNL     1      -3.728  -0.555   1.203  0.00  0.00    +0.008 A 
ATOM     22  C   UNL     1      -5.311   0.102  -0.998  0.00  0.00    +0.046 A 
ATOM     23  C   UNL     1      -4.679  -1.461   0.733  0.00  0.00    +0.046 A 
ATOM     24  C   UNL     1      -5.471  -1.132  -0.368  0.00  0.00    +0.120 A 
BRANCH  24   2
ATOM      2  O   UNL     1      -6.399  -2.016  -0.827  0.00  0.00    -0.495 OA
ATOM     25  C   UNL     1      -6.509  -3.259  -0.135  0.00  0.00    +0.277 C 
ENDBRANCH  24   2
ENDBRANCH  18  19
ENDBRANCH   5  18
TORSDOF 4
