MODEL 1
REMARK VINA RESULT:      -6.4      0.000      0.000
REMARK  Name = 51138170
REMARK  8 active torsions:
REMARK  status: ('A' for Active; 'I' for Inactive)
REMARK    1  A    between atoms: O_1  and  C_22
REMARK    2  A    between atoms: N_3  and  C_8
REMARK    3  A    between atoms: C_5  and  C_8
REMARK    4  A    between atoms: C_11  and  C_17
REMARK    5  A    between atoms: CA_16  and  C_22
REMARK    6  A    between atoms: C_17  and  C_18
REMARK    7  A    between atoms: C_18  and  C_23
REMARK    8  A    between atoms: C_18  and  C_24
REMARK                            x       y       z     vdW  Elec       q    Type
REMARK                         _______ _______ _______ _____ _____    ______ ____
ROOT
ATOM      3  N   UNL     1      17.982   7.185  21.285  0.00  0.00    -0.346 N 
ATOM      4  N   UNL     1      13.465   8.856  19.768  0.00  0.00    -0.297 NA
ATOM      9  C   UNL     1      16.365   8.548  20.547  0.00  0.00    +0.008 A 
ATOM     10  C   UNL     1      17.667   8.504  21.059  0.00  0.00    +0.050 A 
ATOM     11  C   UNL     1      14.372  10.006  19.657  0.00  0.00    +0.085 C 
ATOM     12  C   UNL     1      15.925   7.184  20.436  0.00  0.00    -0.020 A 
ATOM     13  C   UNL     1      15.777   9.808  20.236  0.00  0.00    -0.021 A 
ATOM     14  C   UNL     1      16.946   6.383  20.908  0.00  0.00    +0.090 A 
ATOM     15  C   UNL     1      14.619   6.681  19.919  0.00  0.00    +0.067 C 
ATOM     16  CA  UNL     1      13.883   7.676  19.024  0.00  0.00    +0.168 C 
ATOM     19  C   UNL     1      18.450   9.641  21.271  0.00  0.00    +0.026 A 
ATOM     20  C   UNL     1      16.604  10.946  20.413  0.00  0.00    +0.006 A 
ATOM     21  C   UNL     1      17.897  10.867  20.925  0.00  0.00    +0.002 A 
ATOM     25  H   UNL     1      13.281   8.630  20.745  0.00  0.00    +0.123 HD
ENDROOT
BRANCH  16  22
ATOM      2  OXT UNL     1      12.055   7.324  17.483  0.00  0.00    -0.249 OA
ATOM     22  C   UNL     1      12.614   7.049  18.534  0.00  0.00    +0.322 C 
BRANCH  22   1
ATOM      1  O   UNL     1      12.162   6.129  19.421  0.00  0.00    -0.480 OA
ATOM     26  H   UNL     1      11.714   5.379  18.975  0.00  0.00    +0.295 HD
ENDBRANCH  22   1
ENDBRANCH  16  22
BRANCH   3   8
ATOM      8  C   UNL     1      19.234   6.698  21.823  0.00  0.00    +0.125 C 
BRANCH   8   5
ATOM      5  C   UNL     1      20.197   6.349  20.732  0.00  0.00    +0.009 C 
ATOM      6  C   UNL     1      20.428   4.907  20.390  0.00  0.00    +0.005 C 
ATOM      7  C   UNL     1      21.499   5.693  21.085  0.00  0.00    +0.005 C 
ENDBRANCH   8   5
ENDBRANCH   3   8
BRANCH  11  17
ATOM     17  C   UNL     1      13.614  11.166  20.329  0.00  0.00    +0.026 C 
BRANCH  17  18
ATOM     18  C   UNL     1      12.940  10.758  21.642  0.00  0.00    -0.015 C 
ATOM     23  C   UNL     1      11.519  11.326  21.677  0.00  0.00    +0.007 C 
ATOM     24  C   UNL     1      13.715  11.228  22.874  0.00  0.00    +0.007 C 
ENDBRANCH  17  18
ENDBRANCH  11  17
TORSDOF 6
ENDMDL
MODEL 2
REMARK VINA RESULT:      -6.3      3.292      7.302
REMARK  Name = 51138170
REMARK  8 active torsions:
REMARK  status: ('A' for Active; 'I' for Inactive)
REMARK    1  A    between atoms: O_1  and  C_22
REMARK    2  A    between atoms: N_3  and  C_8
REMARK    3  A    between atoms: C_5  and  C_8
REMARK    4  A    between atoms: C_11  and  C_17
REMARK    5  A    between atoms: CA_16  and  C_22
REMARK    6  A    between atoms: C_17  and  C_18
REMARK    7  A    between atoms: C_18  and  C_23
REMARK    8  A    between atoms: C_18  and  C_24
REMARK                            x       y       z     vdW  Elec       q    Type
REMARK                         _______ _______ _______ _____ _____    ______ ____
ROOT
ATOM      3  N   UNL     1      11.226  10.973  22.569  0.00  0.00    -0.346 N 
ATOM      4  N   UNL     1      13.917   9.312  18.632  0.00  0.00    -0.297 NA
ATOM      9  C   UNL     1      12.012   9.638  20.951  0.00  0.00    +0.008 A 
ATOM     10  C   UNL     1      11.241   9.674  22.119  0.00  0.00    +0.050 A 
ATOM     11  C   UNL     1      13.010   8.212  18.987  0.00  0.00    +0.085 C 
ATOM     12  C   UNL     1      12.429  10.990  20.697  0.00  0.00    -0.020 A 
ATOM     13  C   UNL     1      12.207   8.397  20.278  0.00  0.00    -0.021 A 
ATOM     14  C   UNL     1      11.932  11.774  21.720  0.00  0.00    +0.090 A 
ATOM     15  C   UNL     1      13.248  11.498  19.558  0.00  0.00    +0.067 C 
ATOM     16  CA  UNL     1      13.255  10.576  18.341  0.00  0.00    +0.168 C 
ATOM     19  C   UNL     1      10.621   8.549  22.667  0.00  0.00    +0.026 A 
ATOM     20  C   UNL     1      11.530   7.277  20.823  0.00  0.00    +0.006 A 
ATOM     21  C   UNL     1      10.769   7.347  21.988  0.00  0.00    +0.002 A 
ATOM     25  H   UNL     1      14.642   9.429  19.340  0.00  0.00    +0.123 HD
ENDROOT
BRANCH  16  22
ATOM      2  OXT UNL     1      14.956  10.644  16.625  0.00  0.00    -0.249 OA
ATOM     22  C   UNL     1      14.072  11.205  17.254  0.00  0.00    +0.322 C 
BRANCH  22   1
ATOM      1  O   UNL     1      13.696  12.493  17.059  0.00  0.00    -0.480 OA
ATOM     26  H   UNL     1      13.427  12.927  17.897  0.00  0.00    +0.295 HD
ENDBRANCH  22   1
ENDBRANCH  16  22
BRANCH   3   8
ATOM      8  C   UNL     1      10.551  11.445  23.758  0.00  0.00    +0.125 C 
BRANCH   8   5
ATOM      5  C   UNL     1      11.070  12.783  24.184  0.00  0.00    +0.009 C 
ATOM      6  C   UNL     1      10.641  13.350  25.505  0.00  0.00    +0.005 C 
ATOM      7  C   UNL     1      10.132  13.953  24.230  0.00  0.00    +0.005 C 
ENDBRANCH   8   5
ENDBRANCH   3   8
BRANCH  11  17
ATOM     17  C   UNL     1      13.910   6.963  19.026  0.00  0.00    +0.026 C 
BRANCH  17  18
ATOM     18  C   UNL     1      15.274   7.228  19.670  0.00  0.00    -0.015 C 
ATOM     23  C   UNL     1      16.320   6.311  19.033  0.00  0.00    +0.007 C 
ATOM     24  C   UNL     1      15.261   7.023  21.185  0.00  0.00    +0.007 C 
ENDBRANCH  17  18
ENDBRANCH  11  17
TORSDOF 6
ENDMDL
MODEL 3
REMARK VINA RESULT:      -6.1     32.161     33.555
REMARK  Name = 51138170
REMARK  8 active torsions:
REMARK  status: ('A' for Active; 'I' for Inactive)
REMARK    1  A    between atoms: O_1  and  C_22
REMARK    2  A    between atoms: N_3  and  C_8
REMARK    3  A    between atoms: C_5  and  C_8
REMARK    4  A    between atoms: C_11  and  C_17
REMARK    5  A    between atoms: CA_16  and  C_22
REMARK    6  A    between atoms: C_17  and  C_18
REMARK    7  A    between atoms: C_18  and  C_23
REMARK    8  A    between atoms: C_18  and  C_24
REMARK                            x       y       z     vdW  Elec       q    Type
REMARK                         _______ _______ _______ _____ _____    ______ ____
ROOT
ATOM      3  N   UNL     1     -15.160   4.766  32.104  0.00  0.00    -0.346 N 
ATOM      4  N   UNL     1     -15.829   0.716  29.162  0.00  0.00    -0.297 NA
ATOM      9  C   UNL     1     -15.650   3.497  30.324  0.00  0.00    +0.008 A 
ATOM     10  C   UNL     1     -15.752   4.785  30.863  0.00  0.00    +0.050 A 
ATOM     11  C   UNL     1     -16.150   1.877  28.321  0.00  0.00    +0.085 C 
ATOM     12  C   UNL     1     -14.929   2.709  31.287  0.00  0.00    -0.020 A 
ATOM     13  C   UNL     1     -16.202   3.230  29.038  0.00  0.00    -0.021 A 
ATOM     14  C   UNL     1     -14.657   3.526  32.367  0.00  0.00    +0.090 A 
ATOM     15  C   UNL     1     -14.531   1.275  31.184  0.00  0.00    +0.067 C 
ATOM     16  CA  UNL     1     -14.498   0.743  29.753  0.00  0.00    +0.168 C 
ATOM     19  C   UNL     1     -16.357   5.852  30.196  0.00  0.00    +0.026 A 
ATOM     20  C   UNL     1     -16.769   4.337  28.358  0.00  0.00    +0.006 A 
ATOM     21  C   UNL     1     -16.855   5.608  28.923  0.00  0.00    +0.002 A 
ATOM     25  H   UNL     1     -16.546   0.573  29.873  0.00  0.00    +0.123 HD
ENDROOT
BRANCH  16  22
ATOM      2  OXT UNL     1     -13.001  -1.100  29.297  0.00  0.00    -0.249 OA
ATOM     22  C   UNL     1     -14.049  -0.686  29.772  0.00  0.00    +0.322 C 
BRANCH  22   1
ATOM      1  O   UNL     1     -14.967  -1.468  30.390  0.00  0.00    -0.480 OA
ATOM     26  H   UNL     1     -15.098  -1.208  31.327  0.00  0.00    +0.295 HD
ENDBRANCH  22   1
ENDBRANCH  16  22
BRANCH   3   8
ATOM      8  C   UNL     1     -15.058   5.893  33.006  0.00  0.00    +0.125 C 
BRANCH   8   5
ATOM      5  C   UNL     1     -13.747   6.597  32.851  0.00  0.00    +0.009 C 
ATOM      6  C   UNL     1     -13.322   7.595  33.888  0.00  0.00    +0.005 C 
ATOM      7  C   UNL     1     -13.737   8.062  32.525  0.00  0.00    +0.005 C 
ENDBRANCH   8   5
ENDBRANCH   3   8
BRANCH  11  17
ATOM     17  C   UNL     1     -17.487   1.513  27.650  0.00  0.00    +0.026 C 
BRANCH  17  18
ATOM     18  C   UNL     1     -17.310   0.878  26.268  0.00  0.00    -0.015 C 
ATOM     23  C   UNL     1     -16.640   1.886  25.331  0.00  0.00    +0.007 C 
ATOM     24  C   UNL     1     -18.632   0.407  25.661  0.00  0.00    +0.007 C 
ENDBRANCH  17  18
ENDBRANCH  11  17
TORSDOF 6
ENDMDL
MODEL 4
REMARK VINA RESULT:      -5.9     26.454     28.715
REMARK  Name = 51138170
REMARK  8 active torsions:
REMARK  status: ('A' for Active; 'I' for Inactive)
REMARK    1  A    between atoms: O_1  and  C_22
REMARK    2  A    between atoms: N_3  and  C_8
REMARK    3  A    between atoms: C_5  and  C_8
REMARK    4  A    between atoms: C_11  and  C_17
REMARK    5  A    between atoms: CA_16  and  C_22
REMARK    6  A    between atoms: C_17  and  C_18
REMARK    7  A    between atoms: C_18  and  C_23
REMARK    8  A    between atoms: C_18  and  C_24
REMARK                            x       y       z     vdW  Elec       q    Type
REMARK                         _______ _______ _______ _____ _____    ______ ____
ROOT
ATOM      3  N   UNL     1      -2.779 -10.795  13.704  0.00  0.00    -0.346 N 
ATOM      4  N   UNL     1      -5.560 -10.394  17.900  0.00  0.00    -0.297 NA
ATOM      9  C   UNL     1      -4.550 -10.606  15.063  0.00  0.00    +0.008 A 
ATOM     10  C   UNL     1      -4.127 -10.526  13.731  0.00  0.00    +0.050 A 
ATOM     11  C   UNL     1      -6.519 -10.421  16.787  0.00  0.00    +0.085 C 
ATOM     12  C   UNL     1      -3.395 -10.979  15.835  0.00  0.00    -0.020 A 
ATOM     13  C   UNL     1      -5.915 -10.353  15.381  0.00  0.00    -0.021 A 
ATOM     14  C   UNL     1      -2.330 -11.075  14.961  0.00  0.00    +0.090 A 
ATOM     15  C   UNL     1      -3.315 -11.223  17.304  0.00  0.00    +0.067 C 
ATOM     16  CA  UNL     1      -4.660 -11.538  17.954  0.00  0.00    +0.168 C 
ATOM     19  C   UNL     1      -4.982 -10.226  12.669  0.00  0.00    +0.026 A 
ATOM     20  C   UNL     1      -6.776 -10.098  14.284  0.00  0.00    +0.006 A 
ATOM     21  C   UNL     1      -6.323 -10.025  12.969  0.00  0.00    +0.002 A 
ATOM     25  H   UNL     1      -5.043  -9.516  17.914  0.00  0.00    +0.123 HD
ENDROOT
BRANCH  16  22
ATOM      2  OXT UNL     1      -3.422 -12.241  19.907  0.00  0.00    -0.249 OA
ATOM     22  C   UNL     1      -4.450 -11.802  19.414  0.00  0.00    +0.322 C 
BRANCH  22   1
ATOM      1  O   UNL     1      -5.563 -11.489  20.121  0.00  0.00    -0.480 OA
ATOM     26  H   UNL     1      -5.425 -11.595  21.087  0.00  0.00    +0.295 HD
ENDBRANCH  22   1
ENDBRANCH  16  22
BRANCH   3   8
ATOM      8  C   UNL     1      -1.945 -10.806  12.522  0.00  0.00    +0.125 C 
BRANCH   8   5
ATOM      5  C   UNL     1      -1.699  -9.418  12.017  0.00  0.00    +0.009 C 
ATOM      6  C   UNL     1      -2.046  -9.082  10.597  0.00  0.00    +0.005 C 
ATOM      7  C   UNL     1      -0.609  -9.186  11.013  0.00  0.00    +0.005 C 
ENDBRANCH   8   5
ENDBRANCH   3   8
BRANCH  11  17
ATOM     17  C   UNL     1      -7.480  -9.251  17.074  0.00  0.00    +0.026 C 
BRANCH  17  18
ATOM     18  C   UNL     1      -8.927  -9.704  17.287  0.00  0.00    -0.015 C 
ATOM     23  C   UNL     1      -9.828  -8.473  17.409  0.00  0.00    +0.007 C 
ATOM     24  C   UNL     1      -9.091 -10.590  18.523  0.00  0.00    +0.007 C 
ENDBRANCH  17  18
ENDBRANCH  11  17
TORSDOF 6
ENDMDL
MODEL 5
REMARK VINA RESULT:      -5.9     14.505     17.320
REMARK  Name = 51138170
REMARK  8 active torsions:
REMARK  status: ('A' for Active; 'I' for Inactive)
REMARK    1  A    between atoms: O_1  and  C_22
REMARK    2  A    between atoms: N_3  and  C_8
REMARK    3  A    between atoms: C_5  and  C_8
REMARK    4  A    between atoms: C_11  and  C_17
REMARK    5  A    between atoms: CA_16  and  C_22
REMARK    6  A    between atoms: C_17  and  C_18
REMARK    7  A    between atoms: C_18  and  C_23
REMARK    8  A    between atoms: C_18  and  C_24
REMARK                            x       y       z     vdW  Elec       q    Type
REMARK                         _______ _______ _______ _____ _____    ______ ____
ROOT
ATOM      3  N   UNL     1      10.469   5.294   2.469  0.00  0.00    -0.346 N 
ATOM      4  N   UNL     1       9.548   6.930   7.157  0.00  0.00    -0.297 NA
ATOM      9  C   UNL     1       9.622   6.477   4.174  0.00  0.00    +0.008 A 
ATOM     10  C   UNL     1       9.752   6.425   2.781  0.00  0.00    +0.050 A 
ATOM     11  C   UNL     1       8.698   7.744   6.278  0.00  0.00    +0.085 C 
ATOM     12  C   UNL     1      10.263   5.296   4.685  0.00  0.00    -0.020 A 
ATOM     13  C   UNL     1       8.929   7.567   4.773  0.00  0.00    -0.021 A 
ATOM     14  C   UNL     1      10.776   4.605   3.605  0.00  0.00    +0.090 A 
ATOM     15  C   UNL     1      10.381   4.860   6.107  0.00  0.00    +0.067 C 
ATOM     16  CA  UNL     1       9.348   5.493   7.036  0.00  0.00    +0.168 C 
ATOM     19  C   UNL     1       9.215   7.387   1.922  0.00  0.00    +0.026 A 
ATOM     20  C   UNL     1       8.350   8.506   3.883  0.00  0.00    +0.006 A 
ATOM     21  C   UNL     1       8.497   8.426   2.500  0.00  0.00    +0.002 A 
ATOM     25  H   UNL     1      10.531   7.177   7.045  0.00  0.00    +0.123 HD
ENDROOT
BRANCH  16  22
ATOM      2  OXT UNL     1       9.060   5.437   9.436  0.00  0.00    -0.249 OA
ATOM     22  C   UNL     1       9.537   4.952   8.421  0.00  0.00    +0.322 C 
BRANCH  22   1
ATOM      1  O   UNL     1      10.317   3.843   8.398  0.00  0.00    -0.480 OA
ATOM     26  H   UNL     1      11.049   3.897   9.050  0.00  0.00    +0.295 HD
ENDBRANCH  22   1
ENDBRANCH  16  22
BRANCH   3   8
ATOM      8  C   UNL     1      10.836   4.870   1.136  0.00  0.00    +0.125 C 
BRANCH   8   5
ATOM      5  C   UNL     1      12.092   4.056   1.151  0.00  0.00    +0.009 C 
ATOM      6  C   UNL     1      13.412   4.740   0.949  0.00  0.00    +0.005 C 
ATOM      7  C   UNL     1      12.852   3.858  -0.128  0.00  0.00    +0.005 C 
ENDBRANCH   8   5
ENDBRANCH   3   8
BRANCH  11  17
ATOM     17  C   UNL     1       8.931   9.193   6.744  0.00  0.00    +0.026 C 
BRANCH  17  18
ATOM     18  C   UNL     1      10.386   9.470   7.131  0.00  0.00    -0.015 C 
ATOM     23  C   UNL     1      10.422  10.175   8.489  0.00  0.00    +0.007 C 
ATOM     24  C   UNL     1      11.122  10.316   6.091  0.00  0.00    +0.007 C 
ENDBRANCH  17  18
ENDBRANCH  11  17
TORSDOF 6
ENDMDL
MODEL 6
REMARK VINA RESULT:      -5.8      3.480      6.891
REMARK  Name = 51138170
REMARK  8 active torsions:
REMARK  status: ('A' for Active; 'I' for Inactive)
REMARK    1  A    between atoms: O_1  and  C_22
REMARK    2  A    between atoms: N_3  and  C_8
REMARK    3  A    between atoms: C_5  and  C_8
REMARK    4  A    between atoms: C_11  and  C_17
REMARK    5  A    between atoms: CA_16  and  C_22
REMARK    6  A    between atoms: C_17  and  C_18
REMARK    7  A    between atoms: C_18  and  C_23
REMARK    8  A    between atoms: C_18  and  C_24
REMARK                            x       y       z     vdW  Elec       q    Type
REMARK                         _______ _______ _______ _____ _____    ______ ____
ROOT
ATOM      3  N   UNL     1      15.624   7.166  19.647  0.00  0.00    -0.346 N 
ATOM      4  N   UNL     1      20.590   6.823  20.496  0.00  0.00    -0.297 NA
ATOM      9  C   UNL     1      17.666   7.575  20.471  0.00  0.00    +0.008 A 
ATOM     10  C   UNL     1      16.363   8.075  20.367  0.00  0.00    +0.050 A 
ATOM     11  C   UNL     1      20.111   7.904  21.367  0.00  0.00    +0.085 C 
ATOM     12  C   UNL     1      17.666   6.297  19.812  0.00  0.00    -0.020 A 
ATOM     13  C   UNL     1      18.654   8.333  21.162  0.00  0.00    -0.021 A 
ATOM     14  C   UNL     1      16.394   6.091  19.313  0.00  0.00    +0.090 A 
ATOM     15  C   UNL     1      18.801   5.341  19.666  0.00  0.00    +0.067 C 
ATOM     16  CA  UNL     1      19.918   5.544  20.687  0.00  0.00    +0.168 C 
ATOM     19  C   UNL     1      15.957   9.288  20.926  0.00  0.00    +0.026 A 
ATOM     20  C   UNL     1      18.211   9.538  21.764  0.00  0.00    +0.006 A 
ATOM     21  C   UNL     1      16.905  10.008  21.641  0.00  0.00    +0.002 A 
ATOM     25  H   UNL     1      20.570   7.108  19.517  0.00  0.00    +0.123 HD
ENDROOT
BRANCH  16  22
ATOM      2  OXT UNL     1      20.939   3.363  20.895  0.00  0.00    -0.249 OA
ATOM     22  C   UNL     1      20.978   4.508  20.469  0.00  0.00    +0.322 C 
BRANCH  22   1
ATOM      1  O   UNL     1      21.996   5.013  19.730  0.00  0.00    -0.480 OA
ATOM     26  H   UNL     1      22.776   4.418  19.726  0.00  0.00    +0.295 HD
ENDBRANCH  22   1
ENDBRANCH  16  22
BRANCH   3   8
ATOM      8  C   UNL     1      14.225   7.302  19.300  0.00  0.00    +0.125 C 
BRANCH   8   5
ATOM      5  C   UNL     1      14.058   7.772  17.889  0.00  0.00    +0.009 C 
ATOM      6  C   UNL     1      14.161   9.238  17.585  0.00  0.00    +0.005 C 
ATOM      7  C   UNL     1      12.830   8.549  17.515  0.00  0.00    +0.005 C 
ENDBRANCH   8   5
ENDBRANCH   3   8
BRANCH  11  17
ATOM     17  C   UNL     1      21.104   9.058  21.137  0.00  0.00    +0.026 C 
BRANCH  17  18
ATOM     18  C   UNL     1      22.435   8.592  20.541  0.00  0.00    -0.015 C 
ATOM     23  C   UNL     1      23.515   8.630  21.625  0.00  0.00    +0.007 C 
ATOM     24  C   UNL     1      22.873   9.436  19.344  0.00  0.00    +0.007 C 
ENDBRANCH  17  18
ENDBRANCH  11  17
TORSDOF 6
ENDMDL
MODEL 7
REMARK VINA RESULT:      -5.8     27.659     29.391
REMARK  Name = 51138170
REMARK  8 active torsions:
REMARK  status: ('A' for Active; 'I' for Inactive)
REMARK    1  A    between atoms: O_1  and  C_22
REMARK    2  A    between atoms: N_3  and  C_8
REMARK    3  A    between atoms: C_5  and  C_8
REMARK    4  A    between atoms: C_11  and  C_17
REMARK    5  A    between atoms: CA_16  and  C_22
REMARK    6  A    between atoms: C_17  and  C_18
REMARK    7  A    between atoms: C_18  and  C_23
REMARK    8  A    between atoms: C_18  and  C_24
REMARK                            x       y       z     vdW  Elec       q    Type
REMARK                         _______ _______ _______ _____ _____    ______ ____
ROOT
ATOM      3  N   UNL     1      -3.379 -10.721  14.763  0.00  0.00    -0.346 N 
ATOM      4  N   UNL     1      -7.340  -9.689  17.720  0.00  0.00    -0.297 NA
ATOM      9  C   UNL     1      -5.482 -10.333  15.429  0.00  0.00    +0.008 A 
ATOM     10  C   UNL     1      -4.650 -10.457  14.310  0.00  0.00    +0.050 A 
ATOM     11  C   UNL     1      -7.891  -9.892  16.374  0.00  0.00    +0.085 C 
ATOM     12  C   UNL     1      -4.655 -10.576  16.580  0.00  0.00    -0.020 A 
ATOM     13  C   UNL     1      -6.864 -10.040  15.246  0.00  0.00    -0.021 A 
ATOM     14  C   UNL     1      -3.371 -10.801  16.124  0.00  0.00    +0.090 A 
ATOM     15  C   UNL     1      -5.063 -10.589  18.015  0.00  0.00    +0.067 C 
ATOM     16  CA  UNL     1      -6.558 -10.806  18.233  0.00  0.00    +0.168 C 
ATOM     19  C   UNL     1      -5.104 -10.329  12.996  0.00  0.00    +0.026 A 
ATOM     20  C   UNL     1      -7.315  -9.962  13.904  0.00  0.00    +0.006 A 
ATOM     21  C   UNL     1      -6.460 -10.091  12.811  0.00  0.00    +0.002 A 
ATOM     25  H   UNL     1      -6.815  -8.816  17.771  0.00  0.00    +0.123 HD
ENDROOT
BRANCH  16  22
ATOM      2  OXT UNL     1      -6.028 -11.134  20.568  0.00  0.00    -0.249 OA
ATOM     22  C   UNL     1      -6.841 -10.841  19.703  0.00  0.00    +0.322 C 
BRANCH  22   1
ATOM      1  O   UNL     1      -8.130 -10.502  19.951  0.00  0.00    -0.480 OA
ATOM     26  H   UNL     1      -8.644 -11.256  20.311  0.00  0.00    +0.295 HD
ENDBRANCH  22   1
ENDBRANCH  16  22
BRANCH   3   8
ATOM      8  C   UNL     1      -2.211 -10.910  13.931  0.00  0.00    +0.125 C 
BRANCH   8   5
ATOM      5  C   UNL     1      -2.245 -12.236  13.238  0.00  0.00    +0.009 C 
ATOM      6  C   UNL     1      -2.662 -13.455  14.007  0.00  0.00    +0.005 C 
ATOM      7  C   UNL     1      -1.229 -13.279  13.602  0.00  0.00    +0.005 C 
ENDBRANCH   8   5
ENDBRANCH   3   8
BRANCH  11  17
ATOM     17  C   UNL     1      -8.838  -8.697  16.156  0.00  0.00    +0.026 C 
BRANCH  17  18
ATOM     18  C   UNL     1      -9.933  -8.600  17.223  0.00  0.00    -0.015 C 
ATOM     23  C   UNL     1     -10.794  -9.864  17.178  0.00  0.00    +0.007 C 
ATOM     24  C   UNL     1     -10.817  -7.365  17.049  0.00  0.00    +0.007 C 
ENDBRANCH  17  18
ENDBRANCH  11  17
TORSDOF 6
ENDMDL
MODEL 8
REMARK VINA RESULT:      -5.8      3.266      7.118
REMARK  Name = 51138170
REMARK  8 active torsions:
REMARK  status: ('A' for Active; 'I' for Inactive)
REMARK    1  A    between atoms: O_1  and  C_22
REMARK    2  A    between atoms: N_3  and  C_8
REMARK    3  A    between atoms: C_5  and  C_8
REMARK    4  A    between atoms: C_11  and  C_17
REMARK    5  A    between atoms: CA_16  and  C_22
REMARK    6  A    between atoms: C_17  and  C_18
REMARK    7  A    between atoms: C_18  and  C_23
REMARK    8  A    between atoms: C_18  and  C_24
REMARK                            x       y       z     vdW  Elec       q    Type
REMARK                         _______ _______ _______ _____ _____    ______ ____
ROOT
ATOM      3  N   UNL     1      14.310   9.198  20.187  0.00  0.00    -0.346 N 
ATOM      4  N   UNL     1      18.843   8.949  22.398  0.00  0.00    -0.297 NA
ATOM      9  C   UNL     1      16.397   8.547  20.674  0.00  0.00    +0.008 A 
ATOM     10  C   UNL     1      15.236   8.205  19.972  0.00  0.00    +0.050 A 
ATOM     11  C   UNL     1      18.858   7.928  21.342  0.00  0.00    +0.085 C 
ATOM     12  C   UNL     1      16.138   9.820  21.292  0.00  0.00    -0.020 A 
ATOM     13  C   UNL     1      17.522   7.674  20.637  0.00  0.00    -0.021 A 
ATOM     14  C   UNL     1      14.843  10.176  20.974  0.00  0.00    +0.090 A 
ATOM     15  C   UNL     1      17.063  10.636  22.132  0.00  0.00    +0.067 C 
ATOM     16  CA  UNL     1      18.539  10.297  21.937  0.00  0.00    +0.168 C 
ATOM     19  C   UNL     1      15.115   7.046  19.203  0.00  0.00    +0.026 A 
ATOM     20  C   UNL     1      17.397   6.528  19.813  0.00  0.00    +0.006 A 
ATOM     21  C   UNL     1      16.226   6.215  19.125  0.00  0.00    +0.002 A 
ATOM     25  H   UNL     1      18.228   8.673  23.163  0.00  0.00    +0.123 HD
ENDROOT
BRANCH  16  22
ATOM      2  OXT UNL     1      19.948  12.204  22.404  0.00  0.00    -0.249 OA
ATOM     22  C   UNL     1      19.368  11.202  22.795  0.00  0.00    +0.322 C 
BRANCH  22   1
ATOM      1  O   UNL     1      19.391  10.757  24.075  0.00  0.00    -0.480 OA
ATOM     26  H   UNL     1      19.254   9.787  24.129  0.00  0.00    +0.295 HD
ENDBRANCH  22   1
ENDBRANCH  16  22
BRANCH   3   8
ATOM      8  C   UNL     1      12.967   9.229  19.649  0.00  0.00    +0.125 C 
BRANCH   8   5
ATOM      5  C   UNL     1      11.943   9.166  20.739  0.00  0.00    +0.009 C 
ATOM      6  C   UNL     1      11.981   8.029  21.718  0.00  0.00    +0.005 C 
ATOM      7  C   UNL     1      10.888   8.100  20.693  0.00  0.00    +0.005 C 
ENDBRANCH   8   5
ENDBRANCH   3   8
BRANCH  11  17
ATOM     17  C   UNL     1      19.411   6.666  22.030  0.00  0.00    +0.026 C 
BRANCH  17  18
ATOM     18  C   UNL     1      20.735   6.187  21.426  0.00  0.00    -0.015 C 
ATOM     23  C   UNL     1      21.327   7.302  20.560  0.00  0.00    +0.007 C 
ATOM     24  C   UNL     1      20.578   4.915  20.594  0.00  0.00    +0.007 C 
ENDBRANCH  17  18
ENDBRANCH  11  17
TORSDOF 6
ENDMDL
MODEL 9
REMARK VINA RESULT:      -5.7      1.745      2.441
REMARK  Name = 51138170
REMARK  8 active torsions:
REMARK  status: ('A' for Active; 'I' for Inactive)
REMARK    1  A    between atoms: O_1  and  C_22
REMARK    2  A    between atoms: N_3  and  C_8
REMARK    3  A    between atoms: C_5  and  C_8
REMARK    4  A    between atoms: C_11  and  C_17
REMARK    5  A    between atoms: CA_16  and  C_22
REMARK    6  A    between atoms: C_17  and  C_18
REMARK    7  A    between atoms: C_18  and  C_23
REMARK    8  A    between atoms: C_18  and  C_24
REMARK                            x       y       z     vdW  Elec       q    Type
REMARK                         _______ _______ _______ _____ _____    ______ ____
ROOT
ATOM      3  N   UNL     1      16.457   7.203  20.343  0.00  0.00    -0.346 N 
ATOM      4  N   UNL     1      12.726  10.074  18.515  0.00  0.00    -0.297 NA
ATOM      9  C   UNL     1      15.296   9.001  19.680  0.00  0.00    +0.008 A 
ATOM     10  C   UNL     1      16.432   8.577  20.380  0.00  0.00    +0.050 A 
ATOM     11  C   UNL     1      13.823  10.999  18.830  0.00  0.00    +0.085 C 
ATOM     12  C   UNL     1      14.658   7.812  19.182  0.00  0.00    -0.020 A 
ATOM     13  C   UNL     1      15.016  10.394  19.576  0.00  0.00    -0.021 A 
ATOM     14  C   UNL     1      15.400   6.733  19.620  0.00  0.00    +0.090 A 
ATOM     15  C   UNL     1      13.425   7.714  18.349  0.00  0.00    +0.067 C 
ATOM     16  CA  UNL     1      13.081   8.999  17.599  0.00  0.00    +0.168 C 
ATOM     19  C   UNL     1      17.337   9.454  20.980  0.00  0.00    +0.026 A 
ATOM     20  C   UNL     1      15.972  11.269  20.150  0.00  0.00    +0.006 A 
ATOM     21  C   UNL     1      17.094  10.814  20.841  0.00  0.00    +0.002 A 
ATOM     25  H   UNL     1      12.302   9.708  19.368  0.00  0.00    +0.123 HD
ENDROOT
BRANCH  16  22
ATOM      2  OXT UNL     1      11.038   7.879  16.953  0.00  0.00    -0.249 OA
ATOM     22  C   UNL     1      11.854   8.770  16.769  0.00  0.00    +0.322 C 
BRANCH  22   1
ATOM      1  O   UNL     1      11.769   9.689  15.777  0.00  0.00    -0.480 OA
ATOM     26  H   UNL     1      10.925  10.187  15.811  0.00  0.00    +0.295 HD
ENDBRANCH  22   1
ENDBRANCH  16  22
BRANCH   3   8
ATOM      8  C   UNL     1      17.461   6.361  20.957  0.00  0.00    +0.125 C 
BRANCH   8   5
ATOM      5  C   UNL     1      18.662   6.217  20.076  0.00  0.00    +0.009 C 
ATOM      6  C   UNL     1      19.592   5.059  20.287  0.00  0.00    +0.005 C 
ATOM      7  C   UNL     1      20.027   6.446  20.656  0.00  0.00    +0.005 C 
ENDBRANCH   8   5
ENDBRANCH   3   8
BRANCH  11  17
ATOM     17  C   UNL     1      13.154  12.143  19.615  0.00  0.00    +0.026 C 
BRANCH  17  18
ATOM     18  C   UNL     1      13.289  13.502  18.924  0.00  0.00    -0.015 C 
ATOM     23  C   UNL     1      14.015  13.319  17.589  0.00  0.00    +0.007 C 
ATOM     24  C   UNL     1      14.031  14.528  19.780  0.00  0.00    +0.007 C 
ENDBRANCH  17  18
ENDBRANCH  11  17
TORSDOF 6
ENDMDL
MODEL 10
REMARK VINA RESULT:      -5.7     27.904     29.589
REMARK  Name = 51138170
REMARK  8 active torsions:
REMARK  status: ('A' for Active; 'I' for Inactive)
REMARK    1  A    between atoms: O_1  and  C_22
REMARK    2  A    between atoms: N_3  and  C_8
REMARK    3  A    between atoms: C_5  and  C_8
REMARK    4  A    between atoms: C_11  and  C_17
REMARK    5  A    between atoms: CA_16  and  C_22
REMARK    6  A    between atoms: C_17  and  C_18
REMARK    7  A    between atoms: C_18  and  C_23
REMARK    8  A    between atoms: C_18  and  C_24
REMARK                            x       y       z     vdW  Elec       q    Type
REMARK                         _______ _______ _______ _____ _____    ______ ____
ROOT
ATOM      3  N   UNL     1      -5.480 -10.415  12.847  0.00  0.00    -0.346 N 
ATOM      4  N   UNL     1      -7.765  -9.937  17.325  0.00  0.00    -0.297 NA
ATOM      9  C   UNL     1      -5.792 -10.177  15.053  0.00  0.00    +0.008 A 
ATOM     10  C   UNL     1      -4.841 -10.459  14.064  0.00  0.00    +0.050 A 
ATOM     11  C   UNL     1      -6.324  -9.868  17.604  0.00  0.00    +0.085 C 
ATOM     12  C   UNL     1      -7.029  -9.921  14.367  0.00  0.00    -0.020 A 
ATOM     13  C   UNL     1      -5.398 -10.173  16.422  0.00  0.00    -0.021 A 
ATOM     14  C   UNL     1      -6.793 -10.087  13.016  0.00  0.00    +0.090 A 
ATOM     15  C   UNL     1      -8.345  -9.547  14.960  0.00  0.00    +0.067 C 
ATOM     16  CA  UNL     1      -8.247  -8.955  16.364  0.00  0.00    +0.168 C 
ATOM     19  C   UNL     1      -3.498 -10.722  14.341  0.00  0.00    +0.026 A 
ATOM     20  C   UNL     1      -4.022 -10.394  16.678  0.00  0.00    +0.006 A 
ATOM     21  C   UNL     1      -3.100 -10.672  15.670  0.00  0.00    +0.002 A 
ATOM     25  H   UNL     1      -8.038 -10.882  17.057  0.00  0.00    +0.123 HD
ENDROOT
BRANCH  16  22
ATOM      2  OXT UNL     1     -10.662  -9.031  16.388  0.00  0.00    -0.249 OA
ATOM     22  C   UNL     1      -9.618  -8.582  16.837  0.00  0.00    +0.322 C 
BRANCH  22   1
ATOM      1  O   UNL     1      -9.547  -7.672  17.839  0.00  0.00    -0.480 OA
ATOM     26  H   UNL     1      -9.561  -6.751  17.498  0.00  0.00    +0.295 HD
ENDBRANCH  22   1
ENDBRANCH  16  22
BRANCH   3   8
ATOM      8  C   UNL     1      -4.862 -10.659  11.562  0.00  0.00    +0.125 C 
BRANCH   8   5
ATOM      5  C   UNL     1      -4.143  -9.444  11.065  0.00  0.00    +0.009 C 
ATOM      6  C   UNL     1      -3.711  -9.382   9.629  0.00  0.00    +0.005 C 
ATOM      7  C   UNL     1      -2.687  -9.546  10.714  0.00  0.00    +0.005 C 
ENDBRANCH   8   5
ENDBRANCH   3   8
BRANCH  11  17
ATOM     17  C   UNL     1      -6.110 -10.831  18.786  0.00  0.00    +0.026 C 
BRANCH  17  18
ATOM     18  C   UNL     1      -6.768 -12.197  18.571  0.00  0.00    -0.015 C 
ATOM     23  C   UNL     1      -7.526 -12.597  19.840  0.00  0.00    +0.007 C 
ATOM     24  C   UNL     1      -5.760 -13.287  18.206  0.00  0.00    +0.007 C 
ENDBRANCH  17  18
ENDBRANCH  11  17
TORSDOF 6
ENDMDL
