MODEL 1
REMARK VINA RESULT:      -6.6      0.000      0.000
REMARK  Name = 11882033
REMARK  12 active torsions:
REMARK  status: ('A' for Active; 'I' for Inactive)
REMARK    1  A    between atoms: S_1  and  C_20
REMARK    2  A    between atoms: S_1  and  C_30
REMARK    3  A    between atoms: S_2  and  C_36
REMARK    4  A    between atoms: S_2  and  C_39
REMARK    5  A    between atoms: N_8  and  C_13
REMARK    6  A    between atoms: N_9  and  C_19
REMARK    7  A    between atoms: N_10  and  C_28
REMARK    8  A    between atoms: C_14  and  C_17
REMARK    9  A    between atoms: C_18  and  C_20
REMARK   10  A    between atoms: C_19  and  C_22
REMARK   11  A    between atoms: C_19  and  C_24
REMARK   12  A    between atoms: C_22  and  C_23
REMARK                            x       y       z     vdW  Elec       q    Type
REMARK                         _______ _______ _______ _____ _____    ______ ____
ROOT
ATOM      4  O   UNL     1      -6.271 -10.143  16.987  0.00  0.00    -0.275 OA
ATOM      7  N   UNL     1      -7.433 -10.563  15.029  0.00  0.00    -0.287 N 
ATOM     13  C   UNL     1      -8.241 -11.121  12.866  0.00  0.00    +0.094 C 
ATOM     14  C   UNL     1      -6.451 -11.469  14.451  0.00  0.00    +0.164 C 
ATOM     15  C   UNL     1      -7.166 -12.131  13.275  0.00  0.00    +0.055 C 
ATOM     16  C   UNL     1      -8.622 -10.455  14.185  0.00  0.00    +0.131 C 
ATOM     18  C   UNL     1      -7.290 -10.033  16.302  0.00  0.00    +0.226 C 
ENDROOT
BRANCH  13   8
ATOM      5  O   UNL     1      -9.587 -10.199  10.512  0.00  0.00    -0.253 OA
ATOM      8  N   UNL     1      -7.743 -10.166  11.908  0.00  0.00    -0.295 N 
ATOM     10  N   UNL     1      -7.737  -8.835  10.035  0.00  0.00    -0.269 N 
ATOM     21  C   UNL     1      -8.468  -9.767  10.777  0.00  0.00    +0.304 C 
ATOM     40  H   UNL     1      -6.799  -9.813  12.023  0.00  0.00    +0.151 HD
ATOM     42  H   UNL     1      -6.819  -8.583  10.394  0.00  0.00    +0.156 HD
BRANCH  10  28
ATOM     28  C   UNL     1      -8.115  -8.193   8.832  0.00  0.00    +0.036 A 
ATOM     34  C   UNL     1      -7.651  -8.674   7.608  0.00  0.00    +0.038 A 
ATOM     35  C   UNL     1      -8.952  -7.078   8.871  0.00  0.00    +0.023 A 
ATOM     36  C   UNL     1      -8.024  -8.041   6.423  0.00  0.00    +0.009 A 
ATOM     37  C   UNL     1      -9.326  -6.444   7.686  0.00  0.00    +0.003 A 
ATOM     38  C   UNL     1      -8.862  -6.926   6.462  0.00  0.00    +0.015 A 
BRANCH  36   2
ATOM      2  S   UNL     1      -7.434  -8.655   4.858  0.00  0.00    -0.129 S 
ATOM     39  C   UNL     1      -6.493 -10.121   5.368  0.00  0.00    +0.090 C 
ENDBRANCH  36   2
ENDBRANCH  10  28
ENDBRANCH  13   8
BRANCH  14  17
ATOM      3  O   UNL     1      -5.392  -9.628  13.362  0.00  0.00    -0.274 OA
ATOM      9  N   UNL     1      -4.067 -11.262  14.357  0.00  0.00    -0.302 N 
ATOM     17  C   UNL     1      -5.266 -10.671  13.997  0.00  0.00    +0.234 C 
ATOM     41  H   UNL     1      -4.085 -12.082  14.957  0.00  0.00    +0.150 HD
BRANCH   9  19
ATOM     19  C   UNL     1      -2.778 -10.705  14.018  0.00  0.00    +0.163 C 
BRANCH  19  24
ATOM      6  O   UNL     1      -0.985  -9.883  15.438  0.00  0.00    -0.274 OA
ATOM     12  N   UNL     1      -2.564 -11.273  16.359  0.00  0.00    -0.328 N 
ATOM     24  C   UNL     1      -1.993 -10.574  15.316  0.00  0.00    +0.231 C 
ATOM     44  H   UNL     1      -2.148 -11.260  17.284  0.00  0.00    +0.145 HD
ATOM     45  H   UNL     1      -3.412 -11.820  16.248  0.00  0.00    +0.145 HD
ENDBRANCH  19  24
BRANCH  19  22
ATOM     22  C   UNL     1      -2.013 -11.577  13.015  0.00  0.00    +0.069 C 
BRANCH  22  23
ATOM     11  N   UNL     1      -3.933 -13.045  10.246  0.00  0.00    -0.360 N 
ATOM     23  C   UNL     1      -2.815 -11.907  11.789  0.00  0.00    -0.020 A 
ATOM     25  C   UNL     1      -3.280 -10.988  10.808  0.00  0.00    +0.003 A 
ATOM     26  C   UNL     1      -3.232 -13.164  11.416  0.00  0.00    +0.087 A 
ATOM     27  C   UNL     1      -3.978 -11.727   9.851  0.00  0.00    +0.047 A 
ATOM     29  C   UNL     1      -3.174  -9.592  10.641  0.00  0.00    +0.010 A 
ATOM     31  C   UNL     1      -4.577 -11.139   8.732  0.00  0.00    +0.026 A 
ATOM     32  C   UNL     1      -3.769  -8.991   9.526  0.00  0.00    +0.001 A 
ATOM     33  C   UNL     1      -4.460  -9.754   8.587  0.00  0.00    +0.002 A 
ATOM     43  H   UNL     1      -4.356 -13.815   9.744  0.00  0.00    +0.165 HD
ENDBRANCH  22  23
ENDBRANCH  19  22
ENDBRANCH   9  19
ENDBRANCH  14  17
BRANCH  18  20
ATOM     20  C   UNL     1      -8.482  -9.274  16.829  0.00  0.00    +0.164 C 
BRANCH  20   1
ATOM      1  S   UNL     1      -9.265 -10.290  18.089  0.00  0.00    -0.155 S 
ATOM     30  C   UNL     1     -10.836  -9.401  18.227  0.00  0.00    +0.085 C 
ENDBRANCH  20   1
ENDBRANCH  18  20
TORSDOF 10
ENDMDL
MODEL 2
REMARK VINA RESULT:      -6.5      3.591      8.134
REMARK  Name = 11882033
REMARK  12 active torsions:
REMARK  status: ('A' for Active; 'I' for Inactive)
REMARK    1  A    between atoms: S_1  and  C_20
REMARK    2  A    between atoms: S_1  and  C_30
REMARK    3  A    between atoms: S_2  and  C_36
REMARK    4  A    between atoms: S_2  and  C_39
REMARK    5  A    between atoms: N_8  and  C_13
REMARK    6  A    between atoms: N_9  and  C_19
REMARK    7  A    between atoms: N_10  and  C_28
REMARK    8  A    between atoms: C_14  and  C_17
REMARK    9  A    between atoms: C_18  and  C_20
REMARK   10  A    between atoms: C_19  and  C_22
REMARK   11  A    between atoms: C_19  and  C_24
REMARK   12  A    between atoms: C_22  and  C_23
REMARK                            x       y       z     vdW  Elec       q    Type
REMARK                         _______ _______ _______ _____ _____    ______ ____
ROOT
ATOM      4  O   UNL     1      -9.310 -11.203  19.727  0.00  0.00    -0.275 OA
ATOM      7  N   UNL     1      -7.159 -11.679  19.018  0.00  0.00    -0.287 N 
ATOM     13  C   UNL     1      -4.963 -11.772  18.116  0.00  0.00    +0.094 C 
ATOM     14  C   UNL     1      -6.758 -10.299  18.785  0.00  0.00    +0.164 C 
ATOM     15  C   UNL     1      -5.241 -10.351  18.612  0.00  0.00    +0.055 C 
ATOM     16  C   UNL     1      -6.048 -12.603  18.796  0.00  0.00    +0.131 C 
ATOM     18  C   UNL     1      -8.395 -12.009  19.553  0.00  0.00    +0.226 C 
ENDROOT
BRANCH  13   8
ATOM      5  O   UNL     1      -3.274 -10.441  16.223  0.00  0.00    -0.253 OA
ATOM      8  N   UNL     1      -5.040 -11.864  16.679  0.00  0.00    -0.295 N 
ATOM     10  N   UNL     1      -4.483 -11.458  14.487  0.00  0.00    -0.269 N 
ATOM     21  C   UNL     1      -4.172 -11.177  15.820  0.00  0.00    +0.304 C 
ATOM     40  H   UNL     1      -5.797 -12.401  16.268  0.00  0.00    +0.151 HD
ATOM     42  H   UNL     1      -5.262 -12.091  14.323  0.00  0.00    +0.156 HD
BRANCH  10  28
ATOM     28  C   UNL     1      -3.846 -10.966  13.324  0.00  0.00    +0.036 A 
ATOM     34  C   UNL     1      -4.561 -10.191  12.410  0.00  0.00    +0.038 A 
ATOM     35  C   UNL     1      -2.502 -11.255  13.090  0.00  0.00    +0.023 A 
ATOM     36  C   UNL     1      -3.933  -9.706  11.264  0.00  0.00    +0.009 A 
ATOM     37  C   UNL     1      -1.873 -10.770  11.943  0.00  0.00    +0.003 A 
ATOM     38  C   UNL     1      -2.589  -9.996  11.030  0.00  0.00    +0.015 A 
BRANCH  36   2
ATOM      2  S   UNL     1      -4.846  -8.715  10.097  0.00  0.00    -0.129 S 
ATOM     39  C   UNL     1      -4.750  -9.731   8.596  0.00  0.00    +0.090 C 
ENDBRANCH  36   2
ENDBRANCH  10  28
ENDBRANCH  13   8
BRANCH  14  17
ATOM      3  O   UNL     1      -6.905  -9.870  16.442  0.00  0.00    -0.274 OA
ATOM      9  N   UNL     1      -8.681  -9.255  17.814  0.00  0.00    -0.302 N 
ATOM     17  C   UNL     1      -7.438  -9.801  17.546  0.00  0.00    +0.234 C 
ATOM     41  H   UNL     1      -9.057  -9.329  18.755  0.00  0.00    +0.150 HD
BRANCH   9  19
ATOM     19  C   UNL     1      -9.530  -8.683  16.795  0.00  0.00    +0.163 C 
BRANCH  19  24
ATOM      6  O   UNL     1     -10.248 -10.014  14.892  0.00  0.00    -0.274 OA
ATOM     12  N   UNL     1     -10.847 -10.700  17.001  0.00  0.00    -0.328 N 
ATOM     24  C   UNL     1     -10.245  -9.838  16.108  0.00  0.00    +0.231 C 
ATOM     44  H   UNL     1     -11.347 -11.520  16.676  0.00  0.00    +0.145 HD
ATOM     45  H   UNL     1     -10.815 -10.554  18.005  0.00  0.00    +0.145 HD
ENDBRANCH  19  24
BRANCH  19  22
ATOM     22  C   UNL     1     -10.548  -7.692  17.373  0.00  0.00    +0.069 C 
BRANCH  22  23
ATOM     11  N   UNL     1     -11.680  -5.452  14.687  0.00  0.00    -0.360 N 
ATOM     23  C   UNL     1     -11.265  -6.900  16.317  0.00  0.00    -0.020 A 
ATOM     25  C   UNL     1     -12.639  -7.009  15.965  0.00  0.00    +0.003 A 
ATOM     26  C   UNL     1     -10.702  -5.935  15.514  0.00  0.00    +0.087 A 
ATOM     27  C   UNL     1     -12.874  -6.089  14.940  0.00  0.00    +0.047 A 
ATOM     29  C   UNL     1     -13.711  -7.803  16.420  0.00  0.00    +0.010 A 
ATOM     31  C   UNL     1     -14.130  -5.923  14.347  0.00  0.00    +0.026 A 
ATOM     32  C   UNL     1     -14.973  -7.648  15.835  0.00  0.00    +0.001 A 
ATOM     33  C   UNL     1     -15.177  -6.722  14.814  0.00  0.00    +0.002 A 
ATOM     43  H   UNL     1     -11.545  -4.731  13.992  0.00  0.00    +0.165 HD
ENDBRANCH  22  23
ENDBRANCH  19  22
ENDBRANCH   9  19
ENDBRANCH  14  17
BRANCH  18  20
ATOM     20  C   UNL     1      -8.581 -13.461  19.914  0.00  0.00    +0.164 C 
BRANCH  20   1
ATOM      1  S   UNL     1      -9.919 -14.109  18.902  0.00  0.00    -0.155 S 
ATOM     30  C   UNL     1      -8.964 -14.561  17.433  0.00  0.00    +0.085 C 
ENDBRANCH  20   1
ENDBRANCH  18  20
TORSDOF 10
ENDMDL
MODEL 3
REMARK VINA RESULT:      -6.3     28.897     32.316
REMARK  Name = 11882033
REMARK  12 active torsions:
REMARK  status: ('A' for Active; 'I' for Inactive)
REMARK    1  A    between atoms: S_1  and  C_20
REMARK    2  A    between atoms: S_1  and  C_30
REMARK    3  A    between atoms: S_2  and  C_36
REMARK    4  A    between atoms: S_2  and  C_39
REMARK    5  A    between atoms: N_8  and  C_13
REMARK    6  A    between atoms: N_9  and  C_19
REMARK    7  A    between atoms: N_10  and  C_28
REMARK    8  A    between atoms: C_14  and  C_17
REMARK    9  A    between atoms: C_18  and  C_20
REMARK   10  A    between atoms: C_19  and  C_22
REMARK   11  A    between atoms: C_19  and  C_24
REMARK   12  A    between atoms: C_22  and  C_23
REMARK                            x       y       z     vdW  Elec       q    Type
REMARK                         _______ _______ _______ _____ _____    ______ ____
ROOT
ATOM      4  O   UNL     1      -8.724  11.783  32.838  0.00  0.00    -0.275 OA
ATOM      7  N   UNL     1      -8.161  10.705  34.807  0.00  0.00    -0.287 N 
ATOM     13  C   UNL     1      -7.269   9.892  36.853  0.00  0.00    +0.094 C 
ATOM     14  C   UNL     1      -7.383  11.797  35.371  0.00  0.00    +0.164 C 
ATOM     15  C   UNL     1      -7.173  11.419  36.836  0.00  0.00    +0.055 C 
ATOM     16  C   UNL     1      -8.272   9.588  35.744  0.00  0.00    +0.131 C 
ATOM     18  C   UNL     1      -8.841  10.826  33.605  0.00  0.00    +0.226 C 
ENDROOT
BRANCH  13   8
ATOM      5  O   UNL     1      -5.138   9.545  38.736  0.00  0.00    -0.253 OA
ATOM      8  N   UNL     1      -5.991   9.271  36.604  0.00  0.00    -0.295 N 
ATOM     10  N   UNL     1      -3.874   8.501  37.056  0.00  0.00    -0.269 N 
ATOM     21  C   UNL     1      -4.999   9.140  37.584  0.00  0.00    +0.304 C 
ATOM     40  H   UNL     1      -5.775   8.971  35.659  0.00  0.00    +0.151 HD
ATOM     42  H   UNL     1      -3.920   8.229  36.077  0.00  0.00    +0.156 HD
BRANCH  10  28
ATOM     28  C   UNL     1      -2.665   8.182  37.718  0.00  0.00    +0.036 A 
ATOM     34  C   UNL     1      -2.576   7.022  38.489  0.00  0.00    +0.038 A 
ATOM     35  C   UNL     1      -1.562   9.027  37.602  0.00  0.00    +0.023 A 
ATOM     36  C   UNL     1      -1.385   6.708  39.142  0.00  0.00    +0.009 A 
ATOM     37  C   UNL     1      -0.370   8.713  38.255  0.00  0.00    +0.003 A 
ATOM     38  C   UNL     1      -0.282   7.554  39.024  0.00  0.00    +0.015 A 
BRANCH  36   2
ATOM      2  S   UNL     1      -1.269   5.226  40.125  0.00  0.00    -0.129 S 
ATOM     39  C   UNL     1      -2.664   5.432  41.269  0.00  0.00    +0.090 C 
ENDBRANCH  36   2
ENDBRANCH  10  28
ENDBRANCH  13   8
BRANCH  14  17
ATOM      3  O   UNL     1      -5.117  11.191  34.928  0.00  0.00    -0.274 OA
ATOM      9  N   UNL     1      -6.111  12.856  33.641  0.00  0.00    -0.302 N 
ATOM     17  C   UNL     1      -6.081  11.892  34.635  0.00  0.00    +0.234 C 
ATOM     41  H   UNL     1      -6.991  13.317  33.431  0.00  0.00    +0.150 HD
BRANCH   9  19
ATOM     19  C   UNL     1      -4.975  13.161  32.801  0.00  0.00    +0.163 C 
BRANCH  19  24
ATOM      6  O   UNL     1      -5.225  14.203  30.621  0.00  0.00    -0.274 OA
ATOM     12  N   UNL     1      -6.249  12.181  30.995  0.00  0.00    -0.328 N 
ATOM     24  C   UNL     1      -5.491  13.270  31.374  0.00  0.00    +0.231 C 
ATOM     44  H   UNL     1      -6.643  12.121  30.063  0.00  0.00    +0.145 HD
ATOM     45  H   UNL     1      -6.439  11.405  31.621  0.00  0.00    +0.145 HD
ENDBRANCH  19  24
BRANCH  19  22
ATOM     22  C   UNL     1      -4.275  14.460  33.219  0.00  0.00    +0.069 C 
BRANCH  22  23
ATOM     11  N   UNL     1      -0.723  14.823  32.344  0.00  0.00    -0.360 N 
ATOM     23  C   UNL     1      -2.782  14.403  33.057  0.00  0.00    -0.020 A 
ATOM     25  C   UNL     1      -1.886  13.554  33.763  0.00  0.00    +0.003 A 
ATOM     26  C   UNL     1      -2.038  15.172  32.192  0.00  0.00    +0.087 A 
ATOM     27  C   UNL     1      -0.600  13.837  33.297  0.00  0.00    +0.047 A 
ATOM     29  C   UNL     1      -2.043  12.568  34.758  0.00  0.00    +0.010 A 
ATOM     31  C   UNL     1       0.539  13.182  33.777  0.00  0.00    +0.026 A 
ATOM     32  C   UNL     1      -0.913  11.904  35.247  0.00  0.00    +0.001 A 
ATOM     33  C   UNL     1       0.358  12.208  34.763  0.00  0.00    +0.002 A 
ATOM     43  H   UNL     1       0.047  15.231  31.830  0.00  0.00    +0.165 HD
ENDBRANCH  22  23
ENDBRANCH  19  22
ENDBRANCH   9  19
ENDBRANCH  14  17
BRANCH  18  20
ATOM     20  C   UNL     1      -9.757   9.680  33.255  0.00  0.00    +0.164 C 
BRANCH  20   1
ATOM      1  S   UNL     1     -11.315  10.377  32.690  0.00  0.00    -0.155 S 
ATOM     30  C   UNL     1     -11.621   9.277  31.286  0.00  0.00    +0.085 C 
ENDBRANCH  20   1
ENDBRANCH  18  20
TORSDOF 10
ENDMDL
MODEL 4
REMARK VINA RESULT:      -6.3      2.980      4.697
REMARK  Name = 11882033
REMARK  12 active torsions:
REMARK  status: ('A' for Active; 'I' for Inactive)
REMARK    1  A    between atoms: S_1  and  C_20
REMARK    2  A    between atoms: S_1  and  C_30
REMARK    3  A    between atoms: S_2  and  C_36
REMARK    4  A    between atoms: S_2  and  C_39
REMARK    5  A    between atoms: N_8  and  C_13
REMARK    6  A    between atoms: N_9  and  C_19
REMARK    7  A    between atoms: N_10  and  C_28
REMARK    8  A    between atoms: C_14  and  C_17
REMARK    9  A    between atoms: C_18  and  C_20
REMARK   10  A    between atoms: C_19  and  C_22
REMARK   11  A    between atoms: C_19  and  C_24
REMARK   12  A    between atoms: C_22  and  C_23
REMARK                            x       y       z     vdW  Elec       q    Type
REMARK                         _______ _______ _______ _____ _____    ______ ____
ROOT
ATOM      4  O   UNL     1      -9.806  -7.672  17.635  0.00  0.00    -0.275 OA
ATOM      7  N   UNL     1      -9.890  -8.897  15.672  0.00  0.00    -0.287 N 
ATOM     13  C   UNL     1      -9.761 -10.453  13.883  0.00  0.00    +0.094 C 
ATOM     14  C   UNL     1      -9.631 -10.193  16.281  0.00  0.00    +0.164 C 
ATOM     15  C   UNL     1      -9.962 -11.214  15.195  0.00  0.00    +0.055 C 
ATOM     16  C   UNL     1     -10.153  -9.022  14.239  0.00  0.00    +0.131 C 
ATOM     18  C   UNL     1     -10.035  -7.742  16.426  0.00  0.00    +0.226 C 
ENDROOT
BRANCH  13   8
ATOM      5  O   UNL     1      -8.783  -9.685  11.302  0.00  0.00    -0.253 OA
ATOM      8  N   UNL     1      -8.398 -10.536  13.418  0.00  0.00    -0.295 N 
ATOM     10  N   UNL     1      -6.627 -10.332  11.968  0.00  0.00    -0.269 N 
ATOM     21  C   UNL     1      -8.001 -10.138  12.135  0.00  0.00    +0.304 C 
ATOM     40  H   UNL     1      -7.705 -10.961  14.025  0.00  0.00    +0.151 HD
ATOM     42  H   UNL     1      -6.121 -10.720  12.761  0.00  0.00    +0.156 HD
BRANCH  10  28
ATOM     28  C   UNL     1      -5.843 -10.057  10.824  0.00  0.00    +0.036 A 
ATOM     34  C   UNL     1      -5.888 -10.914   9.724  0.00  0.00    +0.038 A 
ATOM     35  C   UNL     1      -5.025  -8.928  10.794  0.00  0.00    +0.023 A 
ATOM     36  C   UNL     1      -5.115 -10.643   8.596  0.00  0.00    +0.009 A 
ATOM     37  C   UNL     1      -4.251  -8.655   9.665  0.00  0.00    +0.003 A 
ATOM     38  C   UNL     1      -4.296  -9.513   8.567  0.00  0.00    +0.015 A 
BRANCH  36   2
ATOM      2  S   UNL     1      -5.172 -11.736   7.190  0.00  0.00    -0.129 S 
ATOM     39  C   UNL     1      -6.847 -12.424   7.325  0.00  0.00    +0.090 C 
ENDBRANCH  36   2
ENDBRANCH  10  28
ENDBRANCH  13   8
BRANCH  14  17
ATOM      3  O   UNL     1      -7.345  -9.517  16.186  0.00  0.00    -0.274 OA
ATOM      9  N   UNL     1      -7.949 -11.249  17.618  0.00  0.00    -0.302 N 
ATOM     17  C   UNL     1      -8.188 -10.260  16.679  0.00  0.00    +0.234 C 
ATOM     41  H   UNL     1      -8.739 -11.747  18.018  0.00  0.00    +0.150 HD
BRANCH   9  19
ATOM     19  C   UNL     1      -6.635 -11.534  18.149  0.00  0.00    +0.163 C 
BRANCH  19  24
ATOM      6  O   UNL     1      -6.301 -11.015  20.499  0.00  0.00    -0.274 OA
ATOM     12  N   UNL     1      -7.601 -12.827  19.949  0.00  0.00    -0.328 N 
ATOM     24  C   UNL     1      -6.796 -11.748  19.647  0.00  0.00    +0.231 C 
ATOM     44  H   UNL     1      -7.801 -13.073  20.912  0.00  0.00    +0.145 HD
ATOM     45  H   UNL     1      -8.023 -13.409  19.233  0.00  0.00    +0.145 HD
ENDBRANCH  19  24
BRANCH  19  22
ATOM     22  C   UNL     1      -5.999 -12.767  17.496  0.00  0.00    +0.069 C 
BRANCH  22  23
ATOM     11  N   UNL     1      -5.135 -12.425  13.939  0.00  0.00    -0.360 N 
ATOM     23  C   UNL     1      -5.419 -12.483  16.140  0.00  0.00    -0.020 A 
ATOM     25  C   UNL     1      -4.223 -11.763  15.864  0.00  0.00    +0.003 A 
ATOM     26  C   UNL     1      -5.957 -12.877  14.937  0.00  0.00    +0.087 A 
ATOM     27  C   UNL     1      -4.068 -11.741  14.477  0.00  0.00    +0.047 A 
ATOM     29  C   UNL     1      -3.254 -11.124  16.664  0.00  0.00    +0.010 A 
ATOM     31  C   UNL     1      -2.989 -11.112  13.846  0.00  0.00    +0.026 A 
ATOM     32  C   UNL     1      -2.169 -10.490  16.047  0.00  0.00    +0.001 A 
ATOM     33  C   UNL     1      -2.041 -10.485  14.659  0.00  0.00    +0.002 A 
ATOM     43  H   UNL     1      -5.290 -12.574  12.951  0.00  0.00    +0.165 HD
ENDBRANCH  22  23
ENDBRANCH  19  22
ENDBRANCH   9  19
ENDBRANCH  14  17
BRANCH  18  20
ATOM     20  C   UNL     1     -10.493  -6.522  15.668  0.00  0.00    +0.164 C 
BRANCH  20   1
ATOM      1  S   UNL     1     -12.286  -6.444  15.787  0.00  0.00    -0.155 S 
ATOM     30  C   UNL     1     -12.624  -5.485  14.290  0.00  0.00    +0.085 C 
ENDBRANCH  20   1
ENDBRANCH  18  20
TORSDOF 10
ENDMDL
MODEL 5
REMARK VINA RESULT:      -6.3     24.188     26.811
REMARK  Name = 11882033
REMARK  12 active torsions:
REMARK  status: ('A' for Active; 'I' for Inactive)
REMARK    1  A    between atoms: S_1  and  C_20
REMARK    2  A    between atoms: S_1  and  C_30
REMARK    3  A    between atoms: S_2  and  C_36
REMARK    4  A    between atoms: S_2  and  C_39
REMARK    5  A    between atoms: N_8  and  C_13
REMARK    6  A    between atoms: N_9  and  C_19
REMARK    7  A    between atoms: N_10  and  C_28
REMARK    8  A    between atoms: C_14  and  C_17
REMARK    9  A    between atoms: C_18  and  C_20
REMARK   10  A    between atoms: C_19  and  C_22
REMARK   11  A    between atoms: C_19  and  C_24
REMARK   12  A    between atoms: C_22  and  C_23
REMARK                            x       y       z     vdW  Elec       q    Type
REMARK                         _______ _______ _______ _____ _____    ______ ____
ROOT
ATOM      4  O   UNL     1      15.734   6.754   4.028  0.00  0.00    -0.275 OA
ATOM      7  N   UNL     1      14.651   8.201   5.474  0.00  0.00    -0.287 N 
ATOM     13  C   UNL     1      13.187   9.456   6.862  0.00  0.00    +0.094 C 
ATOM     14  C   UNL     1      13.494   7.352   5.715  0.00  0.00    +0.164 C 
ATOM     15  C   UNL     1      12.782   7.981   6.910  0.00  0.00    +0.055 C 
ATOM     16  C   UNL     1      14.600   9.416   6.286  0.00  0.00    +0.131 C 
ATOM     18  C   UNL     1      15.725   7.786   4.701  0.00  0.00    +0.226 C 
ENDROOT
BRANCH  13   8
ATOM      5  O   UNL     1      10.461  10.114   7.442  0.00  0.00    -0.253 OA
ATOM      8  N   UNL     1      12.294  10.231   6.038  0.00  0.00    -0.295 N 
ATOM     10  N   UNL     1      10.349  11.278   5.407  0.00  0.00    -0.269 N 
ATOM     21  C   UNL     1      10.969  10.509   6.395  0.00  0.00    +0.304 C 
ATOM     40  H   UNL     1      12.621  10.538   5.127  0.00  0.00    +0.151 HD
ATOM     42  H   UNL     1      10.913  11.522   4.596  0.00  0.00    +0.156 HD
BRANCH  10  28
ATOM     28  C   UNL     1       9.020  11.765   5.390  0.00  0.00    +0.036 A 
ATOM     34  C   UNL     1       8.040  11.093   4.659  0.00  0.00    +0.038 A 
ATOM     35  C   UNL     1       8.690  12.916   6.105  0.00  0.00    +0.023 A 
ATOM     36  C   UNL     1       6.731  11.573   4.642  0.00  0.00    +0.009 A 
ATOM     37  C   UNL     1       7.380  13.396   6.088  0.00  0.00    +0.003 A 
ATOM     38  C   UNL     1       6.401  12.725   5.357  0.00  0.00    +0.015 A 
BRANCH  36   2
ATOM      2  S   UNL     1       5.478  10.715   3.710  0.00  0.00    -0.129 S 
ATOM     39  C   UNL     1       6.480   9.761   2.535  0.00  0.00    +0.090 C 
ENDBRANCH  36   2
ENDBRANCH  10  28
ENDBRANCH  13   8
BRANCH  14  17
ATOM      3  O   UNL     1      12.452   8.376   3.828  0.00  0.00    -0.274 OA
ATOM      9  N   UNL     1      12.063   6.120   4.242  0.00  0.00    -0.302 N 
ATOM     17  C   UNL     1      12.628   7.358   4.491  0.00  0.00    +0.234 C 
ATOM     41  H   UNL     1      12.348   5.327   4.811  0.00  0.00    +0.150 HD
BRANCH   9  19
ATOM     19  C   UNL     1      11.169   5.866   3.136  0.00  0.00    +0.163 C 
BRANCH  19  24
ATOM      6  O   UNL     1      11.069   3.859   1.770  0.00  0.00    -0.274 OA
ATOM     12  N   UNL     1      13.130   4.718   2.310  0.00  0.00    -0.328 N 
ATOM     24  C   UNL     1      11.751   4.701   2.349  0.00  0.00    +0.231 C 
ATOM     44  H   UNL     1      13.645   4.004   1.807  0.00  0.00    +0.145 HD
ATOM     45  H   UNL     1      13.679   5.435   2.774  0.00  0.00    +0.145 HD
ENDBRANCH  19  24
BRANCH  19  22
ATOM     22  C   UNL     1       9.744   5.540   3.602  0.00  0.00    +0.069 C 
BRANCH  22  23
ATOM     11  N   UNL     1       8.571   7.894   6.170  0.00  0.00    -0.360 N 
ATOM     23  C   UNL     1       9.340   6.296   4.835  0.00  0.00    -0.020 A 
ATOM     25  C   UNL     1       9.443   5.841   6.179  0.00  0.00    +0.003 A 
ATOM     26  C   UNL     1       8.800   7.561   4.862  0.00  0.00    +0.087 A 
ATOM     27  C   UNL     1       8.954   6.862   6.997  0.00  0.00    +0.047 A 
ATOM     29  C   UNL     1       9.908   4.654   6.782  0.00  0.00    +0.010 A 
ATOM     31  C   UNL     1       8.906   6.756   8.391  0.00  0.00    +0.026 A 
ATOM     32  C   UNL     1       9.865   4.534   8.176  0.00  0.00    +0.001 A 
ATOM     33  C   UNL     1       9.371   5.570   8.966  0.00  0.00    +0.002 A 
ATOM     43  H   UNL     1       8.177   8.771   6.483  0.00  0.00    +0.165 HD
ENDBRANCH  22  23
ENDBRANCH  19  22
ENDBRANCH   9  19
ENDBRANCH  14  17
BRANCH  18  20
ATOM     20  C   UNL     1      16.925   8.698   4.711  0.00  0.00    +0.164 C 
BRANCH  20   1
ATOM      1  S   UNL     1      17.151   9.323   3.040  0.00  0.00    -0.155 S 
ATOM     30  C   UNL     1      16.210  10.862   3.187  0.00  0.00    +0.085 C 
ENDBRANCH  20   1
ENDBRANCH  18  20
TORSDOF 10
ENDMDL
MODEL 6
REMARK VINA RESULT:      -6.2     23.572     27.592
REMARK  Name = 11882033
REMARK  12 active torsions:
REMARK  status: ('A' for Active; 'I' for Inactive)
REMARK    1  A    between atoms: S_1  and  C_20
REMARK    2  A    between atoms: S_1  and  C_30
REMARK    3  A    between atoms: S_2  and  C_36
REMARK    4  A    between atoms: S_2  and  C_39
REMARK    5  A    between atoms: N_8  and  C_13
REMARK    6  A    between atoms: N_9  and  C_19
REMARK    7  A    between atoms: N_10  and  C_28
REMARK    8  A    between atoms: C_14  and  C_17
REMARK    9  A    between atoms: C_18  and  C_20
REMARK   10  A    between atoms: C_19  and  C_22
REMARK   11  A    between atoms: C_19  and  C_24
REMARK   12  A    between atoms: C_22  and  C_23
REMARK                            x       y       z     vdW  Elec       q    Type
REMARK                         _______ _______ _______ _____ _____    ______ ____
ROOT
ATOM      4  O   UNL     1     -12.317   7.330  36.435  0.00  0.00    -0.275 OA
ATOM      7  N   UNL     1     -12.472   9.051  34.896  0.00  0.00    -0.287 N 
ATOM     13  C   UNL     1     -12.909  10.558  33.112  0.00  0.00    +0.094 C 
ATOM     14  C   UNL     1     -13.734   8.627  34.308  0.00  0.00    +0.164 C 
ATOM     15  C   UNL     1     -14.199   9.815  33.468  0.00  0.00    +0.055 C 
ATOM     16  C   UNL     1     -12.016  10.318  34.326  0.00  0.00    +0.131 C 
ATOM     18  C   UNL     1     -11.905   8.398  35.980  0.00  0.00    +0.226 C 
ENDROOT
BRANCH  13   8
ATOM      5  O   UNL     1     -13.251  11.605  30.468  0.00  0.00    -0.253 OA
ATOM      8  N   UNL     1     -12.314  10.050  31.900  0.00  0.00    -0.295 N 
ATOM     10  N   UNL     1     -11.830   9.921  29.658  0.00  0.00    -0.269 N 
ATOM     21  C   UNL     1     -12.533  10.623  30.641  0.00  0.00    +0.304 C 
ATOM     40  H   UNL     1     -11.761   9.200  31.953  0.00  0.00    +0.151 HD
ATOM     42  H   UNL     1     -11.279   9.124  29.971  0.00  0.00    +0.156 HD
BRANCH  10  28
ATOM     28  C   UNL     1     -11.787  10.180  28.268  0.00  0.00    +0.036 A 
ATOM     34  C   UNL     1     -12.973  10.282  27.540  0.00  0.00    +0.038 A 
ATOM     35  C   UNL     1     -10.560  10.334  27.625  0.00  0.00    +0.023 A 
ATOM     36  C   UNL     1     -12.932  10.537  26.170  0.00  0.00    +0.009 A 
ATOM     37  C   UNL     1     -10.517  10.590  26.254  0.00  0.00    +0.003 A 
ATOM     38  C   UNL     1     -11.703  10.691  25.527  0.00  0.00    +0.015 A 
BRANCH  36   2
ATOM      2  S   UNL     1     -14.446  10.669  25.240  0.00  0.00    -0.129 S 
ATOM     39  C   UNL     1     -13.893  10.222  23.570  0.00  0.00    +0.090 C 
ENDBRANCH  36   2
ENDBRANCH  10  28
ENDBRANCH  13   8
BRANCH  14  17
ATOM      3  O   UNL     1     -12.826   7.469  32.429  0.00  0.00    -0.274 OA
ATOM      9  N   UNL     1     -14.108   6.287  33.970  0.00  0.00    -0.302 N 
ATOM     17  C   UNL     1     -13.489   7.415  33.461  0.00  0.00    +0.234 C 
ATOM     41  H   UNL     1     -14.560   6.342  34.878  0.00  0.00    +0.150 HD
BRANCH   9  19
ATOM     19  C   UNL     1     -14.046   4.993  33.329  0.00  0.00    +0.163 C 
BRANCH  19  24
ATOM      6  O   UNL     1     -14.547   2.759  34.140  0.00  0.00    -0.274 OA
ATOM     12  N   UNL     1     -15.008   4.550  35.502  0.00  0.00    -0.328 N 
ATOM     24  C   UNL     1     -14.564   3.972  34.331  0.00  0.00    +0.231 C 
ATOM     44  H   UNL     1     -15.368   3.981  36.260  0.00  0.00    +0.145 HD
ATOM     45  H   UNL     1     -14.993   5.554  35.654  0.00  0.00    +0.145 HD
ENDBRANCH  19  24
BRANCH  19  22
ATOM     22  C   UNL     1     -14.872   4.944  32.037  0.00  0.00    +0.069 C 
BRANCH  22  23
ATOM     11  N   UNL     1     -13.407   2.147  30.155  0.00  0.00    -0.360 N 
ATOM     23  C   UNL     1     -14.540   3.763  31.170  0.00  0.00    -0.020 A 
ATOM     25  C   UNL     1     -15.445   3.032  30.352  0.00  0.00    +0.003 A 
ATOM     26  C   UNL     1     -13.295   3.195  31.028  0.00  0.00    +0.087 A 
ATOM     27  C   UNL     1     -14.710   2.024  29.726  0.00  0.00    +0.047 A 
ATOM     29  C   UNL     1     -16.825   3.131  30.082  0.00  0.00    +0.010 A 
ATOM     31  C   UNL     1     -15.286   1.107  28.841  0.00  0.00    +0.026 A 
ATOM     32  C   UNL     1     -17.416   2.220  29.199  0.00  0.00    +0.001 A 
ATOM     33  C   UNL     1     -16.656   1.224  28.588  0.00  0.00    +0.002 A 
ATOM     43  H   UNL     1     -12.644   1.550  29.867  0.00  0.00    +0.165 HD
ENDBRANCH  22  23
ENDBRANCH  19  22
ENDBRANCH   9  19
ENDBRANCH  14  17
BRANCH  18  20
ATOM     20  C   UNL     1     -10.705   9.074  36.593  0.00  0.00    +0.164 C 
BRANCH  20   1
ATOM      1  S   UNL     1     -10.205   8.108  38.025  0.00  0.00    -0.155 S 
ATOM     30  C   UNL     1      -9.356   9.407  38.956  0.00  0.00    +0.085 C 
ENDBRANCH  20   1
ENDBRANCH  18  20
TORSDOF 10
ENDMDL
MODEL 7
REMARK VINA RESULT:      -6.2     26.042     28.749
REMARK  Name = 11882033
REMARK  12 active torsions:
REMARK  status: ('A' for Active; 'I' for Inactive)
REMARK    1  A    between atoms: S_1  and  C_20
REMARK    2  A    between atoms: S_1  and  C_30
REMARK    3  A    between atoms: S_2  and  C_36
REMARK    4  A    between atoms: S_2  and  C_39
REMARK    5  A    between atoms: N_8  and  C_13
REMARK    6  A    between atoms: N_9  and  C_19
REMARK    7  A    between atoms: N_10  and  C_28
REMARK    8  A    between atoms: C_14  and  C_17
REMARK    9  A    between atoms: C_18  and  C_20
REMARK   10  A    between atoms: C_19  and  C_22
REMARK   11  A    between atoms: C_19  and  C_24
REMARK   12  A    between atoms: C_22  and  C_23
REMARK                            x       y       z     vdW  Elec       q    Type
REMARK                         _______ _______ _______ _____ _____    ______ ____
ROOT
ATOM      4  O   UNL     1      18.895   9.536   7.005  0.00  0.00    -0.275 OA
ATOM      7  N   UNL     1      18.248   8.835   4.896  0.00  0.00    -0.287 N 
ATOM     13  C   UNL     1      17.200   8.286   2.836  0.00  0.00    +0.094 C 
ATOM     14  C   UNL     1      17.089   9.709   4.785  0.00  0.00    +0.164 C 
ATOM     15  C   UNL     1      16.683   9.645   3.314  0.00  0.00    +0.055 C 
ATOM     16  C   UNL     1      18.464   8.076   3.665  0.00  0.00    +0.131 C 
ATOM     18  C   UNL     1      19.109   8.883   5.982  0.00  0.00    +0.226 C 
ENDROOT
BRANCH  13   8
ATOM      5  O   UNL     1      14.937   7.672   1.191  0.00  0.00    -0.253 OA
ATOM      8  N   UNL     1      16.235   7.237   3.054  0.00  0.00    -0.295 N 
ATOM     10  N   UNL     1      14.390   5.926   2.661  0.00  0.00    -0.269 N 
ATOM     21  C   UNL     1      15.152   7.002   2.198  0.00  0.00    +0.304 C 
ATOM     40  H   UNL     1      16.307   6.682   3.901  0.00  0.00    +0.151 HD
ATOM     42  H   UNL     1      14.706   5.477   3.517  0.00  0.00    +0.156 HD
BRANCH  10  28
ATOM     28  C   UNL     1      13.222   5.376   2.082  0.00  0.00    +0.036 A 
ATOM     34  C   UNL     1      13.306   4.652   0.893  0.00  0.00    +0.038 A 
ATOM     35  C   UNL     1      11.986   5.559   2.701  0.00  0.00    +0.023 A 
ATOM     36  C   UNL     1      12.154   4.111   0.323  0.00  0.00    +0.009 A 
ATOM     37  C   UNL     1      10.833   5.018   2.132  0.00  0.00    +0.003 A 
ATOM     38  C   UNL     1      10.917   4.294   0.943  0.00  0.00    +0.015 A 
BRANCH  36   2
ATOM      2  S   UNL     1      12.260   3.184  -1.195  0.00  0.00    -0.129 S 
ATOM     39  C   UNL     1      13.491   4.139  -2.126  0.00  0.00    +0.090 C 
ENDBRANCH  36   2
ENDBRANCH  10  28
ENDBRANCH  13   8
BRANCH  14  17
ATOM      3  O   UNL     1      16.065   8.074   6.189  0.00  0.00    -0.274 OA
ATOM      9  N   UNL     1      14.966  10.092   5.823  0.00  0.00    -0.302 N 
ATOM     17  C   UNL     1      16.005   9.189   5.680  0.00  0.00    +0.234 C 
ATOM     41  H   UNL     1      15.064  11.021   5.422  0.00  0.00    +0.150 HD
BRANCH   9  19
ATOM     19  C   UNL     1      13.787   9.823   6.615  0.00  0.00    +0.163 C 
BRANCH  19  24
ATOM      6  O   UNL     1      13.791  12.227   6.971  0.00  0.00    -0.274 OA
ATOM     12  N   UNL     1      12.622  10.902   8.438  0.00  0.00    -0.328 N 
ATOM     24  C   UNL     1      13.434  11.112   7.342  0.00  0.00    +0.231 C 
ATOM     44  H   UNL     1      12.301  11.679   9.004  0.00  0.00    +0.145 HD
ATOM     45  H   UNL     1      12.314   9.976   8.718  0.00  0.00    +0.145 HD
ENDBRANCH  19  24
BRANCH  19  22
ATOM     22  C   UNL     1      12.606   9.349   5.759  0.00  0.00    +0.069 C 
BRANCH  22  23
ATOM     11  N   UNL     1      11.979   5.972   7.067  0.00  0.00    -0.360 N 
ATOM     23  C   UNL     1      12.103   7.989   6.150  0.00  0.00    -0.020 A 
ATOM     25  C   UNL     1      10.864   7.402   5.768  0.00  0.00    +0.003 A 
ATOM     26  C   UNL     1      12.766   7.086   6.948  0.00  0.00    +0.087 A 
ATOM     27  C   UNL     1      10.812   6.137   6.357  0.00  0.00    +0.047 A 
ATOM     29  C   UNL     1       9.779   7.826   4.976  0.00  0.00    +0.010 A 
ATOM     31  C   UNL     1       9.725   5.272   6.192  0.00  0.00    +0.026 A 
ATOM     32  C   UNL     1       8.684   6.971   4.802  0.00  0.00    +0.001 A 
ATOM     33  C   UNL     1       8.659   5.714   5.402  0.00  0.00    +0.002 A 
ATOM     43  H   UNL     1      12.221   5.147   7.599  0.00  0.00    +0.165 HD
ENDBRANCH  22  23
ENDBRANCH  19  22
ENDBRANCH   9  19
ENDBRANCH  14  17
BRANCH  18  20
ATOM     20  C   UNL     1      20.364   8.057   5.855  0.00  0.00    +0.164 C 
BRANCH  20   1
ATOM      1  S   UNL     1      21.764   9.186   5.847  0.00  0.00    -0.155 S 
ATOM     30  C   UNL     1      22.083   9.223   4.066  0.00  0.00    +0.085 C 
ENDBRANCH  20   1
ENDBRANCH  18  20
TORSDOF 10
ENDMDL
MODEL 8
REMARK VINA RESULT:      -6.2      3.582      6.339
REMARK  Name = 11882033
REMARK  12 active torsions:
REMARK  status: ('A' for Active; 'I' for Inactive)
REMARK    1  A    between atoms: S_1  and  C_20
REMARK    2  A    between atoms: S_1  and  C_30
REMARK    3  A    between atoms: S_2  and  C_36
REMARK    4  A    between atoms: S_2  and  C_39
REMARK    5  A    between atoms: N_8  and  C_13
REMARK    6  A    between atoms: N_9  and  C_19
REMARK    7  A    between atoms: N_10  and  C_28
REMARK    8  A    between atoms: C_14  and  C_17
REMARK    9  A    between atoms: C_18  and  C_20
REMARK   10  A    between atoms: C_19  and  C_22
REMARK   11  A    between atoms: C_19  and  C_24
REMARK   12  A    between atoms: C_22  and  C_23
REMARK                            x       y       z     vdW  Elec       q    Type
REMARK                         _______ _______ _______ _____ _____    ______ ____
ROOT
ATOM      4  O   UNL     1      -4.600 -12.885   8.648  0.00  0.00    -0.275 OA
ATOM      7  N   UNL     1      -6.190 -11.510   7.678  0.00  0.00    -0.287 N 
ATOM     13  C   UNL     1      -7.540  -9.782   6.764  0.00  0.00    +0.094 C 
ATOM     14  C   UNL     1      -5.290 -10.404   7.387  0.00  0.00    +0.164 C 
ATOM     15  C   UNL     1      -6.072  -9.494   6.442  0.00  0.00    +0.055 C 
ATOM     16  C   UNL     1      -7.534 -11.256   7.160  0.00  0.00    +0.131 C 
ATOM     18  C   UNL     1      -5.742 -12.705   8.220  0.00  0.00    +0.226 C 
ENDROOT
BRANCH  13   8
ATOM      5  O   UNL     1      -9.442  -7.653   6.531  0.00  0.00    -0.253 OA
ATOM      8  N   UNL     1      -8.030  -8.943   7.830  0.00  0.00    -0.295 N 
ATOM     10  N   UNL     1      -9.249  -7.279   8.840  0.00  0.00    -0.269 N 
ATOM     21  C   UNL     1      -8.964  -7.919   7.631  0.00  0.00    +0.304 C 
ATOM     40  H   UNL     1      -7.632  -9.058   8.757  0.00  0.00    +0.151 HD
ATOM     42  H   UNL     1      -8.763  -7.622   9.665  0.00  0.00    +0.156 HD
BRANCH  10  28
ATOM     28  C   UNL     1     -10.137  -6.200   9.063  0.00  0.00    +0.036 A 
ATOM     34  C   UNL     1     -11.424  -6.443   9.543  0.00  0.00    +0.038 A 
ATOM     35  C   UNL     1      -9.725  -4.893   8.803  0.00  0.00    +0.023 A 
ATOM     36  C   UNL     1     -12.299  -5.380   9.763  0.00  0.00    +0.009 A 
ATOM     37  C   UNL     1     -10.601  -3.829   9.023  0.00  0.00    +0.003 A 
ATOM     38  C   UNL     1     -11.887  -4.072   9.503  0.00  0.00    +0.015 A 
BRANCH  36   2
ATOM      2  S   UNL     1     -13.943  -5.688  10.378  0.00  0.00    -0.129 S 
ATOM     39  C   UNL     1     -14.438  -4.039  10.952  0.00  0.00    +0.090 C 
ENDBRANCH  36   2
ENDBRANCH  10  28
ENDBRANCH  13   8
BRANCH  14  17
ATOM      3  O   UNL     1      -4.125  -8.800   8.716  0.00  0.00    -0.274 OA
ATOM      9  N   UNL     1      -5.653 -10.221   9.747  0.00  0.00    -0.302 N 
ATOM     17  C   UNL     1      -4.952  -9.706   8.670  0.00  0.00    +0.234 C 
ATOM     41  H   UNL     1      -6.375 -10.915   9.575  0.00  0.00    +0.150 HD
BRANCH   9  19
ATOM     19  C   UNL     1      -5.491  -9.739  11.099  0.00  0.00    +0.163 C 
BRANCH  19  24
ATOM      6  O   UNL     1      -7.819  -9.106  10.803  0.00  0.00    -0.274 OA
ATOM     12  N   UNL     1      -6.851  -8.797  12.862  0.00  0.00    -0.328 N 
ATOM     24  C   UNL     1      -6.836  -9.175  11.536  0.00  0.00    +0.231 C 
ATOM     44  H   UNL     1      -7.690  -8.416  13.286  0.00  0.00    +0.145 HD
ATOM     45  H   UNL     1      -6.037  -8.883  13.463  0.00  0.00    +0.145 HD
ENDBRANCH  19  24
BRANCH  19  22
ATOM     22  C   UNL     1      -5.035 -10.843  12.060  0.00  0.00    +0.069 C 
BRANCH  22  23
ATOM     11  N   UNL     1      -1.473 -10.197  12.697  0.00  0.00    -0.360 N 
ATOM     23  C   UNL     1      -3.649 -10.623  12.595  0.00  0.00    -0.020 A 
ATOM     25  C   UNL     1      -3.246 -10.691  13.958  0.00  0.00    +0.003 A 
ATOM     26  C   UNL     1      -2.537 -10.318  11.844  0.00  0.00    +0.087 A 
ATOM     27  C   UNL     1      -1.877 -10.420  13.995  0.00  0.00    +0.047 A 
ATOM     29  C   UNL     1      -3.916 -10.958  15.169  0.00  0.00    +0.010 A 
ATOM     31  C   UNL     1      -1.141 -10.403  15.185  0.00  0.00    +0.026 A 
ATOM     32  C   UNL     1      -3.193 -10.944  16.367  0.00  0.00    +0.001 A 
ATOM     33  C   UNL     1      -1.827 -10.670  16.373  0.00  0.00    +0.002 A 
ATOM     43  H   UNL     1      -0.527  -9.977  12.415  0.00  0.00    +0.165 HD
ENDBRANCH  22  23
ENDBRANCH  19  22
ENDBRANCH   9  19
ENDBRANCH  14  17
BRANCH  18  20
ATOM     20  C   UNL     1      -6.759 -13.816   8.278  0.00  0.00    +0.164 C 
BRANCH  20   1
ATOM      1  S   UNL     1      -6.951 -14.293  10.002  0.00  0.00    -0.155 S 
ATOM     30  C   UNL     1      -7.941 -12.889  10.571  0.00  0.00    +0.085 C 
ENDBRANCH  20   1
ENDBRANCH  18  20
TORSDOF 10
ENDMDL
MODEL 9
REMARK VINA RESULT:      -6.1     29.285     32.967
REMARK  Name = 11882033
REMARK  12 active torsions:
REMARK  status: ('A' for Active; 'I' for Inactive)
REMARK    1  A    between atoms: S_1  and  C_20
REMARK    2  A    between atoms: S_1  and  C_30
REMARK    3  A    between atoms: S_2  and  C_36
REMARK    4  A    between atoms: S_2  and  C_39
REMARK    5  A    between atoms: N_8  and  C_13
REMARK    6  A    between atoms: N_9  and  C_19
REMARK    7  A    between atoms: N_10  and  C_28
REMARK    8  A    between atoms: C_14  and  C_17
REMARK    9  A    between atoms: C_18  and  C_20
REMARK   10  A    between atoms: C_19  and  C_22
REMARK   11  A    between atoms: C_19  and  C_24
REMARK   12  A    between atoms: C_22  and  C_23
REMARK                            x       y       z     vdW  Elec       q    Type
REMARK                         _______ _______ _______ _____ _____    ______ ____
ROOT
ATOM      4  O   UNL     1      23.677   8.442  20.813  0.00  0.00    -0.275 OA
ATOM      7  N   UNL     1      21.496   8.788  21.509  0.00  0.00    -0.287 N 
ATOM     13  C   UNL     1      19.260   8.719  22.307  0.00  0.00    +0.094 C 
ATOM     14  C   UNL     1      21.389   7.576  22.308  0.00  0.00    +0.164 C 
ATOM     15  C   UNL     1      20.117   7.757  23.133  0.00  0.00    +0.055 C 
ATOM     16  C   UNL     1      20.291   9.608  21.618  0.00  0.00    +0.131 C 
ATOM     18  C   UNL     1      22.678   9.160  20.886  0.00  0.00    +0.226 C 
ENDROOT
BRANCH  13   8
ATOM      5  O   UNL     1      16.449   9.079  21.889  0.00  0.00    -0.253 OA
ATOM      8  N   UNL     1      18.434   8.019  21.355  0.00  0.00    -0.295 N 
ATOM     10  N   UNL     1      16.525   7.433  20.218  0.00  0.00    -0.269 N 
ATOM     21  C   UNL     1      17.060   8.255  21.213  0.00  0.00    +0.304 C 
ATOM     40  H   UNL     1      18.853   7.275  20.806  0.00  0.00    +0.151 HD
ATOM     42  H   UNL     1      17.171   6.801  19.751  0.00  0.00    +0.156 HD
BRANCH  10  28
ATOM     28  C   UNL     1      15.184   7.367  19.773  0.00  0.00    +0.036 A 
ATOM     34  C   UNL     1      14.179   6.946  20.645  0.00  0.00    +0.038 A 
ATOM     35  C   UNL     1      14.865   7.724  18.464  0.00  0.00    +0.023 A 
ATOM     36  C   UNL     1      12.857   6.881  20.208  0.00  0.00    +0.009 A 
ATOM     37  C   UNL     1      13.542   7.659  18.025  0.00  0.00    +0.003 A 
ATOM     38  C   UNL     1      12.538   7.238  18.897  0.00  0.00    +0.015 A 
BRANCH  36   2
ATOM      2  S   UNL     1      11.573   6.344  21.321  0.00  0.00    -0.129 S 
ATOM     39  C   UNL     1      11.000   7.922  22.011  0.00  0.00    +0.090 C 
ENDBRANCH  36   2
ENDBRANCH  10  28
ENDBRANCH  13   8
BRANCH  14  17
ATOM      3  O   UNL     1      20.241   6.122  20.802  0.00  0.00    -0.274 OA
ATOM      9  N   UNL     1      22.470   5.686  21.311  0.00  0.00    -0.302 N 
ATOM     17  C   UNL     1      21.285   6.398  21.386  0.00  0.00    +0.234 C 
ATOM     41  H   UNL     1      23.295   6.057  21.773  0.00  0.00    +0.150 HD
BRANCH   9  19
ATOM     19  C   UNL     1      22.626   4.494  20.510  0.00  0.00    +0.163 C 
BRANCH  19  24
ATOM      6  O   UNL     1      24.994   4.974  20.767  0.00  0.00    -0.274 OA
ATOM     12  N   UNL     1      24.346   3.484  19.143  0.00  0.00    -0.328 N 
ATOM     24  C   UNL     1      24.104   4.376  20.167  0.00  0.00    +0.231 C 
ATOM     44  H   UNL     1      25.291   3.301  18.824  0.00  0.00    +0.145 HD
ATOM     45  H   UNL     1      23.601   2.979  18.673  0.00  0.00    +0.145 HD
ENDBRANCH  19  24
BRANCH  19  22
ATOM     22  C   UNL     1      22.143   3.234  21.240  0.00  0.00    +0.069 C 
BRANCH  22  23
ATOM     11  N   UNL     1      23.743   2.977  24.539  0.00  0.00    -0.360 N 
ATOM     23  C   UNL     1      22.950   2.919  22.467  0.00  0.00    -0.020 A 
ATOM     25  C   UNL     1      23.957   1.922  22.586  0.00  0.00    +0.003 A 
ATOM     26  C   UNL     1      22.841   3.551  23.685  0.00  0.00    +0.087 A 
ATOM     27  C   UNL     1      24.439   1.979  23.895  0.00  0.00    +0.047 A 
ATOM     29  C   UNL     1      24.509   0.972  21.702  0.00  0.00    +0.010 A 
ATOM     31  C   UNL     1      25.448   1.132  24.366  0.00  0.00    +0.026 A 
ATOM     32  C   UNL     1      25.518   0.118  22.160  0.00  0.00    +0.001 A 
ATOM     33  C   UNL     1      25.979   0.198  23.472  0.00  0.00    +0.002 A 
ATOM     43  H   UNL     1      23.879   3.247  25.504  0.00  0.00    +0.165 HD
ENDBRANCH  22  23
ENDBRANCH  19  22
ENDBRANCH   9  19
ENDBRANCH  14  17
BRANCH  18  20
ATOM     20  C   UNL     1      22.681  10.533  20.264  0.00  0.00    +0.164 C 
BRANCH  20   1
ATOM      1  S   UNL     1      22.895  10.330  18.490  0.00  0.00    -0.155 S 
ATOM     30  C   UNL     1      24.617  10.869  18.352  0.00  0.00    +0.085 C 
ENDBRANCH  20   1
ENDBRANCH  18  20
TORSDOF 10
ENDMDL
MODEL 10
REMARK VINA RESULT:      -6.1      3.290      7.517
REMARK  Name = 11882033
REMARK  12 active torsions:
REMARK  status: ('A' for Active; 'I' for Inactive)
REMARK    1  A    between atoms: S_1  and  C_20
REMARK    2  A    between atoms: S_1  and  C_30
REMARK    3  A    between atoms: S_2  and  C_36
REMARK    4  A    between atoms: S_2  and  C_39
REMARK    5  A    between atoms: N_8  and  C_13
REMARK    6  A    between atoms: N_9  and  C_19
REMARK    7  A    between atoms: N_10  and  C_28
REMARK    8  A    between atoms: C_14  and  C_17
REMARK    9  A    between atoms: C_18  and  C_20
REMARK   10  A    between atoms: C_19  and  C_22
REMARK   11  A    between atoms: C_19  and  C_24
REMARK   12  A    between atoms: C_22  and  C_23
REMARK                            x       y       z     vdW  Elec       q    Type
REMARK                         _______ _______ _______ _____ _____    ______ ____
ROOT
ATOM      4  O   UNL     1      -3.702 -13.176  10.424  0.00  0.00    -0.275 OA
ATOM      7  N   UNL     1      -5.143 -11.445  10.960  0.00  0.00    -0.287 N 
ATOM     13  C   UNL     1      -6.276  -9.493  11.700  0.00  0.00    +0.094 C 
ATOM     14  C   UNL     1      -4.111 -10.451  11.218  0.00  0.00    +0.164 C 
ATOM     15  C   UNL     1      -4.853  -9.118  11.282  0.00  0.00    +0.055 C 
ATOM     16  C   UNL     1      -6.481 -10.866  11.066  0.00  0.00    +0.131 C 
ATOM     18  C   UNL     1      -4.844 -12.719  10.501  0.00  0.00    +0.226 C 
ENDROOT
BRANCH  13   8
ATOM      5  O   UNL     1      -8.732  -9.521  13.174  0.00  0.00    -0.253 OA
ATOM      8  N   UNL     1      -6.420  -9.537  13.134  0.00  0.00    -0.295 N 
ATOM     10  N   UNL     1      -7.491  -9.594  15.166  0.00  0.00    -0.269 N 
ATOM     21  C   UNL     1      -7.663  -9.548  13.780  0.00  0.00    +0.304 C 
ATOM     40  H   UNL     1      -5.582  -9.495  13.705  0.00  0.00    +0.151 HD
ATOM     42  H   UNL     1      -6.533  -9.610  15.507  0.00  0.00    +0.156 HD
BRANCH  10  28
ATOM     28  C   UNL     1      -8.493  -9.618  16.165  0.00  0.00    +0.036 A 
ATOM     34  C   UNL     1      -9.013 -10.836  16.602  0.00  0.00    +0.038 A 
ATOM     35  C   UNL     1      -8.960  -8.423  16.712  0.00  0.00    +0.023 A 
ATOM     36  C   UNL     1     -10.001 -10.860  17.586  0.00  0.00    +0.009 A 
ATOM     37  C   UNL     1      -9.948  -8.446  17.697  0.00  0.00    +0.003 A 
ATOM     38  C   UNL     1     -10.468  -9.664  18.134  0.00  0.00    +0.015 A 
BRANCH  36   2
ATOM      2  S   UNL     1     -10.665 -12.415  18.147  0.00  0.00    -0.129 S 
ATOM     39  C   UNL     1     -10.702 -12.173  19.946  0.00  0.00    +0.090 C 
ENDBRANCH  36   2
ENDBRANCH  10  28
ENDBRANCH  13   8
BRANCH  14  17
ATOM      3  O   UNL     1      -2.555 -10.068  12.986  0.00  0.00    -0.274 OA
ATOM      9  N   UNL     1      -3.934 -11.939  13.085  0.00  0.00    -0.302 N 
ATOM     17  C   UNL     1      -3.444 -10.774  12.521  0.00  0.00    +0.234 C 
ATOM     41  H   UNL     1      -4.732 -12.397  12.653  0.00  0.00    +0.150 HD
BRANCH   9  19
ATOM     19  C   UNL     1      -3.442 -12.482  14.330  0.00  0.00    +0.163 C 
BRANCH  19  24
ATOM      6  O   UNL     1      -1.341 -13.207  13.346  0.00  0.00    -0.274 OA
ATOM     12  N   UNL     1      -1.276 -11.796  15.157  0.00  0.00    -0.328 N 
ATOM     24  C   UNL     1      -1.926 -12.564  14.214  0.00  0.00    +0.231 C 
ATOM     44  H   UNL     1      -0.263 -11.751  15.183  0.00  0.00    +0.145 HD
ATOM     45  H   UNL     1      -1.774 -11.250  15.853  0.00  0.00    +0.145 HD
ENDBRANCH  19  24
BRANCH  19  22
ATOM     22  C   UNL     1      -3.841 -11.625  15.537  0.00  0.00    +0.069 C 
BRANCH  22  23
ATOM     11  N   UNL     1      -5.998 -13.911  17.443  0.00  0.00    -0.360 N 
ATOM     23  C   UNL     1      -4.779 -12.328  16.476  0.00  0.00    -0.020 A 
ATOM     25  C   UNL     1      -5.469 -11.748  17.576  0.00  0.00    +0.003 A 
ATOM     26  C   UNL     1      -5.125 -13.659  16.419  0.00  0.00    +0.087 A 
ATOM     27  C   UNL     1      -6.227 -12.762  18.166  0.00  0.00    +0.047 A 
ATOM     29  C   UNL     1      -5.524 -10.453  18.130  0.00  0.00    +0.010 A 
ATOM     31  C   UNL     1      -7.038 -12.546  19.285  0.00  0.00    +0.026 A 
ATOM     32  C   UNL     1      -6.331 -10.222  19.250  0.00  0.00    +0.001 A 
ATOM     33  C   UNL     1      -7.076 -11.254  19.818  0.00  0.00    +0.002 A 
ATOM     43  H   UNL     1      -6.415 -14.811  17.639  0.00  0.00    +0.165 HD
ENDBRANCH  22  23
ENDBRANCH  19  22
ENDBRANCH   9  19
ENDBRANCH  14  17
BRANCH  18  20
ATOM     20  C   UNL     1      -6.028 -13.560  10.097  0.00  0.00    +0.164 C 
BRANCH  20   1
ATOM      1  S   UNL     1      -5.964 -15.086  11.047  0.00  0.00    -0.155 S 
ATOM     30  C   UNL     1      -6.577 -14.456  12.629  0.00  0.00    +0.085 C 
ENDBRANCH  20   1
ENDBRANCH  18  20
TORSDOF 10
ENDMDL
