MODEL 1
REMARK VINA RESULT:      -6.4      0.000      0.000
REMARK  Name = 75366936
REMARK  11 active torsions:
REMARK  status: ('A' for Active; 'I' for Inactive)
REMARK    1  A    between atoms: O_2  and  C_8
REMARK    2  A    between atoms: N_4  and  C_12
REMARK    3  A    between atoms: N_4  and  C_17
REMARK    4  A    between atoms: N_4  and  C_18
REMARK    5  A    between atoms: C_6  and  C_12
REMARK    6  A    between atoms: C_7  and  C_11
REMARK    7  A    between atoms: C_11  and  C_13
REMARK    8  A    between atoms: C_14  and  C_15
REMARK    9  A    between atoms: C_14  and  C_19
REMARK   10  A    between atoms: C_14  and  C_20
REMARK   11  A    between atoms: C_14  and  C_21
REMARK                            x       y       z     vdW  Elec       q    Type
REMARK                         _______ _______ _______ _____ _____    ______ ____
ROOT
ATOM      1  O   UNL     1      10.818   8.495  19.690  0.00  0.00    -0.369 OA
ATOM      6  C   UNL     1      11.050   8.429  21.103  0.00  0.00    +0.161 C 
ATOM      7  C   UNL     1      11.969   8.272  18.873  0.00  0.00    +0.125 C 
ATOM      8  C   UNL     1      11.691   7.094  21.502  0.00  0.00    +0.145 C 
ATOM      9  C   UNL     1      12.574   6.898  19.156  0.00  0.00    +0.034 C 
ATOM     10  C   UNL     1      12.901   6.749  20.638  0.00  0.00    +0.036 C 
ENDROOT
BRANCH   8   2
ATOM      2  O   UNL     1      10.726   6.052  21.337  0.00  0.00    -0.389 OA
ATOM     22  H   UNL     1      11.206   5.206  21.316  0.00  0.00    +0.210 HD
ENDBRANCH   8   2
BRANCH   7  11
ATOM     11  C   UNL     1      11.528   8.382  17.419  0.00  0.00    +0.090 C 
BRANCH  11  13
ATOM      3  O   UNL     1      13.413  10.098  14.872  0.00  0.00    -0.359 OA
ATOM      5  N   UNL     1      12.461   9.176  15.285  0.00  0.00    -0.083 NA
ATOM     13  C   UNL     1      12.457   9.255  16.619  0.00  0.00    +0.086 A 
ATOM     15  C   UNL     1      13.952  10.704  15.961  0.00  0.00    +0.143 A 
ATOM     16  C   UNL     1      13.378  10.203  17.099  0.00  0.00    +0.071 A 
BRANCH  15  14
ATOM     14  C   UNL     1      14.984  11.716  15.705  0.00  0.00    +0.023 C 
ATOM     19  C   UNL     1      14.493  13.058  15.041  0.00  0.00    +0.019 C 
ATOM     20  C   UNL     1      15.704  12.171  17.023  0.00  0.00    +0.019 C 
ATOM     21  C   UNL     1      16.103  11.187  14.741  0.00  0.00    +0.019 C 
ENDBRANCH  15  14
ENDBRANCH  11  13
ENDBRANCH   7  11
BRANCH   6  12
ATOM     12  C   UNL     1      11.846   9.640  21.586  0.00  0.00    +0.118 C 
BRANCH  12   4
ATOM      4  N   UNL     1      10.962  10.651  22.146  0.00  0.00    -0.306 NA
ATOM     17  C   UNL     1      11.373  11.992  21.722  0.00  0.00    +0.104 C 
ATOM     18  C   UNL     1      10.940  10.568  23.609  0.00  0.00    +0.104 C 
ENDBRANCH  12   4
ENDBRANCH   6  12
TORSDOF 6
ENDMDL
MODEL 2
REMARK VINA RESULT:      -5.9      3.880      6.702
REMARK  Name = 75366936
REMARK  11 active torsions:
REMARK  status: ('A' for Active; 'I' for Inactive)
REMARK    1  A    between atoms: O_2  and  C_8
REMARK    2  A    between atoms: N_4  and  C_12
REMARK    3  A    between atoms: N_4  and  C_17
REMARK    4  A    between atoms: N_4  and  C_18
REMARK    5  A    between atoms: C_6  and  C_12
REMARK    6  A    between atoms: C_7  and  C_11
REMARK    7  A    between atoms: C_11  and  C_13
REMARK    8  A    between atoms: C_14  and  C_15
REMARK    9  A    between atoms: C_14  and  C_19
REMARK   10  A    between atoms: C_14  and  C_20
REMARK   11  A    between atoms: C_14  and  C_21
REMARK                            x       y       z     vdW  Elec       q    Type
REMARK                         _______ _______ _______ _____ _____    ______ ____
ROOT
ATOM      1  O   UNL     1      12.549   7.912  21.883  0.00  0.00    -0.369 OA
ATOM      6  C   UNL     1      13.499   7.391  20.944  0.00  0.00    +0.161 C 
ATOM      7  C   UNL     1      11.780   9.023  21.417  0.00  0.00    +0.125 C 
ATOM      8  C   UNL     1      12.825   7.008  19.620  0.00  0.00    +0.145 C 
ATOM      9  C   UNL     1      10.997   8.649  20.160  0.00  0.00    +0.034 C 
ATOM     10  C   UNL     1      11.935   8.124  19.078  0.00  0.00    +0.036 C 
ENDROOT
BRANCH   8   2
ATOM      2  O   UNL     1      12.000   5.861  19.837  0.00  0.00    -0.389 OA
ATOM     22  H   UNL     1      12.033   5.649  20.786  0.00  0.00    +0.210 HD
ENDBRANCH   8   2
BRANCH   7  11
ATOM     11  C   UNL     1      10.839   9.433  22.542  0.00  0.00    +0.090 C 
BRANCH  11  13
ATOM      3  O   UNL     1      11.132  13.022  22.420  0.00  0.00    -0.359 OA
ATOM      5  N   UNL     1      11.117  11.769  21.822  0.00  0.00    -0.083 NA
ATOM     13  C   UNL     1      10.915  10.909  22.824  0.00  0.00    +0.086 A 
ATOM     15  C   UNL     1      10.939  12.884  23.756  0.00  0.00    +0.143 A 
ATOM     16  C   UNL     1      10.795  11.557  24.067  0.00  0.00    +0.071 A 
BRANCH  15  14
ATOM     14  C   UNL     1      10.925  14.119  24.549  0.00  0.00    +0.023 C 
ATOM     19  C   UNL     1       9.914  15.233  24.083  0.00  0.00    +0.019 C 
ATOM     20  C   UNL     1      10.553  13.853  26.050  0.00  0.00    +0.019 C 
ATOM     21  C   UNL     1      12.322  14.833  24.552  0.00  0.00    +0.019 C 
ENDBRANCH  15  14
ENDBRANCH  11  13
ENDBRANCH   7  11
BRANCH   6  12
ATOM     12  C   UNL     1      14.672   8.351  20.760  0.00  0.00    +0.118 C 
BRANCH  12   4
ATOM      4  N   UNL     1      15.820   7.926  21.547  0.00  0.00    -0.306 NA
ATOM     17  C   UNL     1      16.976   8.786  21.285  0.00  0.00    +0.104 C 
ATOM     18  C   UNL     1      16.155   6.528  21.262  0.00  0.00    +0.104 C 
ENDBRANCH  12   4
ENDBRANCH   6  12
TORSDOF 6
ENDMDL
MODEL 3
REMARK VINA RESULT:      -5.8      5.247      6.713
REMARK  Name = 75366936
REMARK  11 active torsions:
REMARK  status: ('A' for Active; 'I' for Inactive)
REMARK    1  A    between atoms: O_2  and  C_8
REMARK    2  A    between atoms: N_4  and  C_12
REMARK    3  A    between atoms: N_4  and  C_17
REMARK    4  A    between atoms: N_4  and  C_18
REMARK    5  A    between atoms: C_6  and  C_12
REMARK    6  A    between atoms: C_7  and  C_11
REMARK    7  A    between atoms: C_11  and  C_13
REMARK    8  A    between atoms: C_14  and  C_15
REMARK    9  A    between atoms: C_14  and  C_19
REMARK   10  A    between atoms: C_14  and  C_20
REMARK   11  A    between atoms: C_14  and  C_21
REMARK                            x       y       z     vdW  Elec       q    Type
REMARK                         _______ _______ _______ _____ _____    ______ ____
ROOT
ATOM      1  O   UNL     1      14.117   7.092  18.520  0.00  0.00    -0.369 OA
ATOM      6  C   UNL     1      12.979   7.896  18.857  0.00  0.00    +0.161 C 
ATOM      7  C   UNL     1      15.166   7.087  19.490  0.00  0.00    +0.125 C 
ATOM      8  C   UNL     1      12.394   7.495  20.217  0.00  0.00    +0.145 C 
ATOM      9  C   UNL     1      14.654   6.581  20.837  0.00  0.00    +0.034 C 
ATOM     10  C   UNL     1      13.461   7.410  21.305  0.00  0.00    +0.036 C 
ENDROOT
BRANCH   8   2
ATOM      2  O   UNL     1      11.790   6.205  20.097  0.00  0.00    -0.389 OA
ATOM     22  H   UNL     1      11.933   5.897  19.187  0.00  0.00    +0.210 HD
ENDBRANCH   8   2
BRANCH   7  11
ATOM     11  C   UNL     1      16.277   6.190  18.960  0.00  0.00    +0.090 C 
BRANCH  11  13
ATOM      3  O   UNL     1      19.005   7.341  21.013  0.00  0.00    -0.359 OA
ATOM      5  N   UNL     1      17.742   7.483  20.455  0.00  0.00    -0.083 NA
ATOM     13  C   UNL     1      17.561   6.381  19.721  0.00  0.00    +0.086 A 
ATOM     15  C   UNL     1      19.546   6.165  20.603  0.00  0.00    +0.143 A 
ATOM     16  C   UNL     1      18.667   5.515  19.778  0.00  0.00    +0.071 A 
BRANCH  15  14
ATOM     14  C   UNL     1      20.891   5.852  21.104  0.00  0.00    +0.023 C 
ATOM     19  C   UNL     1      22.077   6.676  20.474  0.00  0.00    +0.019 C 
ATOM     20  C   UNL     1      21.017   6.099  22.648  0.00  0.00    +0.019 C 
ATOM     21  C   UNL     1      21.278   4.352  20.855  0.00  0.00    +0.019 C 
ENDBRANCH  15  14
ENDBRANCH  11  13
ENDBRANCH   7  11
BRANCH   6  12
ATOM     12  C   UNL     1      13.310   9.384  18.765  0.00  0.00    +0.118 C 
BRANCH  12   4
ATOM      4  N   UNL     1      12.785   9.958  17.536  0.00  0.00    -0.306 NA
ATOM     17  C   UNL     1      11.979   8.976  16.808  0.00  0.00    +0.104 C 
ATOM     18  C   UNL     1      13.872  10.450  16.685  0.00  0.00    +0.104 C 
ENDBRANCH  12   4
ENDBRANCH   6  12
TORSDOF 6
ENDMDL
MODEL 4
REMARK VINA RESULT:      -5.7      4.360      5.602
REMARK  Name = 75366936
REMARK  11 active torsions:
REMARK  status: ('A' for Active; 'I' for Inactive)
REMARK    1  A    between atoms: O_2  and  C_8
REMARK    2  A    between atoms: N_4  and  C_12
REMARK    3  A    between atoms: N_4  and  C_17
REMARK    4  A    between atoms: N_4  and  C_18
REMARK    5  A    between atoms: C_6  and  C_12
REMARK    6  A    between atoms: C_7  and  C_11
REMARK    7  A    between atoms: C_11  and  C_13
REMARK    8  A    between atoms: C_14  and  C_15
REMARK    9  A    between atoms: C_14  and  C_19
REMARK   10  A    between atoms: C_14  and  C_20
REMARK   11  A    between atoms: C_14  and  C_21
REMARK                            x       y       z     vdW  Elec       q    Type
REMARK                         _______ _______ _______ _____ _____    ______ ____
ROOT
ATOM      1  O   UNL     1      13.472   8.917  19.775  0.00  0.00    -0.369 OA
ATOM      6  C   UNL     1      12.369   9.453  20.518  0.00  0.00    +0.161 C 
ATOM      7  C   UNL     1      13.896   7.611  20.173  0.00  0.00    +0.125 C 
ATOM      8  C   UNL     1      11.161   8.508  20.485  0.00  0.00    +0.145 C 
ATOM      9  C   UNL     1      12.750   6.609  20.044  0.00  0.00    +0.034 C 
ATOM     10  C   UNL     1      11.537   7.073  20.845  0.00  0.00    +0.036 C 
ENDROOT
BRANCH   8   2
ATOM      2  O   UNL     1      10.619   8.498  19.163  0.00  0.00    -0.389 OA
ATOM     22  H   UNL     1       9.665   8.326  19.237  0.00  0.00    +0.210 HD
ENDBRANCH   8   2
BRANCH   7  11
ATOM     11  C   UNL     1      15.065   7.217  19.280  0.00  0.00    +0.090 C 
BRANCH  11  13
ATOM      3  O   UNL     1      17.860   8.032  21.403  0.00  0.00    -0.359 OA
ATOM      5  N   UNL     1      16.570   8.243  20.933  0.00  0.00    -0.083 NA
ATOM     13  C   UNL     1      16.378   7.295  20.012  0.00  0.00    +0.086 A 
ATOM     15  C   UNL     1      18.404   6.969  20.757  0.00  0.00    +0.143 A 
ATOM     16  C   UNL     1      17.501   6.463  19.860  0.00  0.00    +0.071 A 
BRANCH  15  14
ATOM     14  C   UNL     1      19.774   6.603  21.136  0.00  0.00    +0.023 C 
ATOM     19  C   UNL     1      20.907   7.610  20.708  0.00  0.00    +0.019 C 
ATOM     20  C   UNL     1      19.939   6.463  22.690  0.00  0.00    +0.019 C 
ATOM     21  C   UNL     1      20.212   5.231  20.511  0.00  0.00    +0.019 C 
ENDBRANCH  15  14
ENDBRANCH  11  13
ENDBRANCH   7  11
BRANCH   6  12
ATOM     12  C   UNL     1      12.794   9.831  21.936  0.00  0.00    +0.118 C 
BRANCH  12   4
ATOM      4  N   UNL     1      12.442  11.211  22.232  0.00  0.00    -0.306 NA
ATOM     17  C   UNL     1      11.286  11.271  23.129  0.00  0.00    +0.104 C 
ATOM     18  C   UNL     1      12.164  11.953  20.999  0.00  0.00    +0.104 C 
ENDBRANCH  12   4
ENDBRANCH   6  12
TORSDOF 6
ENDMDL
MODEL 5
REMARK VINA RESULT:      -5.4     12.625     15.202
REMARK  Name = 75366936
REMARK  11 active torsions:
REMARK  status: ('A' for Active; 'I' for Inactive)
REMARK    1  A    between atoms: O_2  and  C_8
REMARK    2  A    between atoms: N_4  and  C_12
REMARK    3  A    between atoms: N_4  and  C_17
REMARK    4  A    between atoms: N_4  and  C_18
REMARK    5  A    between atoms: C_6  and  C_12
REMARK    6  A    between atoms: C_7  and  C_11
REMARK    7  A    between atoms: C_11  and  C_13
REMARK    8  A    between atoms: C_14  and  C_15
REMARK    9  A    between atoms: C_14  and  C_19
REMARK   10  A    between atoms: C_14  and  C_20
REMARK   11  A    between atoms: C_14  and  C_21
REMARK                            x       y       z     vdW  Elec       q    Type
REMARK                         _______ _______ _______ _____ _____    ______ ____
ROOT
ATOM      1  O   UNL     1      10.703   6.894   5.510  0.00  0.00    -0.369 OA
ATOM      6  C   UNL     1      11.114   7.207   6.847  0.00  0.00    +0.161 C 
ATOM      7  C   UNL     1      10.609   5.499   5.214  0.00  0.00    +0.125 C 
ATOM      8  C   UNL     1      10.201   6.540   7.884  0.00  0.00    +0.145 C 
ATOM      9  C   UNL     1       9.617   4.814   6.151  0.00  0.00    +0.034 C 
ATOM     10  C   UNL     1      10.000   5.053   7.609  0.00  0.00    +0.036 C 
ENDROOT
BRANCH   8   2
ATOM      2  O   UNL     1       8.918   7.169   7.841  0.00  0.00    -0.389 OA
ATOM     22  H   UNL     1       8.913   7.776   7.081  0.00  0.00    +0.210 HD
ENDBRANCH   8   2
BRANCH   7  11
ATOM     11  C   UNL     1      10.165   5.368   3.763  0.00  0.00    +0.090 C 
BRANCH  11  13
ATOM      3  O   UNL     1      12.390   3.245   1.886  0.00  0.00    -0.359 OA
ATOM      5  N   UNL     1      11.297   3.450   2.718  0.00  0.00    -0.083 NA
ATOM     13  C   UNL     1      11.245   4.773   2.900  0.00  0.00    +0.086 A 
ATOM     15  C   UNL     1      12.961   4.441   1.592  0.00  0.00    +0.143 A 
ATOM     16  C   UNL     1      12.269   5.447   2.213  0.00  0.00    +0.071 A 
BRANCH  15  14
ATOM     14  C   UNL     1      14.138   4.409   0.715  0.00  0.00    +0.023 C 
ATOM     19  C   UNL     1      14.798   5.801   0.385  0.00  0.00    +0.019 C 
ATOM     20  C   UNL     1      15.304   3.555   1.325  0.00  0.00    +0.019 C 
ATOM     21  C   UNL     1      13.811   3.787  -0.688  0.00  0.00    +0.019 C 
ENDBRANCH  15  14
ENDBRANCH  11  13
ENDBRANCH   7  11
BRANCH   6  12
ATOM     12  C   UNL     1      12.592   6.884   7.058  0.00  0.00    +0.118 C 
BRANCH  12   4
ATOM      4  N   UNL     1      13.437   7.829   6.344  0.00  0.00    -0.306 NA
ATOM     17  C   UNL     1      14.845   7.435   6.433  0.00  0.00    +0.104 C 
ATOM     18  C   UNL     1      13.257   9.185   6.869  0.00  0.00    +0.104 C 
ENDBRANCH  12   4
ENDBRANCH   6  12
TORSDOF 6
ENDMDL
MODEL 6
REMARK VINA RESULT:      -5.4      2.073      6.356
REMARK  Name = 75366936
REMARK  11 active torsions:
REMARK  status: ('A' for Active; 'I' for Inactive)
REMARK    1  A    between atoms: O_2  and  C_8
REMARK    2  A    between atoms: N_4  and  C_12
REMARK    3  A    between atoms: N_4  and  C_17
REMARK    4  A    between atoms: N_4  and  C_18
REMARK    5  A    between atoms: C_6  and  C_12
REMARK    6  A    between atoms: C_7  and  C_11
REMARK    7  A    between atoms: C_11  and  C_13
REMARK    8  A    between atoms: C_14  and  C_15
REMARK    9  A    between atoms: C_14  and  C_19
REMARK   10  A    between atoms: C_14  and  C_20
REMARK   11  A    between atoms: C_14  and  C_21
REMARK                            x       y       z     vdW  Elec       q    Type
REMARK                         _______ _______ _______ _____ _____    ______ ____
ROOT
ATOM      1  O   UNL     1      12.829   9.084  19.001  0.00  0.00    -0.369 OA
ATOM      6  C   UNL     1      14.115   8.894  18.396  0.00  0.00    +0.161 C 
ATOM      7  C   UNL     1      12.211   7.896  19.501  0.00  0.00    +0.125 C 
ATOM      8  C   UNL     1      15.087   8.196  19.356  0.00  0.00    +0.145 C 
ATOM      9  C   UNL     1      13.097   7.228  20.551  0.00  0.00    +0.034 C 
ATOM     10  C   UNL     1      14.483   6.942  19.982  0.00  0.00    +0.036 C 
ENDROOT
BRANCH   8   2
ATOM      2  O   UNL     1      15.415   9.097  20.416  0.00  0.00    -0.389 OA
ATOM     22  H   UNL     1      14.583   9.376  20.834  0.00  0.00    +0.210 HD
ENDBRANCH   8   2
BRANCH   7  11
ATOM     11  C   UNL     1      10.867   8.294  20.098  0.00  0.00    +0.090 C 
BRANCH  11  13
ATOM      3  O   UNL     1      10.995   9.500  23.492  0.00  0.00    -0.359 OA
ATOM      5  N   UNL     1      10.729   8.519  22.544  0.00  0.00    -0.083 NA
ATOM     13  C   UNL     1      11.033   9.081  21.370  0.00  0.00    +0.086 A 
ATOM     15  C   UNL     1      11.449  10.616  22.866  0.00  0.00    +0.143 A 
ATOM     16  C   UNL     1      11.493  10.402  21.514  0.00  0.00    +0.071 A 
BRANCH  15  14
ATOM     14  C   UNL     1      11.782  11.759  23.725  0.00  0.00    +0.023 C 
ATOM     19  C   UNL     1      11.101  11.783  25.146  0.00  0.00    +0.019 C 
ATOM     20  C   UNL     1      13.319  11.844  24.024  0.00  0.00    +0.019 C 
ATOM     21  C   UNL     1      11.374  13.126  23.071  0.00  0.00    +0.019 C 
ENDBRANCH  15  14
ENDBRANCH  11  13
ENDBRANCH   7  11
BRANCH   6  12
ATOM     12  C   UNL     1      13.990   8.181  17.051  0.00  0.00    +0.118 C 
BRANCH  12   4
ATOM      4  N   UNL     1      13.869   9.141  15.964  0.00  0.00    -0.306 NA
ATOM     17  C   UNL     1      14.576  10.383  16.288  0.00  0.00    +0.104 C 
ATOM     18  C   UNL     1      12.461   9.423  15.674  0.00  0.00    +0.104 C 
ENDBRANCH  12   4
ENDBRANCH   6  12
TORSDOF 6
ENDMDL
MODEL 7
REMARK VINA RESULT:      -5.2     25.512     27.265
REMARK  Name = 75366936
REMARK  11 active torsions:
REMARK  status: ('A' for Active; 'I' for Inactive)
REMARK    1  A    between atoms: O_2  and  C_8
REMARK    2  A    between atoms: N_4  and  C_12
REMARK    3  A    between atoms: N_4  and  C_17
REMARK    4  A    between atoms: N_4  and  C_18
REMARK    5  A    between atoms: C_6  and  C_12
REMARK    6  A    between atoms: C_7  and  C_11
REMARK    7  A    between atoms: C_11  and  C_13
REMARK    8  A    between atoms: C_14  and  C_15
REMARK    9  A    between atoms: C_14  and  C_19
REMARK   10  A    between atoms: C_14  and  C_20
REMARK   11  A    between atoms: C_14  and  C_21
REMARK                            x       y       z     vdW  Elec       q    Type
REMARK                         _______ _______ _______ _____ _____    ______ ____
ROOT
ATOM      1  O   UNL     1     -15.032   4.904  21.439  0.00  0.00    -0.369 OA
ATOM      6  C   UNL     1     -16.410   4.769  21.813  0.00  0.00    +0.161 C 
ATOM      7  C   UNL     1     -14.195   5.527  22.416  0.00  0.00    +0.125 C 
ATOM      8  C   UNL     1     -16.557   4.020  23.143  0.00  0.00    +0.145 C 
ATOM      9  C   UNL     1     -14.220   4.743  23.727  0.00  0.00    +0.034 C 
ATOM     10  C   UNL     1     -15.651   4.587  24.232  0.00  0.00    +0.036 C 
ENDROOT
BRANCH   8   2
ATOM      2  O   UNL     1     -16.194   2.651  22.944  0.00  0.00    -0.389 OA
ATOM     22  H   UNL     1     -15.828   2.318  23.781  0.00  0.00    +0.210 HD
ENDBRANCH   8   2
BRANCH   7  11
ATOM     11  C   UNL     1     -12.785   5.581  21.843  0.00  0.00    +0.090 C 
BRANCH  11  13
ATOM      3  O   UNL     1     -12.859   8.824  20.273  0.00  0.00    -0.359 OA
ATOM      5  N   UNL     1     -13.297   7.905  21.218  0.00  0.00    -0.083 NA
ATOM     13  C   UNL     1     -12.576   6.804  20.990  0.00  0.00    +0.086 A 
ATOM     15  C   UNL     1     -11.892   8.254  19.508  0.00  0.00    +0.143 A 
ATOM     16  C   UNL     1     -11.674   6.967  19.924  0.00  0.00    +0.071 A 
BRANCH  15  14
ATOM     14  C   UNL     1     -11.313   9.093  18.451  0.00  0.00    +0.023 C 
ATOM     19  C   UNL     1     -10.211  10.122  18.906  0.00  0.00    +0.019 C 
ATOM     20  C   UNL     1     -10.616   8.237  17.336  0.00  0.00    +0.019 C 
ATOM     21  C   UNL     1     -12.399   9.970  17.733  0.00  0.00    +0.019 C 
ENDBRANCH  15  14
ENDBRANCH  11  13
ENDBRANCH   7  11
BRANCH   6  12
ATOM     12  C   UNL     1     -17.115   6.124  21.811  0.00  0.00    +0.118 C 
BRANCH  12   4
ATOM      4  N   UNL     1     -17.823   6.339  20.558  0.00  0.00    -0.306 NA
ATOM     17  C   UNL     1     -18.184   5.060  19.941  0.00  0.00    +0.104 C 
ATOM     18  C   UNL     1     -17.013   7.136  19.633  0.00  0.00    +0.104 C 
ENDBRANCH  12   4
ENDBRANCH   6  12
TORSDOF 6
ENDMDL
MODEL 8
REMARK VINA RESULT:      -5.2     17.768     20.546
REMARK  Name = 75366936
REMARK  11 active torsions:
REMARK  status: ('A' for Active; 'I' for Inactive)
REMARK    1  A    between atoms: O_2  and  C_8
REMARK    2  A    between atoms: N_4  and  C_12
REMARK    3  A    between atoms: N_4  and  C_17
REMARK    4  A    between atoms: N_4  and  C_18
REMARK    5  A    between atoms: C_6  and  C_12
REMARK    6  A    between atoms: C_7  and  C_11
REMARK    7  A    between atoms: C_11  and  C_13
REMARK    8  A    between atoms: C_14  and  C_15
REMARK    9  A    between atoms: C_14  and  C_19
REMARK   10  A    between atoms: C_14  and  C_20
REMARK   11  A    between atoms: C_14  and  C_21
REMARK                            x       y       z     vdW  Elec       q    Type
REMARK                         _______ _______ _______ _____ _____    ______ ____
ROOT
ATOM      1  O   UNL     1      12.908   3.000   0.700  0.00  0.00    -0.369 OA
ATOM      6  C   UNL     1      13.379   3.749   1.828  0.00  0.00    +0.161 C 
ATOM      7  C   UNL     1      13.033   3.659  -0.562  0.00  0.00    +0.125 C 
ATOM      8  C   UNL     1      14.837   4.186   1.639  0.00  0.00    +0.145 C 
ATOM      9  C   UNL     1      14.492   4.009  -0.846  0.00  0.00    +0.034 C 
ATOM     10  C   UNL     1      15.073   4.852   0.286  0.00  0.00    +0.036 C 
ENDROOT
BRANCH   8   2
ATOM      2  O   UNL     1      15.678   3.032   1.709  0.00  0.00    -0.389 OA
ATOM     22  H   UNL     1      16.326   3.182   2.417  0.00  0.00    +0.210 HD
ENDBRANCH   8   2
BRANCH   7  11
ATOM     11  C   UNL     1      12.484   2.717  -1.627  0.00  0.00    +0.090 C 
BRANCH  11  13
ATOM      3  O   UNL     1       9.326   3.312  -3.258  0.00  0.00    -0.359 OA
ATOM      5  N   UNL     1      10.276   2.476  -2.683  0.00  0.00    -0.083 NA
ATOM     13  C   UNL     1      11.265   3.288  -2.301  0.00  0.00    +0.086 A 
ATOM     15  C   UNL     1       9.767   4.594  -3.204  0.00  0.00    +0.143 A 
ATOM     16  C   UNL     1      10.998   4.634  -2.604  0.00  0.00    +0.071 A 
BRANCH  15  14
ATOM     14  C   UNL     1       8.880   5.617  -3.771  0.00  0.00    +0.023 C 
ATOM     19  C   UNL     1       9.582   6.796  -4.544  0.00  0.00    +0.019 C 
ATOM     20  C   UNL     1       7.871   5.013  -4.809  0.00  0.00    +0.019 C 
ATOM     21  C   UNL     1       8.019   6.328  -2.668  0.00  0.00    +0.019 C 
ENDBRANCH  15  14
ENDBRANCH  11  13
ENDBRANCH   7  11
BRANCH   6  12
ATOM     12  C   UNL     1      12.443   4.914   2.144  0.00  0.00    +0.118 C 
BRANCH  12   4
ATOM      4  N   UNL     1      11.091   4.440   2.398  0.00  0.00    -0.306 NA
ATOM     17  C   UNL     1      10.160   4.969   1.400  0.00  0.00    +0.104 C 
ATOM     18  C   UNL     1      10.655   4.814   3.746  0.00  0.00    +0.104 C 
ENDBRANCH  12   4
ENDBRANCH   6  12
TORSDOF 6
ENDMDL
MODEL 9
REMARK VINA RESULT:      -5.2     25.644     27.521
REMARK  Name = 75366936
REMARK  11 active torsions:
REMARK  status: ('A' for Active; 'I' for Inactive)
REMARK    1  A    between atoms: O_2  and  C_8
REMARK    2  A    between atoms: N_4  and  C_12
REMARK    3  A    between atoms: N_4  and  C_17
REMARK    4  A    between atoms: N_4  and  C_18
REMARK    5  A    between atoms: C_6  and  C_12
REMARK    6  A    between atoms: C_7  and  C_11
REMARK    7  A    between atoms: C_11  and  C_13
REMARK    8  A    between atoms: C_14  and  C_15
REMARK    9  A    between atoms: C_14  and  C_19
REMARK   10  A    between atoms: C_14  and  C_20
REMARK   11  A    between atoms: C_14  and  C_21
REMARK                            x       y       z     vdW  Elec       q    Type
REMARK                         _______ _______ _______ _____ _____    ______ ____
ROOT
ATOM      1  O   UNL     1      -6.722 -11.680  17.172  0.00  0.00    -0.369 OA
ATOM      6  C   UNL     1      -7.707 -10.873  17.831  0.00  0.00    +0.161 C 
ATOM      7  C   UNL     1      -5.366 -11.286  17.393  0.00  0.00    +0.125 C 
ATOM      8  C   UNL     1      -7.451 -10.800  19.341  0.00  0.00    +0.145 C 
ATOM      9  C   UNL     1      -5.032 -11.313  18.883  0.00  0.00    +0.034 C 
ATOM     10  C   UNL     1      -6.005 -10.439  19.668  0.00  0.00    +0.036 C 
ENDROOT
BRANCH   8   2
ATOM      2  O   UNL     1      -7.721 -12.081  19.917  0.00  0.00    -0.389 OA
ATOM     22  H   UNL     1      -8.527 -11.999  20.455  0.00  0.00    +0.210 HD
ENDBRANCH   8   2
BRANCH   7  11
ATOM     11  C   UNL     1      -4.477 -12.251  16.619  0.00  0.00    +0.090 C 
BRANCH  11  13
ATOM      3  O   UNL     1      -2.562 -10.357  14.225  0.00  0.00    -0.359 OA
ATOM      5  N   UNL     1      -2.857 -10.761  15.521  0.00  0.00    -0.083 NA
ATOM     13  C   UNL     1      -3.884 -11.605  15.396  0.00  0.00    +0.086 A 
ATOM     15  C   UNL     1      -3.414 -10.967  13.361  0.00  0.00    +0.143 A 
ATOM     16  C   UNL     1      -4.277 -11.773  14.056  0.00  0.00    +0.071 A 
BRANCH  15  14
ATOM     14  C   UNL     1      -3.242 -10.652  11.938  0.00  0.00    +0.023 C 
ATOM     19  C   UNL     1      -1.896  -9.937  11.542  0.00  0.00    +0.019 C 
ATOM     20  C   UNL     1      -3.282 -11.939  11.041  0.00  0.00    +0.019 C 
ATOM     21  C   UNL     1      -4.367  -9.697  11.405  0.00  0.00    +0.019 C 
ENDBRANCH  15  14
ENDBRANCH  11  13
ENDBRANCH   7  11
BRANCH   6  12
ATOM     12  C   UNL     1      -7.816  -9.496  17.177  0.00  0.00    +0.118 C 
BRANCH  12   4
ATOM      4  N   UNL     1      -9.163  -9.262  16.682  0.00  0.00    -0.306 NA
ATOM     17  C   UNL     1      -9.187  -9.268  15.218  0.00  0.00    +0.104 C 
ATOM     18  C   UNL     1      -9.689  -7.992  17.191  0.00  0.00    +0.104 C 
ENDBRANCH  12   4
ENDBRANCH   6  12
TORSDOF 6
ENDMDL
MODEL 10
REMARK VINA RESULT:      -5.1     30.625     32.033
REMARK  Name = 75366936
REMARK  11 active torsions:
REMARK  status: ('A' for Active; 'I' for Inactive)
REMARK    1  A    between atoms: O_2  and  C_8
REMARK    2  A    between atoms: N_4  and  C_12
REMARK    3  A    between atoms: N_4  and  C_17
REMARK    4  A    between atoms: N_4  and  C_18
REMARK    5  A    between atoms: C_6  and  C_12
REMARK    6  A    between atoms: C_7  and  C_11
REMARK    7  A    between atoms: C_11  and  C_13
REMARK    8  A    between atoms: C_14  and  C_15
REMARK    9  A    between atoms: C_14  and  C_19
REMARK   10  A    between atoms: C_14  and  C_20
REMARK   11  A    between atoms: C_14  and  C_21
REMARK                            x       y       z     vdW  Elec       q    Type
REMARK                         _______ _______ _______ _____ _____    ______ ____
ROOT
ATOM      1  O   UNL     1     -15.726   2.919  32.661  0.00  0.00    -0.369 OA
ATOM      6  C   UNL     1     -16.224   4.062  33.368  0.00  0.00    +0.161 C 
ATOM      7  C   UNL     1     -14.694   3.195  31.711  0.00  0.00    +0.125 C 
ATOM      8  C   UNL     1     -15.093   4.822  34.072  0.00  0.00    +0.145 C 
ATOM      9  C   UNL     1     -13.493   3.848  32.393  0.00  0.00    +0.034 C 
ATOM     10  C   UNL     1     -13.919   5.109  33.140  0.00  0.00    +0.036 C 
ENDROOT
BRANCH   8   2
ATOM      2  O   UNL     1     -14.605   4.024  35.154  0.00  0.00    -0.389 OA
ATOM     22  H   UNL     1     -13.924   3.429  34.797  0.00  0.00    +0.210 HD
ENDBRANCH   8   2
BRANCH   7  11
ATOM     11  C   UNL     1     -14.299   1.872  31.067  0.00  0.00    +0.090 C 
BRANCH  11  13
ATOM      3  O   UNL     1     -16.187   0.456  28.344  0.00  0.00    -0.359 OA
ATOM      5  N   UNL     1     -15.488   0.354  29.540  0.00  0.00    -0.083 NA
ATOM     13  C   UNL     1     -15.095   1.599  29.819  0.00  0.00    +0.086 A 
ATOM     15  C   UNL     1     -16.195   1.752  27.940  0.00  0.00    +0.143 A 
ATOM     16  C   UNL     1     -15.513   2.522  28.844  0.00  0.00    +0.071 A 
BRANCH  15  14
ATOM     14  C   UNL     1     -16.897   2.042  26.683  0.00  0.00    +0.023 C 
ATOM     19  C   UNL     1     -17.011   0.851  25.659  0.00  0.00    +0.019 C 
ATOM     20  C   UNL     1     -18.379   2.495  26.927  0.00  0.00    +0.019 C 
ATOM     21  C   UNL     1     -16.202   3.193  25.873  0.00  0.00    +0.019 C 
ENDBRANCH  15  14
ENDBRANCH  11  13
ENDBRANCH   7  11
BRANCH   6  12
ATOM     12  C   UNL     1     -17.062   4.953  32.452  0.00  0.00    +0.118 C 
BRANCH  12   4
ATOM      4  N   UNL     1     -18.321   4.309  32.111  0.00  0.00    -0.306 NA
ATOM     17  C   UNL     1     -18.409   4.075  30.668  0.00  0.00    +0.104 C 
ATOM     18  C   UNL     1     -19.456   5.118  32.562  0.00  0.00    +0.104 C 
ENDBRANCH  12   4
ENDBRANCH   6  12
TORSDOF 6
ENDMDL
