MODEL 1
REMARK VINA RESULT:      -6.7      0.000      0.000
REMARK  Name = 45784092
REMARK  12 active torsions:
REMARK  status: ('A' for Active; 'I' for Inactive)
REMARK    1  A    between atoms: N_2  and  C_15
REMARK    2  A    between atoms: N_2  and  C_21
REMARK    3  A    between atoms: N_5  and  C_31
REMARK    4  A    between atoms: C_8  and  C_12
REMARK    5  A    between atoms: C_9  and  C_15
REMARK    6  A    between atoms: C_11  and  C_16
REMARK    7  A    between atoms: C_12  and  C_17
REMARK    8  A    between atoms: C_12  and  C_18
REMARK    9  A    between atoms: C_13  and  C_19
REMARK   10  A    between atoms: C_16  and  C_20
REMARK   11  A    between atoms: C_21  and  C_22
REMARK   12  A    between atoms: C_23  and  C_26
REMARK                            x       y       z     vdW  Elec       q    Type
REMARK                         _______ _______ _______ _____ _____    ______ ____
ROOT
ATOM      8  C   UNL     1      13.331  10.307  21.614  0.00  0.00    +0.000 C 
ATOM      9  C   UNL     1      11.874  10.080  21.144  0.00  0.00    +0.029 C 
ATOM     10  C   UNL     1      14.075   8.969  21.726  0.00  0.00    +0.012 C 
ATOM     11  C   UNL     1      14.080   8.160  20.412  0.00  0.00    +0.024 C 
ATOM     13  C   UNL     1      12.755   8.228  19.667  0.00  0.00    -0.073 C 
ATOM     14  C   UNL     1      11.779   9.085  20.017  0.00  0.00    -0.023 C 
ATOM     19  C   UNL     1      12.587   7.336  18.467  0.00  0.00    +0.039 C 
ENDROOT
BRANCH   8  12
ATOM     12  C   UNL     1      14.072  11.279  20.685  0.00  0.00    -0.013 C 
ATOM     17  C   UNL     1      13.155  12.426  20.273  0.00  0.00    +0.007 C 
ATOM     18  C   UNL     1      15.329  11.809  21.364  0.00  0.00    +0.007 C 
ENDBRANCH   8  12
BRANCH   9  15
ATOM     15  C   UNL     1      10.974   9.623  22.297  0.00  0.00    +0.089 C 
BRANCH  15   2
ATOM      2  N   UNL     1      10.410  10.767  22.992  0.00  0.00    -0.311 NA
ATOM     32  H   UNL     1       9.405  10.653  23.117  0.00  0.00    +0.122 HD
BRANCH   2  21
ATOM     21  C   UNL     1      11.054  10.965  24.285  0.00  0.00    +0.116 C 
BRANCH  21  22
ATOM      6  N   UNL     1      11.787  15.127  25.089  0.00  0.00    -0.263 NA
ATOM     22  C   UNL     1      11.310  12.423  24.567  0.00  0.00    -0.031 A 
ATOM     24  C   UNL     1      10.636  13.062  25.600  0.00  0.00    +0.024 A 
ATOM     25  C   UNL     1      12.222  13.132  23.793  0.00  0.00    +0.024 A 
ATOM     27  C   UNL     1      10.907  14.403  25.818  0.00  0.00    +0.111 A 
ATOM     28  C   UNL     1      12.422  14.470  24.093  0.00  0.00    +0.111 A 
ENDBRANCH  21  22
ENDBRANCH   2  21
ENDBRANCH  15   2
ENDBRANCH   9  15
BRANCH  11  16
ATOM     16  C   UNL     1      14.514   6.723  20.724  0.00  0.00    +0.105 C 
BRANCH  16  20
ATOM      1  O   UNL     1      16.938   6.602  20.989  0.00  0.00    -0.419 OA
ATOM      3  N   UNL     1      16.208   6.014  18.957  0.00  0.00    -0.112 NA
ATOM      4  N   UNL     1      17.586   5.900  18.966  0.00  0.00    -0.106 NA
ATOM     20  C   UNL     1      15.873   6.425  20.158  0.00  0.00    +0.218 A 
ATOM     23  C   UNL     1      17.968   6.254  20.171  0.00  0.00    +0.266 A 
BRANCH  23  26
ATOM      5  N   UNL     1      19.962   7.352  21.122  0.00  0.00    -0.329 N 
ATOM      7  N   UNL     1      21.473   5.727  21.050  0.00  0.00    -0.243 NA
ATOM     26  C   UNL     1      19.323   6.271  20.583  0.00  0.00    +0.125 A 
ATOM     29  C   UNL     1      20.277   5.281  20.548  0.00  0.00    +0.143 A 
ATOM     30  C   UNL     1      21.250   6.978  21.387  0.00  0.00    +0.199 A 
ATOM     31  C   UNL     1      19.403   8.659  21.378  0.00  0.00    +0.150 C 
ENDBRANCH  23  26
ENDBRANCH  16  20
ENDBRANCH  11  16
TORSDOF 8
ENDMDL
MODEL 2
REMARK VINA RESULT:      -6.5      2.203      8.519
REMARK  Name = 45784092
REMARK  12 active torsions:
REMARK  status: ('A' for Active; 'I' for Inactive)
REMARK    1  A    between atoms: N_2  and  C_15
REMARK    2  A    between atoms: N_2  and  C_21
REMARK    3  A    between atoms: N_5  and  C_31
REMARK    4  A    between atoms: C_8  and  C_12
REMARK    5  A    between atoms: C_9  and  C_15
REMARK    6  A    between atoms: C_11  and  C_16
REMARK    7  A    between atoms: C_12  and  C_17
REMARK    8  A    between atoms: C_12  and  C_18
REMARK    9  A    between atoms: C_13  and  C_19
REMARK   10  A    between atoms: C_16  and  C_20
REMARK   11  A    between atoms: C_21  and  C_22
REMARK   12  A    between atoms: C_23  and  C_26
REMARK                            x       y       z     vdW  Elec       q    Type
REMARK                         _______ _______ _______ _____ _____    ______ ____
ROOT
ATOM      8  C   UNL     1      12.720   7.567  21.281  0.00  0.00    +0.000 C 
ATOM      9  C   UNL     1      13.418   6.757  20.163  0.00  0.00    +0.029 C 
ATOM     10  C   UNL     1      12.982   9.069  21.101  0.00  0.00    +0.012 C 
ATOM     11  C   UNL     1      12.539   9.607  19.724  0.00  0.00    +0.024 C 
ATOM     13  C   UNL     1      12.840   8.645  18.584  0.00  0.00    -0.073 C 
ATOM     14  C   UNL     1      13.242   7.380  18.801  0.00  0.00    -0.023 C 
ATOM     19  C   UNL     1      12.614   9.138  17.181  0.00  0.00    +0.039 C 
ENDROOT
BRANCH   8  12
ATOM     12  C   UNL     1      11.215   7.268  21.330  0.00  0.00    -0.013 C 
ATOM     17  C   UNL     1      10.975   5.785  21.589  0.00  0.00    +0.007 C 
ATOM     18  C   UNL     1      10.539   8.120  22.400  0.00  0.00    +0.007 C 
ENDBRANCH   8  12
BRANCH   9  15
ATOM     15  C   UNL     1      14.913   6.577  20.445  0.00  0.00    +0.089 C 
BRANCH  15   2
ATOM      2  N   UNL     1      15.698   6.872  19.258  0.00  0.00    -0.311 NA
ATOM     32  H   UNL     1      15.948   7.859  19.229  0.00  0.00    +0.122 HD
BRANCH   2  21
ATOM     21  C   UNL     1      16.901   6.050  19.207  0.00  0.00    +0.116 C 
BRANCH  21  22
ATOM      6  N   UNL     1      19.961   7.525  21.846  0.00  0.00    -0.263 NA
ATOM     22  C   UNL     1      17.973   6.566  20.131  0.00  0.00    -0.031 A 
ATOM     24  C   UNL     1      19.156   5.855  20.293  0.00  0.00    +0.024 A 
ATOM     25  C   UNL     1      17.782   7.756  20.824  0.00  0.00    +0.024 A 
ATOM     27  C   UNL     1      20.110   6.372  21.154  0.00  0.00    +0.111 A 
ATOM     28  C   UNL     1      18.797   8.188  21.661  0.00  0.00    +0.111 A 
ENDBRANCH  21  22
ENDBRANCH   2  21
ENDBRANCH  15   2
ENDBRANCH   9  15
BRANCH  11  16
ATOM     16  C   UNL     1      13.163  10.992  19.515  0.00  0.00    +0.105 C 
BRANCH  16  20
ATOM      1  O   UNL     1      12.079  12.173  21.356  0.00  0.00    -0.419 OA
ATOM      3  N   UNL     1      14.310  12.092  21.507  0.00  0.00    -0.112 NA
ATOM      4  N   UNL     1      13.831  12.784  22.604  0.00  0.00    -0.106 NA
ATOM     20  C   UNL     1      13.252  11.754  20.806  0.00  0.00    +0.218 A 
ATOM     23  C   UNL     1      12.526  12.807  22.474  0.00  0.00    +0.266 A 
BRANCH  23  26
ATOM      5  N   UNL     1      11.107  12.812  24.492  0.00  0.00    -0.329 N 
ATOM      7  N   UNL     1      10.369  14.906  24.542  0.00  0.00    -0.243 NA
ATOM     26  C   UNL     1      11.662  13.430  23.408  0.00  0.00    +0.125 A 
ATOM     29  C   UNL     1      11.192  14.721  23.460  0.00  0.00    +0.143 A 
ATOM     30  C   UNL     1      10.340  13.737  25.144  0.00  0.00    +0.199 A 
ATOM     31  C   UNL     1      11.283  11.437  24.900  0.00  0.00    +0.150 C 
ENDBRANCH  23  26
ENDBRANCH  16  20
ENDBRANCH  11  16
TORSDOF 8
ENDMDL
MODEL 3
REMARK VINA RESULT:      -6.4     27.625     30.501
REMARK  Name = 45784092
REMARK  12 active torsions:
REMARK  status: ('A' for Active; 'I' for Inactive)
REMARK    1  A    between atoms: N_2  and  C_15
REMARK    2  A    between atoms: N_2  and  C_21
REMARK    3  A    between atoms: N_5  and  C_31
REMARK    4  A    between atoms: C_8  and  C_12
REMARK    5  A    between atoms: C_9  and  C_15
REMARK    6  A    between atoms: C_11  and  C_16
REMARK    7  A    between atoms: C_12  and  C_17
REMARK    8  A    between atoms: C_12  and  C_18
REMARK    9  A    between atoms: C_13  and  C_19
REMARK   10  A    between atoms: C_16  and  C_20
REMARK   11  A    between atoms: C_21  and  C_22
REMARK   12  A    between atoms: C_23  and  C_26
REMARK                            x       y       z     vdW  Elec       q    Type
REMARK                         _______ _______ _______ _____ _____    ______ ____
ROOT
ATOM      8  C   UNL     1      -3.824 -12.051  13.130  0.00  0.00    +0.000 C 
ATOM      9  C   UNL     1      -2.394 -11.478  12.996  0.00  0.00    +0.029 C 
ATOM     10  C   UNL     1      -4.868 -10.939  12.953  0.00  0.00    +0.012 C 
ATOM     11  C   UNL     1      -4.740 -10.188  11.612  0.00  0.00    +0.024 C 
ATOM     13  C   UNL     1      -3.296  -9.939  11.204  0.00  0.00    -0.073 C 
ATOM     14  C   UNL     1      -2.262 -10.517  11.842  0.00  0.00    -0.023 C 
ATOM     19  C   UNL     1      -3.053  -9.062  10.007  0.00  0.00    +0.039 C 
ENDROOT
BRANCH   8  12
ATOM     12  C   UNL     1      -4.062 -13.198  12.138  0.00  0.00    -0.013 C 
ATOM     17  C   UNL     1      -2.882 -14.165  12.150  0.00  0.00    +0.007 C 
ATOM     18  C   UNL     1      -5.360 -13.926  12.468  0.00  0.00    +0.007 C 
ENDBRANCH   8  12
BRANCH   9  15
ATOM     15  C   UNL     1      -1.940 -10.783  14.284  0.00  0.00    +0.089 C 
BRANCH  15   2
ATOM      2  N   UNL     1      -2.288 -11.581  15.447  0.00  0.00    -0.311 NA
ATOM     32  H   UNL     1      -1.542 -12.240  15.667  0.00  0.00    +0.122 HD
BRANCH   2  21
ATOM     21  C   UNL     1      -2.563 -10.734  16.602  0.00  0.00    +0.116 C 
BRANCH  21  22
ATOM      6  N   UNL     1      -6.666 -11.024  17.861  0.00  0.00    -0.263 NA
ATOM     22  C   UNL     1      -4.000 -10.835  17.042  0.00  0.00    -0.031 A 
ATOM     24  C   UNL     1      -4.970 -10.037  16.447  0.00  0.00    +0.024 A 
ATOM     25  C   UNL     1      -4.360 -11.728  18.045  0.00  0.00    +0.024 A 
ATOM     27  C   UNL     1      -6.276 -10.168  16.889  0.00  0.00    +0.111 A 
ATOM     28  C   UNL     1      -5.694 -11.783  18.415  0.00  0.00    +0.111 A 
ENDBRANCH  21  22
ENDBRANCH   2  21
ENDBRANCH  15   2
ENDBRANCH   9  15
BRANCH  11  16
ATOM     16  C   UNL     1      -5.566  -8.898  11.693  0.00  0.00    +0.105 C 
BRANCH  16  20
ATOM      1  O   UNL     1      -6.425  -8.426   9.457  0.00  0.00    -0.419 OA
ATOM      3  N   UNL     1      -7.935  -9.311  10.850  0.00  0.00    -0.112 NA
ATOM      4  N   UNL     1      -8.551  -9.096   9.631  0.00  0.00    -0.106 NA
ATOM     20  C   UNL     1      -6.695  -8.906  10.702  0.00  0.00    +0.218 A 
ATOM     23  C   UNL     1      -7.633  -8.578   8.850  0.00  0.00    +0.266 A 
BRANCH  23  26
ATOM      5  N   UNL     1      -7.279  -8.793   6.418  0.00  0.00    -0.329 N 
ATOM      7  N   UNL     1      -8.632  -7.231   5.606  0.00  0.00    -0.243 NA
ATOM     26  C   UNL     1      -7.874  -8.213   7.502  0.00  0.00    +0.125 A 
ATOM     29  C   UNL     1      -8.704  -7.252   6.976  0.00  0.00    +0.143 A 
ATOM     30  C   UNL     1      -7.765  -8.171   5.302  0.00  0.00    +0.199 A 
ATOM     31  C   UNL     1      -6.312  -9.867   6.421  0.00  0.00    +0.150 C 
ENDBRANCH  23  26
ENDBRANCH  16  20
ENDBRANCH  11  16
TORSDOF 8
ENDMDL
MODEL 4
REMARK VINA RESULT:      -6.4     15.459     18.725
REMARK  Name = 45784092
REMARK  12 active torsions:
REMARK  status: ('A' for Active; 'I' for Inactive)
REMARK    1  A    between atoms: N_2  and  C_15
REMARK    2  A    between atoms: N_2  and  C_21
REMARK    3  A    between atoms: N_5  and  C_31
REMARK    4  A    between atoms: C_8  and  C_12
REMARK    5  A    between atoms: C_9  and  C_15
REMARK    6  A    between atoms: C_11  and  C_16
REMARK    7  A    between atoms: C_12  and  C_17
REMARK    8  A    between atoms: C_12  and  C_18
REMARK    9  A    between atoms: C_13  and  C_19
REMARK   10  A    between atoms: C_16  and  C_20
REMARK   11  A    between atoms: C_21  and  C_22
REMARK   12  A    between atoms: C_23  and  C_26
REMARK                            x       y       z     vdW  Elec       q    Type
REMARK                         _______ _______ _______ _____ _____    ______ ____
ROOT
ATOM      8  C   UNL     1       9.252   6.116   7.366  0.00  0.00    +0.000 C 
ATOM      9  C   UNL     1       9.914   7.464   7.735  0.00  0.00    +0.029 C 
ATOM     10  C   UNL     1       9.261   5.910   5.845  0.00  0.00    +0.012 C 
ATOM     11  C   UNL     1      10.674   5.974   5.228  0.00  0.00    +0.024 C 
ATOM     13  C   UNL     1      11.547   7.053   5.849  0.00  0.00    -0.073 C 
ATOM     14  C   UNL     1      11.184   7.715   6.963  0.00  0.00    -0.023 C 
ATOM     19  C   UNL     1      12.880   7.324   5.207  0.00  0.00    +0.039 C 
ENDROOT
BRANCH   8  12
ATOM     12  C   UNL     1       9.931   4.944   8.089  0.00  0.00    -0.013 C 
ATOM     17  C   UNL     1       9.468   4.874   9.540  0.00  0.00    +0.007 C 
ATOM     18  C   UNL     1       9.641   3.634   7.365  0.00  0.00    +0.007 C 
ENDBRANCH   8  12
BRANCH   9  15
ATOM     15  C   UNL     1       8.956   8.642   7.523  0.00  0.00    +0.089 C 
BRANCH  15   2
ATOM      2  N   UNL     1       9.645   9.758   6.897  0.00  0.00    -0.311 NA
ATOM     32  H   UNL     1      10.499   9.441   6.439  0.00  0.00    +0.122 HD
BRANCH   2  21
ATOM     21  C   UNL     1       8.783  10.434   5.936  0.00  0.00    +0.116 C 
BRANCH  21  22
ATOM      6  N   UNL     1       9.241   8.836   1.969  0.00  0.00    -0.263 NA
ATOM     22  C   UNL     1       8.943   9.874   4.547  0.00  0.00    -0.031 A 
ATOM     24  C   UNL     1       7.898   9.179   3.951  0.00  0.00    +0.024 A 
ATOM     25  C   UNL     1      10.137  10.052   3.857  0.00  0.00    +0.024 A 
ATOM     27  C   UNL     1       8.096   8.683   2.672  0.00  0.00    +0.111 A 
ATOM     28  C   UNL     1      10.234   9.519   2.583  0.00  0.00    +0.111 A 
ENDBRANCH  21  22
ENDBRANCH   2  21
ENDBRANCH  15   2
ENDBRANCH   9  15
BRANCH  11  16
ATOM     16  C   UNL     1      10.538   6.120   3.707  0.00  0.00    +0.105 C 
BRANCH  16  20
ATOM      1  O   UNL     1      12.397   5.455   2.273  0.00  0.00    -0.419 OA
ATOM      3  N   UNL     1      11.087   3.760   2.918  0.00  0.00    -0.112 NA
ATOM      4  N   UNL     1      12.090   3.245   2.118  0.00  0.00    -0.106 NA
ATOM     20  C   UNL     1      11.307   5.053   2.982  0.00  0.00    +0.218 A 
ATOM     23  C   UNL     1      12.830   4.269   1.764  0.00  0.00    +0.266 A 
BRANCH  23  26
ATOM      5  N   UNL     1      13.988   4.407  -0.410  0.00  0.00    -0.329 N 
ATOM      7  N   UNL     1      16.058   3.804   0.122  0.00  0.00    -0.243 NA
ATOM     26  C   UNL     1      13.971   4.153   0.933  0.00  0.00    +0.125 A 
ATOM     29  C   UNL     1      15.260   3.783   1.237  0.00  0.00    +0.143 A 
ATOM     30  C   UNL     1      15.262   4.184  -0.853  0.00  0.00    +0.199 A 
ATOM     31  C   UNL     1      12.880   4.833  -1.233  0.00  0.00    +0.150 C 
ENDBRANCH  23  26
ENDBRANCH  16  20
ENDBRANCH  11  16
TORSDOF 8
ENDMDL
MODEL 5
REMARK VINA RESULT:      -6.4      1.578      2.635
REMARK  Name = 45784092
REMARK  12 active torsions:
REMARK  status: ('A' for Active; 'I' for Inactive)
REMARK    1  A    between atoms: N_2  and  C_15
REMARK    2  A    between atoms: N_2  and  C_21
REMARK    3  A    between atoms: N_5  and  C_31
REMARK    4  A    between atoms: C_8  and  C_12
REMARK    5  A    between atoms: C_9  and  C_15
REMARK    6  A    between atoms: C_11  and  C_16
REMARK    7  A    between atoms: C_12  and  C_17
REMARK    8  A    between atoms: C_12  and  C_18
REMARK    9  A    between atoms: C_13  and  C_19
REMARK   10  A    between atoms: C_16  and  C_20
REMARK   11  A    between atoms: C_21  and  C_22
REMARK   12  A    between atoms: C_23  and  C_26
REMARK                            x       y       z     vdW  Elec       q    Type
REMARK                         _______ _______ _______ _____ _____    ______ ____
ROOT
ATOM      8  C   UNL     1      13.867   9.355  18.323  0.00  0.00    +0.000 C 
ATOM      9  C   UNL     1      12.765   9.921  19.250  0.00  0.00    +0.029 C 
ATOM     10  C   UNL     1      14.787   8.403  19.100  0.00  0.00    +0.012 C 
ATOM     11  C   UNL     1      14.033   7.237  19.773  0.00  0.00    +0.024 C 
ATOM     13  C   UNL     1      12.700   7.657  20.374  0.00  0.00    -0.073 C 
ATOM     14  C   UNL     1      12.157   8.865  20.137  0.00  0.00    -0.023 C 
ATOM     19  C   UNL     1      11.963   6.645  21.208  0.00  0.00    +0.039 C 
ENDROOT
BRANCH   8  12
ATOM     12  C   UNL     1      13.261   8.662  17.095  0.00  0.00    -0.013 C 
ATOM     17  C   UNL     1      11.861   9.199  16.817  0.00  0.00    +0.007 C 
ATOM     18  C   UNL     1      14.163   8.850  15.880  0.00  0.00    +0.007 C 
ENDBRANCH   8  12
BRANCH   9  15
ATOM     15  C   UNL     1      13.293  11.067  20.121  0.00  0.00    +0.089 C 
BRANCH  15   2
ATOM      2  N   UNL     1      12.242  12.034  20.387  0.00  0.00    -0.311 NA
ATOM     32  H   UNL     1      11.375  11.562  20.642  0.00  0.00    +0.122 HD
BRANCH   2  21
ATOM     21  C   UNL     1      12.636  12.961  21.441  0.00  0.00    +0.116 C 
BRANCH  21  22
ATOM      6  N   UNL     1      11.700  11.431  25.351  0.00  0.00    -0.263 NA
ATOM     22  C   UNL     1      12.309  12.425  22.810  0.00  0.00    -0.031 A 
ATOM     24  C   UNL     1      13.158  12.681  23.881  0.00  0.00    +0.024 A 
ATOM     25  C   UNL     1      11.156  11.674  23.007  0.00  0.00    +0.024 A 
ATOM     27  C   UNL     1      12.812  12.166  25.119  0.00  0.00    +0.111 A 
ATOM     28  C   UNL     1      10.900  11.204  24.285  0.00  0.00    +0.111 A 
ENDBRANCH  21  22
ENDBRANCH   2  21
ENDBRANCH  15   2
ENDBRANCH   9  15
BRANCH  11  16
ATOM     16  C   UNL     1      14.965   6.576  20.796  0.00  0.00    +0.105 C 
BRANCH  16  20
ATOM      1  O   UNL     1      17.385   6.323  20.983  0.00  0.00    -0.419 OA
ATOM      3  N   UNL     1      16.565   5.818  18.963  0.00  0.00    -0.112 NA
ATOM      4  N   UNL     1      17.935   5.632  18.927  0.00  0.00    -0.106 NA
ATOM     20  C   UNL     1      16.289   6.220  20.182  0.00  0.00    +0.218 A 
ATOM     23  C   UNL     1      18.371   5.939  20.126  0.00  0.00    +0.266 A 
BRANCH  23  26
ATOM      5  N   UNL     1      20.464   6.928  20.982  0.00  0.00    -0.329 N 
ATOM      7  N   UNL     1      21.859   5.202  20.916  0.00  0.00    -0.243 NA
ATOM     26  C   UNL     1      19.737   5.877  20.497  0.00  0.00    +0.125 A 
ATOM     29  C   UNL     1      20.620   4.824  20.465  0.00  0.00    +0.143 A 
ATOM     30  C   UNL     1      21.731   6.475  21.220  0.00  0.00    +0.199 A 
ATOM     31  C   UNL     1      20.002   8.277  21.212  0.00  0.00    +0.150 C 
ENDBRANCH  23  26
ENDBRANCH  16  20
ENDBRANCH  11  16
TORSDOF 8
ENDMDL
MODEL 6
REMARK VINA RESULT:      -6.4     27.042     30.201
REMARK  Name = 45784092
REMARK  12 active torsions:
REMARK  status: ('A' for Active; 'I' for Inactive)
REMARK    1  A    between atoms: N_2  and  C_15
REMARK    2  A    between atoms: N_2  and  C_21
REMARK    3  A    between atoms: N_5  and  C_31
REMARK    4  A    between atoms: C_8  and  C_12
REMARK    5  A    between atoms: C_9  and  C_15
REMARK    6  A    between atoms: C_11  and  C_16
REMARK    7  A    between atoms: C_12  and  C_17
REMARK    8  A    between atoms: C_12  and  C_18
REMARK    9  A    between atoms: C_13  and  C_19
REMARK   10  A    between atoms: C_16  and  C_20
REMARK   11  A    between atoms: C_21  and  C_22
REMARK   12  A    between atoms: C_23  and  C_26
REMARK                            x       y       z     vdW  Elec       q    Type
REMARK                         _______ _______ _______ _____ _____    ______ ____
ROOT
ATOM      8  C   UNL     1      -4.048 -11.886  12.264  0.00  0.00    +0.000 C 
ATOM      9  C   UNL     1      -3.241 -11.324  13.459  0.00  0.00    +0.029 C 
ATOM     10  C   UNL     1      -4.268 -10.797  11.204  0.00  0.00    +0.012 C 
ATOM     11  C   UNL     1      -2.955 -10.172  10.688  0.00  0.00    +0.024 C 
ATOM     13  C   UNL     1      -1.925  -9.959  11.787  0.00  0.00    -0.073 C 
ATOM     14  C   UNL     1      -2.077 -10.473  13.021  0.00  0.00    -0.023 C 
ATOM     19  C   UNL     1      -0.678  -9.195  11.433  0.00  0.00    +0.039 C 
ENDROOT
BRANCH   8  12
ATOM     12  C   UNL     1      -3.365 -13.119  11.659  0.00  0.00    -0.013 C 
ATOM     17  C   UNL     1      -3.090 -14.160  12.740  0.00  0.00    +0.007 C 
ATOM     18  C   UNL     1      -4.223 -13.710  10.546  0.00  0.00    +0.007 C 
ENDBRANCH   8  12
BRANCH   9  15
ATOM     15  C   UNL     1      -4.128 -10.513  14.409  0.00  0.00    +0.089 C 
BRANCH  15   2
ATOM      2  N   UNL     1      -3.587 -10.531  15.757  0.00  0.00    -0.311 NA
ATOM     32  H   UNL     1      -3.832  -9.676  16.254  0.00  0.00    +0.122 HD
BRANCH   2  21
ATOM     21  C   UNL     1      -4.062 -11.694  16.498  0.00  0.00    +0.116 C 
BRANCH  21  22
ATOM      6  N   UNL     1      -6.646 -10.576  19.750  0.00  0.00    -0.263 NA
ATOM     22  C   UNL     1      -4.967 -11.302  17.636  0.00  0.00    -0.031 A 
ATOM     24  C   UNL     1      -6.105 -10.541  17.393  0.00  0.00    +0.024 A 
ATOM     25  C   UNL     1      -4.667 -11.701  18.934  0.00  0.00    +0.024 A 
ATOM     27  C   UNL     1      -6.904 -10.207  18.475  0.00  0.00    +0.111 A 
ATOM     28  C   UNL     1      -5.531 -11.316  19.946  0.00  0.00    +0.111 A 
ENDBRANCH  21  22
ENDBRANCH   2  21
ENDBRANCH  15   2
ENDBRANCH   9  15
BRANCH  11  16
ATOM     16  C   UNL     1      -3.292  -8.882   9.931  0.00  0.00    +0.105 C 
BRANCH  16  20
ATOM      1  O   UNL     1      -5.580  -8.121   9.550  0.00  0.00    -0.419 OA
ATOM      3  N   UNL     1      -4.958  -9.837   8.257  0.00  0.00    -0.112 NA
ATOM      4  N   UNL     1      -6.264  -9.513   7.938  0.00  0.00    -0.106 NA
ATOM     20  C   UNL     1      -4.599  -8.999   9.201  0.00  0.00    +0.218 A 
ATOM     23  C   UNL     1      -6.585  -8.507   8.718  0.00  0.00    +0.266 A 
BRANCH  23  26
ATOM      5  N   UNL     1      -8.930  -8.268   9.447  0.00  0.00    -0.329 N 
ATOM      7  N   UNL     1      -9.616  -6.525   8.254  0.00  0.00    -0.243 NA
ATOM     26  C   UNL     1      -7.855  -7.881   8.696  0.00  0.00    +0.125 A 
ATOM     29  C   UNL     1      -8.304  -6.805   7.968  0.00  0.00    +0.143 A 
ATOM     30  C   UNL     1      -9.963  -7.424   9.148  0.00  0.00    +0.199 A 
ATOM     31  C   UNL     1      -8.989  -9.360  10.390  0.00  0.00    +0.150 C 
ENDBRANCH  23  26
ENDBRANCH  16  20
ENDBRANCH  11  16
TORSDOF 8
ENDMDL
MODEL 7
REMARK VINA RESULT:      -6.4     27.408     30.930
REMARK  Name = 45784092
REMARK  12 active torsions:
REMARK  status: ('A' for Active; 'I' for Inactive)
REMARK    1  A    between atoms: N_2  and  C_15
REMARK    2  A    between atoms: N_2  and  C_21
REMARK    3  A    between atoms: N_5  and  C_31
REMARK    4  A    between atoms: C_8  and  C_12
REMARK    5  A    between atoms: C_9  and  C_15
REMARK    6  A    between atoms: C_11  and  C_16
REMARK    7  A    between atoms: C_12  and  C_17
REMARK    8  A    between atoms: C_12  and  C_18
REMARK    9  A    between atoms: C_13  and  C_19
REMARK   10  A    between atoms: C_16  and  C_20
REMARK   11  A    between atoms: C_21  and  C_22
REMARK   12  A    between atoms: C_23  and  C_26
REMARK                            x       y       z     vdW  Elec       q    Type
REMARK                         _______ _______ _______ _____ _____    ______ ____
ROOT
ATOM      8  C   UNL     1      -4.538 -10.631  17.442  0.00  0.00    +0.000 C 
ATOM      9  C   UNL     1      -3.419 -11.382  16.683  0.00  0.00    +0.029 C 
ATOM     10  C   UNL     1      -5.650 -10.202  16.474  0.00  0.00    +0.012 C 
ATOM     11  C   UNL     1      -6.264 -11.379  15.687  0.00  0.00    +0.024 C 
ATOM     13  C   UNL     1      -5.229 -12.402  15.243  0.00  0.00    -0.073 C 
ATOM     14  C   UNL     1      -3.960 -12.379  15.691  0.00  0.00    -0.023 C 
ATOM     19  C   UNL     1      -5.687 -13.497  14.319  0.00  0.00    +0.039 C 
ENDROOT
BRANCH   8  12
ATOM     12  C   UNL     1      -5.099 -11.479  18.591  0.00  0.00    -0.013 C 
ATOM     17  C   UNL     1      -3.964 -12.108  19.393  0.00  0.00    +0.007 C 
ATOM     18  C   UNL     1      -5.991 -10.632  19.491  0.00  0.00    +0.007 C 
ENDBRANCH   8  12
BRANCH   9  15
ATOM     15  C   UNL     1      -2.478 -10.413  15.959  0.00  0.00    +0.089 C 
BRANCH  15   2
ATOM      2  N   UNL     1      -1.756 -11.094  14.898  0.00  0.00    -0.311 NA
ATOM     32  H   UNL     1      -2.115 -12.040  14.770  0.00  0.00    +0.122 HD
BRANCH   2  21
ATOM     21  C   UNL     1      -1.842 -10.354  13.645  0.00  0.00    +0.116 C 
BRANCH  21  22
ATOM      6  N   UNL     1      -4.695 -12.100  10.941  0.00  0.00    -0.263 NA
ATOM     22  C   UNL     1      -2.840 -10.966  12.698  0.00  0.00    -0.031 A 
ATOM     24  C   UNL     1      -2.592 -12.210  12.130  0.00  0.00    +0.024 A 
ATOM     25  C   UNL     1      -4.014 -10.287  12.389  0.00  0.00    +0.024 A 
ATOM     27  C   UNL     1      -3.542 -12.728  11.265  0.00  0.00    +0.111 A 
ATOM     28  C   UNL     1      -4.901 -10.893  11.514  0.00  0.00    +0.111 A 
ENDBRANCH  21  22
ENDBRANCH   2  21
ENDBRANCH  15   2
ENDBRANCH   9  15
BRANCH  11  16
ATOM     16  C   UNL     1      -7.081 -10.814  14.519  0.00  0.00    +0.105 C 
BRANCH  16  20
ATOM      1  O   UNL     1      -8.755  -9.044  14.664  0.00  0.00    -0.419 OA
ATOM      3  N   UNL     1      -9.361 -10.960  15.647  0.00  0.00    -0.112 NA
ATOM      4  N   UNL     1     -10.393 -10.054  15.804  0.00  0.00    -0.106 NA
ATOM     20  C   UNL     1      -8.427 -10.328  14.975  0.00  0.00    +0.218 A 
ATOM     23  C   UNL     1      -9.996  -8.950  15.216  0.00  0.00    +0.266 A 
BRANCH  23  26
ATOM      5  N   UNL     1     -11.741  -7.520  14.219  0.00  0.00    -0.329 N 
ATOM      7  N   UNL     1     -11.712  -5.744  15.553  0.00  0.00    -0.243 NA
ATOM     26  C   UNL     1     -10.782  -7.773  15.158  0.00  0.00    +0.125 A 
ATOM     29  C   UNL     1     -10.782  -6.663  15.969  0.00  0.00    +0.143 A 
ATOM     30  C   UNL     1     -12.273  -6.291  14.496  0.00  0.00    +0.199 A 
ATOM     31  C   UNL     1     -12.142  -8.375  13.126  0.00  0.00    +0.150 C 
ENDBRANCH  23  26
ENDBRANCH  16  20
ENDBRANCH  11  16
TORSDOF 8
ENDMDL
MODEL 8
REMARK VINA RESULT:      -6.3     26.265     29.333
REMARK  Name = 45784092
REMARK  12 active torsions:
REMARK  status: ('A' for Active; 'I' for Inactive)
REMARK    1  A    between atoms: N_2  and  C_15
REMARK    2  A    between atoms: N_2  and  C_21
REMARK    3  A    between atoms: N_5  and  C_31
REMARK    4  A    between atoms: C_8  and  C_12
REMARK    5  A    between atoms: C_9  and  C_15
REMARK    6  A    between atoms: C_11  and  C_16
REMARK    7  A    between atoms: C_12  and  C_17
REMARK    8  A    between atoms: C_12  and  C_18
REMARK    9  A    between atoms: C_13  and  C_19
REMARK   10  A    between atoms: C_16  and  C_20
REMARK   11  A    between atoms: C_21  and  C_22
REMARK   12  A    between atoms: C_23  and  C_26
REMARK                            x       y       z     vdW  Elec       q    Type
REMARK                         _______ _______ _______ _____ _____    ______ ____
ROOT
ATOM      8  C   UNL     1     -13.438  10.579  21.976  0.00  0.00    +0.000 C 
ATOM      9  C   UNL     1     -12.126  10.651  21.160  0.00  0.00    +0.029 C 
ATOM     10  C   UNL     1     -14.402   9.558  21.355  0.00  0.00    +0.012 C 
ATOM     11  C   UNL     1     -13.797   8.144  21.230  0.00  0.00    +0.024 C 
ATOM     13  C   UNL     1     -12.335   8.157  20.808  0.00  0.00    -0.073 C 
ATOM     14  C   UNL     1     -11.610   9.289  20.773  0.00  0.00    -0.023 C 
ATOM     19  C   UNL     1     -11.694   6.835  20.483  0.00  0.00    +0.039 C 
ENDROOT
BRANCH   8  12
ATOM     12  C   UNL     1     -13.162  10.257  23.451  0.00  0.00    -0.013 C 
ATOM     17  C   UNL     1     -12.146  11.237  24.028  0.00  0.00    +0.007 C 
ATOM     18  C   UNL     1     -14.458  10.287  24.253  0.00  0.00    +0.007 C 
ENDBRANCH   8  12
BRANCH   9  15
ATOM     15  C   UNL     1     -12.291  11.504  19.897  0.00  0.00    +0.089 C 
BRANCH  15   2
ATOM      2  N   UNL     1     -11.125  11.380  19.039  0.00  0.00    -0.311 NA
ATOM     32  H   UNL     1     -10.698  10.461  19.144  0.00  0.00    +0.122 HD
BRANCH   2  21
ATOM     21  C   UNL     1     -11.475  11.612  17.642  0.00  0.00    +0.116 C 
BRANCH  21  22
ATOM      6  N   UNL     1     -10.706   8.153  15.204  0.00  0.00    -0.263 NA
ATOM     22  C   UNL     1     -11.206  10.401  16.788  0.00  0.00    -0.031 A 
ATOM     24  C   UNL     1     -11.487  10.431  15.427  0.00  0.00    +0.024 A 
ATOM     25  C   UNL     1     -10.675   9.250  17.359  0.00  0.00    +0.024 A 
ATOM     27  C   UNL     1     -11.222   9.291  14.686  0.00  0.00    +0.111 A 
ATOM     28  C   UNL     1     -10.446   8.164  16.530  0.00  0.00    +0.111 A 
ENDBRANCH  21  22
ENDBRANCH   2  21
ENDBRANCH  15   2
ENDBRANCH   9  15
BRANCH  11  16
ATOM     16  C   UNL     1     -14.680   7.314  20.290  0.00  0.00    +0.105 C 
BRANCH  16  20
ATOM      1  O   UNL     1     -15.217   6.163  22.374  0.00  0.00    -0.419 OA
ATOM      3  N   UNL     1     -16.048   5.179  20.545  0.00  0.00    -0.112 NA
ATOM      4  N   UNL     1     -16.425   4.428  21.643  0.00  0.00    -0.106 NA
ATOM     20  C   UNL     1     -15.345   6.182  21.019  0.00  0.00    +0.218 A 
ATOM     23  C   UNL     1     -15.917   5.039  22.688  0.00  0.00    +0.266 A 
BRANCH  23  26
ATOM      5  N   UNL     1     -16.843   5.190  24.969  0.00  0.00    -0.329 N 
ATOM      7  N   UNL     1     -15.978   3.394  25.947  0.00  0.00    -0.243 NA
ATOM     26  C   UNL     1     -16.082   4.574  24.016  0.00  0.00    +0.125 A 
ATOM     29  C   UNL     1     -15.559   3.469  24.643  0.00  0.00    +0.143 A 
ATOM     30  C   UNL     1     -16.750   4.445  26.112  0.00  0.00    +0.199 A 
ATOM     31  C   UNL     1     -17.614   6.403  24.824  0.00  0.00    +0.150 C 
ENDBRANCH  23  26
ENDBRANCH  16  20
ENDBRANCH  11  16
TORSDOF 8
ENDMDL
MODEL 9
REMARK VINA RESULT:      -6.3      5.030      8.231
REMARK  Name = 45784092
REMARK  12 active torsions:
REMARK  status: ('A' for Active; 'I' for Inactive)
REMARK    1  A    between atoms: N_2  and  C_15
REMARK    2  A    between atoms: N_2  and  C_21
REMARK    3  A    between atoms: N_5  and  C_31
REMARK    4  A    between atoms: C_8  and  C_12
REMARK    5  A    between atoms: C_9  and  C_15
REMARK    6  A    between atoms: C_11  and  C_16
REMARK    7  A    between atoms: C_12  and  C_17
REMARK    8  A    between atoms: C_12  and  C_18
REMARK    9  A    between atoms: C_13  and  C_19
REMARK   10  A    between atoms: C_16  and  C_20
REMARK   11  A    between atoms: C_21  and  C_22
REMARK   12  A    between atoms: C_23  and  C_26
REMARK                            x       y       z     vdW  Elec       q    Type
REMARK                         _______ _______ _______ _____ _____    ______ ____
ROOT
ATOM      8  C   UNL     1      13.410   9.469  19.967  0.00  0.00    +0.000 C 
ATOM      9  C   UNL     1      12.317   8.376  20.000  0.00  0.00    +0.029 C 
ATOM     10  C   UNL     1      14.144   9.456  18.618  0.00  0.00    +0.012 C 
ATOM     11  C   UNL     1      13.203   9.634  17.408  0.00  0.00    +0.024 C 
ATOM     13  C   UNL     1      11.889   8.883  17.561  0.00  0.00    -0.073 C 
ATOM     14  C   UNL     1      11.517   8.319  18.724  0.00  0.00    -0.023 C 
ATOM     19  C   UNL     1      10.971   8.840  16.370  0.00  0.00    +0.039 C 
ENDROOT
BRANCH   8  12
ATOM     12  C   UNL     1      12.823  10.856  20.265  0.00  0.00    -0.013 C 
ATOM     17  C   UNL     1      11.881  10.788  21.463  0.00  0.00    +0.007 C 
ATOM     18  C   UNL     1      13.939  11.864  20.513  0.00  0.00    +0.007 C 
ENDBRANCH   8  12
BRANCH   9  15
ATOM     15  C   UNL     1      12.910   6.992  20.284  0.00  0.00    +0.089 C 
BRANCH  15   2
ATOM      2  N   UNL     1      14.054   7.097  21.174  0.00  0.00    -0.311 NA
ATOM     32  H   UNL     1      13.826   6.728  22.096  0.00  0.00    +0.122 HD
BRANCH   2  21
ATOM     21  C   UNL     1      15.210   6.397  20.627  0.00  0.00    +0.116 C 
BRANCH  21  22
ATOM      6  N   UNL     1      18.890   8.434  21.530  0.00  0.00    -0.263 NA
ATOM     22  C   UNL     1      16.499   7.109  20.943  0.00  0.00    -0.031 A 
ATOM     24  C   UNL     1      17.713   6.447  20.811  0.00  0.00    +0.024 A 
ATOM     25  C   UNL     1      16.477   8.433  21.368  0.00  0.00    +0.024 A 
ATOM     27  C   UNL     1      18.870   7.147  21.114  0.00  0.00    +0.111 A 
ATOM     28  C   UNL     1      17.688   9.044  21.646  0.00  0.00    +0.111 A 
ENDBRANCH  21  22
ENDBRANCH   2  21
ENDBRANCH  15   2
ENDBRANCH   9  15
BRANCH  11  16
ATOM     16  C   UNL     1      13.965   9.248  16.135  0.00  0.00    +0.105 C 
BRANCH  16  20
ATOM      1  O   UNL     1      13.330  11.001  14.560  0.00  0.00    -0.419 OA
ATOM      3  N   UNL     1      15.466  11.091  15.218  0.00  0.00    -0.112 NA
ATOM      4  N   UNL     1      15.246  12.133  14.335  0.00  0.00    -0.106 NA
ATOM     20  C   UNL     1      14.320  10.458  15.319  0.00  0.00    +0.218 A 
ATOM     23  C   UNL     1      13.987  12.040  13.977  0.00  0.00    +0.266 A 
BRANCH  23  26
ATOM      5  N   UNL     1      12.895  14.175  13.398  0.00  0.00    -0.329 N 
ATOM      7  N   UNL     1      12.483  13.920  11.231  0.00  0.00    -0.243 NA
ATOM     26  C   UNL     1      13.368  12.936  13.070  0.00  0.00    +0.125 A 
ATOM     29  C   UNL     1      13.103  12.802  11.728  0.00  0.00    +0.143 A 
ATOM     30  C   UNL     1      12.373  14.729  12.262  0.00  0.00    +0.199 A 
ATOM     31  C   UNL     1      12.928  14.809  14.696  0.00  0.00    +0.150 C 
ENDBRANCH  23  26
ENDBRANCH  16  20
ENDBRANCH  11  16
TORSDOF 8
ENDMDL
MODEL 10
REMARK VINA RESULT:      -6.2      4.536      9.690
REMARK  Name = 45784092
REMARK  12 active torsions:
REMARK  status: ('A' for Active; 'I' for Inactive)
REMARK    1  A    between atoms: N_2  and  C_15
REMARK    2  A    between atoms: N_2  and  C_21
REMARK    3  A    between atoms: N_5  and  C_31
REMARK    4  A    between atoms: C_8  and  C_12
REMARK    5  A    between atoms: C_9  and  C_15
REMARK    6  A    between atoms: C_11  and  C_16
REMARK    7  A    between atoms: C_12  and  C_17
REMARK    8  A    between atoms: C_12  and  C_18
REMARK    9  A    between atoms: C_13  and  C_19
REMARK   10  A    between atoms: C_16  and  C_20
REMARK   11  A    between atoms: C_21  and  C_22
REMARK   12  A    between atoms: C_23  and  C_26
REMARK                            x       y       z     vdW  Elec       q    Type
REMARK                         _______ _______ _______ _____ _____    ______ ____
ROOT
ATOM      8  C   UNL     1      20.099   6.638  22.024  0.00  0.00    +0.000 C 
ATOM      9  C   UNL     1      20.675   7.893  22.723  0.00  0.00    +0.029 C 
ATOM     10  C   UNL     1      18.581   6.773  21.844  0.00  0.00    +0.012 C 
ATOM     11  C   UNL     1      18.167   8.034  21.057  0.00  0.00    +0.024 C 
ATOM     13  C   UNL     1      18.997   9.258  21.415  0.00  0.00    -0.073 C 
ATOM     14  C   UNL     1      20.108   9.174  22.170  0.00  0.00    -0.023 C 
ATOM     19  C   UNL     1      18.567  10.580  20.842  0.00  0.00    +0.039 C 
ENDROOT
BRANCH   8  12
ATOM     12  C   UNL     1      20.797   6.376  20.682  0.00  0.00    -0.013 C 
ATOM     17  C   UNL     1      22.228   6.902  20.715  0.00  0.00    +0.007 C 
ATOM     18  C   UNL     1      20.774   4.888  20.353  0.00  0.00    +0.007 C 
ENDBRANCH   8  12
BRANCH   9  15
ATOM     15  C   UNL     1      20.445   7.852  24.237  0.00  0.00    +0.089 C 
BRANCH  15   2
ATOM      2  N   UNL     1      20.700   6.521  24.760  0.00  0.00    -0.311 NA
ATOM     32  H   UNL     1      20.533   5.816  24.043  0.00  0.00    +0.122 HD
BRANCH   2  21
ATOM     21  C   UNL     1      22.063   6.407  25.265  0.00  0.00    +0.116 C 
BRANCH  21  22
ATOM      6  N   UNL     1      24.676   4.522  22.415  0.00  0.00    -0.263 NA
ATOM     22  C   UNL     1      22.978   5.748  24.267  0.00  0.00    -0.031 A 
ATOM     24  C   UNL     1      24.172   6.360  23.904  0.00  0.00    +0.024 A 
ATOM     25  C   UNL     1      22.632   4.523  23.707  0.00  0.00    +0.024 A 
ATOM     27  C   UNL     1      24.978   5.712  22.982  0.00  0.00    +0.111 A 
ATOM     28  C   UNL     1      23.508   3.958  22.795  0.00  0.00    +0.111 A 
ENDBRANCH  21  22
ENDBRANCH   2  21
ENDBRANCH  15   2
ENDBRANCH   9  15
BRANCH  11  16
ATOM     16  C   UNL     1      16.662   8.258  21.247  0.00  0.00    +0.105 C 
BRANCH  16  20
ATOM      1  O   UNL     1      15.171   8.655  19.356  0.00  0.00    -0.419 OA
ATOM      3  N   UNL     1      15.760   6.514  19.623  0.00  0.00    -0.112 NA
ATOM      4  N   UNL     1      14.922   6.593  18.526  0.00  0.00    -0.106 NA
ATOM     20  C   UNL     1      15.878   7.741  20.075  0.00  0.00    +0.218 A 
ATOM     23  C   UNL     1      14.603   7.860  18.408  0.00  0.00    +0.266 A 
BRANCH  23  26
ATOM      5  N   UNL     1      12.433   8.680  17.566  0.00  0.00    -0.329 N 
ATOM      7  N   UNL     1      12.884   9.093  15.432  0.00  0.00    -0.243 NA
ATOM     26  C   UNL     1      13.749   8.356  17.392  0.00  0.00    +0.125 A 
ATOM     29  C   UNL     1      14.004   8.620  16.067  0.00  0.00    +0.143 A 
ATOM     30  C   UNL     1      11.956   9.118  16.363  0.00  0.00    +0.199 A 
ATOM     31  C   UNL     1      11.665   8.587  18.786  0.00  0.00    +0.150 C 
ENDBRANCH  23  26
ENDBRANCH  16  20
ENDBRANCH  11  16
TORSDOF 8
ENDMDL
