MODEL 1
REMARK VINA RESULT:      -7.9      0.000      0.000
REMARK  Name = 51137379
REMARK  5 active torsions:
REMARK  status: ('A' for Active; 'I' for Inactive)
REMARK    1  A    between atoms: N_3  and  C_8
REMARK    2  A    between atoms: C_10  and  C_17
REMARK    3  A    between atoms: C_18  and  C_20
REMARK    4  A    between atoms: C_19  and  C_21
REMARK    5  A    between atoms: C_21  and  C_22
REMARK                            x       y       z     vdW  Elec       q    Type
REMARK                         _______ _______ _______ _____ _____    ______ ____
ROOT
ATOM      1  O   UNL     1      13.567   9.156  18.155  0.00  0.00    -0.424 OA
ATOM      5  N   UNL     1      13.816   8.561  16.013  0.00  0.00    -0.112 NA
ATOM      6  N   UNL     1      13.533   7.421  16.742  0.00  0.00    -0.112 NA
ATOM     17  C   UNL     1      13.826   9.548  16.878  0.00  0.00    +0.222 A 
ATOM     19  C   UNL     1      13.396   7.816  17.987  0.00  0.00    +0.222 A 
ENDROOT
BRANCH  17  10
ATOM      3  N   UNL     1      15.748  12.562  16.074  0.00  0.00    -0.299 NA
ATOM      9  C   UNL     1      15.182  11.289  15.622  0.00  0.00    +0.097 C 
ATOM     10  C   UNL     1      14.078  11.021  16.654  0.00  0.00    +0.092 C 
ATOM     11  C   UNL     1      15.850  12.435  17.528  0.00  0.00    +0.085 C 
ATOM     12  C   UNL     1      14.519  11.799  17.907  0.00  0.00    +0.029 C 
BRANCH   3   8
ATOM      2  O   UNL     1      21.031  10.432  13.760  0.00  0.00    -0.276 OA
ATOM      4  N   UNL     1      19.745  12.068  14.791  0.00  0.00    -0.302 N 
ATOM      8  C   UNL     1      17.037  12.853  15.450  0.00  0.00    +0.060 C 
ATOM     13  C   UNL     1      18.149  12.839  16.507  0.00  0.00    +0.038 C 
ATOM     14  C   UNL     1      17.331  11.827  14.348  0.00  0.00    +0.038 C 
ATOM     15  C   UNL     1      19.519  13.046  15.863  0.00  0.00    +0.109 C 
ATOM     16  C   UNL     1      18.717  12.055  13.747  0.00  0.00    +0.109 C 
ATOM     18  C   UNL     1      20.846  11.221  14.691  0.00  0.00    +0.212 C 
ATOM     20  C   UNL     1      21.858  11.292  15.807  0.00  0.00    +0.109 C 
ENDBRANCH   3   8
ENDBRANCH  17  10
BRANCH  19  21
ATOM     21  C   UNL     1      13.087   7.030  19.188  0.00  0.00    +0.135 C 
BRANCH  21  22
ATOM      7  N   UNL     1      15.255   7.229  22.179  0.00  0.00    -0.360 N 
ATOM     22  C   UNL     1      14.189   7.019  20.244  0.00  0.00    -0.013 A 
ATOM     23  C   UNL     1      15.546   6.641  20.047  0.00  0.00    +0.003 A 
ATOM     24  C   UNL     1      14.040   7.375  21.564  0.00  0.00    +0.087 A 
ATOM     25  C   UNL     1      16.193   6.782  21.276  0.00  0.00    +0.047 A 
ATOM     26  C   UNL     1      16.290   6.192  18.938  0.00  0.00    +0.010 A 
ATOM     27  C   UNL     1      17.551   6.496  21.453  0.00  0.00    +0.026 A 
ATOM     28  C   UNL     1      17.649   5.900  19.099  0.00  0.00    +0.001 A 
ATOM     29  C   UNL     1      18.269   6.051  20.338  0.00  0.00    +0.002 A 
ATOM     30  H   UNL     1      15.436   7.422  23.154  0.00  0.00    +0.165 HD
ENDBRANCH  21  22
ENDBRANCH  19  21
TORSDOF 4
ENDMDL
MODEL 2
REMARK VINA RESULT:      -7.8     29.310     32.692
REMARK  Name = 51137379
REMARK  5 active torsions:
REMARK  status: ('A' for Active; 'I' for Inactive)
REMARK    1  A    between atoms: N_3  and  C_8
REMARK    2  A    between atoms: C_10  and  C_17
REMARK    3  A    between atoms: C_18  and  C_20
REMARK    4  A    between atoms: C_19  and  C_21
REMARK    5  A    between atoms: C_21  and  C_22
REMARK                            x       y       z     vdW  Elec       q    Type
REMARK                         _______ _______ _______ _____ _____    ______ ____
ROOT
ATOM      1  O   UNL     1     -16.060   2.454  26.421  0.00  0.00    -0.424 OA
ATOM      5  N   UNL     1     -16.815   4.555  26.284  0.00  0.00    -0.112 NA
ATOM      6  N   UNL     1     -17.035   4.106  27.573  0.00  0.00    -0.112 NA
ATOM     17  C   UNL     1     -16.245   3.559  25.648  0.00  0.00    +0.222 A 
ATOM     19  C   UNL     1     -16.579   2.875  27.607  0.00  0.00    +0.222 A 
ENDROOT
BRANCH  17  10
ATOM      3  N   UNL     1     -15.083   4.785  22.396  0.00  0.00    -0.299 NA
ATOM      9  C   UNL     1     -14.824   4.614  23.828  0.00  0.00    +0.097 C 
ATOM     10  C   UNL     1     -15.777   3.474  24.214  0.00  0.00    +0.092 C 
ATOM     11  C   UNL     1     -16.538   4.710  22.265  0.00  0.00    +0.085 C 
ATOM     12  C   UNL     1     -16.900   3.533  23.163  0.00  0.00    +0.029 C 
BRANCH   3   8
ATOM      2  O   UNL     1     -13.333   8.099  17.523  0.00  0.00    -0.276 OA
ATOM      4  N   UNL     1     -13.227   7.529  19.772  0.00  0.00    -0.302 N 
ATOM      8  C   UNL     1     -14.542   6.039  21.877  0.00  0.00    +0.060 C 
ATOM     13  C   UNL     1     -13.039   5.893  21.608  0.00  0.00    +0.038 C 
ATOM     14  C   UNL     1     -15.281   6.440  20.594  0.00  0.00    +0.038 C 
ATOM     15  C   UNL     1     -12.469   7.161  20.974  0.00  0.00    +0.109 C 
ATOM     16  C   UNL     1     -14.667   7.698  19.982  0.00  0.00    +0.109 C 
ATOM     18  C   UNL     1     -12.679   7.756  18.511  0.00  0.00    +0.212 C 
ATOM     20  C   UNL     1     -11.190   7.559  18.376  0.00  0.00    +0.109 C 
ENDBRANCH   3   8
ENDBRANCH  17  10
BRANCH  19  21
ATOM     21  C   UNL     1     -16.550   1.919  28.721  0.00  0.00    +0.135 C 
BRANCH  21  22
ATOM      7  N   UNL     1     -13.324   1.408  30.456  0.00  0.00    -0.360 N 
ATOM     22  C   UNL     1     -15.280   1.961  29.564  0.00  0.00    -0.013 A 
ATOM     23  C   UNL     1     -14.905   2.983  30.480  0.00  0.00    +0.003 A 
ATOM     24  C   UNL     1     -14.289   1.007  29.571  0.00  0.00    +0.087 A 
ATOM     25  C   UNL     1     -13.674   2.612  31.026  0.00  0.00    +0.047 A 
ATOM     26  C   UNL     1     -15.494   4.192  30.899  0.00  0.00    +0.010 A 
ATOM     27  C   UNL     1     -13.002   3.391  31.973  0.00  0.00    +0.026 A 
ATOM     28  C   UNL     1     -14.833   4.983  31.845  0.00  0.00    +0.001 A 
ATOM     29  C   UNL     1     -13.606   4.587  32.374  0.00  0.00    +0.002 A 
ATOM     30  H   UNL     1     -12.478   0.896  30.662  0.00  0.00    +0.165 HD
ENDBRANCH  21  22
ENDBRANCH  19  21
TORSDOF 4
ENDMDL
MODEL 3
REMARK VINA RESULT:      -7.8     29.551     33.807
REMARK  Name = 51137379
REMARK  5 active torsions:
REMARK  status: ('A' for Active; 'I' for Inactive)
REMARK    1  A    between atoms: N_3  and  C_8
REMARK    2  A    between atoms: C_10  and  C_17
REMARK    3  A    between atoms: C_18  and  C_20
REMARK    4  A    between atoms: C_19  and  C_21
REMARK    5  A    between atoms: C_21  and  C_22
REMARK                            x       y       z     vdW  Elec       q    Type
REMARK                         _______ _______ _______ _____ _____    ______ ____
ROOT
ATOM      1  O   UNL     1     -15.396   3.990  24.413  0.00  0.00    -0.424 OA
ATOM      5  N   UNL     1     -17.270   3.477  23.305  0.00  0.00    -0.112 NA
ATOM      6  N   UNL     1     -16.366   3.995  22.397  0.00  0.00    -0.112 NA
ATOM     17  C   UNL     1     -16.662   3.493  24.467  0.00  0.00    +0.222 A 
ATOM     19  C   UNL     1     -15.287   4.281  23.088  0.00  0.00    +0.222 A 
ENDROOT
BRANCH  17  10
ATOM      3  N   UNL     1     -16.442   2.220  27.897  0.00  0.00    -0.299 NA
ATOM      9  C   UNL     1     -16.146   3.294  26.945  0.00  0.00    +0.097 C 
ATOM     10  C   UNL     1     -17.161   3.044  25.821  0.00  0.00    +0.092 C 
ATOM     11  C   UNL     1     -16.636   1.028  27.071  0.00  0.00    +0.085 C 
ATOM     12  C   UNL     1     -17.494   1.545  25.924  0.00  0.00    +0.029 C 
BRANCH   3   8
ATOM      2  O   UNL     1     -14.880   1.444  33.792  0.00  0.00    -0.276 OA
ATOM      4  N   UNL     1     -14.458   2.174  31.628  0.00  0.00    -0.302 N 
ATOM      8  C   UNL     1     -15.383   2.044  28.887  0.00  0.00    +0.060 C 
ATOM     13  C   UNL     1     -15.071   3.384  29.568  0.00  0.00    +0.038 C 
ATOM     14  C   UNL     1     -15.804   0.999  29.928  0.00  0.00    +0.038 C 
ATOM     15  C   UNL     1     -14.033   3.207  30.675  0.00  0.00    +0.109 C 
ATOM     16  C   UNL     1     -14.751   0.870  31.027  0.00  0.00    +0.109 C 
ATOM     18  C   UNL     1     -14.555   2.339  33.008  0.00  0.00    +0.212 C 
ATOM     20  C   UNL     1     -14.239   3.711  33.548  0.00  0.00    +0.109 C 
ENDBRANCH   3   8
ENDBRANCH  17  10
BRANCH  19  21
ATOM     21  C   UNL     1     -14.012   4.853  22.636  0.00  0.00    +0.135 C 
BRANCH  21  22
ATOM      7  N   UNL     1     -14.708   8.465  22.246  0.00  0.00    -0.360 N 
ATOM     22  C   UNL     1     -14.060   6.343  22.312  0.00  0.00    -0.013 A 
ATOM     23  C   UNL     1     -13.135   7.065  21.509  0.00  0.00    +0.003 A 
ATOM     24  C   UNL     1     -15.016   7.230  22.752  0.00  0.00    +0.087 A 
ATOM     25  C   UNL     1     -13.564   8.394  21.483  0.00  0.00    +0.047 A 
ATOM     26  C   UNL     1     -11.969   6.716  20.798  0.00  0.00    +0.010 A 
ATOM     27  C   UNL     1     -12.884   9.394  20.780  0.00  0.00    +0.026 A 
ATOM     28  C   UNL     1     -11.278   7.706  20.090  0.00  0.00    +0.001 A 
ATOM     29  C   UNL     1     -11.730   9.024  20.082  0.00  0.00    +0.002 A 
ATOM     30  H   UNL     1     -15.243   9.306  22.409  0.00  0.00    +0.165 HD
ENDBRANCH  21  22
ENDBRANCH  19  21
TORSDOF 4
ENDMDL
MODEL 4
REMARK VINA RESULT:      -7.4     28.194     30.874
REMARK  Name = 51137379
REMARK  5 active torsions:
REMARK  status: ('A' for Active; 'I' for Inactive)
REMARK    1  A    between atoms: N_3  and  C_8
REMARK    2  A    between atoms: C_10  and  C_17
REMARK    3  A    between atoms: C_18  and  C_20
REMARK    4  A    between atoms: C_19  and  C_21
REMARK    5  A    between atoms: C_21  and  C_22
REMARK                            x       y       z     vdW  Elec       q    Type
REMARK                         _______ _______ _______ _____ _____    ______ ____
ROOT
ATOM      1  O   UNL     1      -2.960 -10.606  12.453  0.00  0.00    -0.424 OA
ATOM      5  N   UNL     1      -3.281 -12.754  11.917  0.00  0.00    -0.112 NA
ATOM      6  N   UNL     1      -3.289 -12.017  10.748  0.00  0.00    -0.112 NA
ATOM     17  C   UNL     1      -3.086 -11.890  12.885  0.00  0.00    +0.222 A 
ATOM     19  C   UNL     1      -3.099 -10.768  11.109  0.00  0.00    +0.222 A 
ENDROOT
BRANCH  17  10
ATOM      3  N   UNL     1      -3.722 -11.304  16.446  0.00  0.00    -0.299 NA
ATOM      9  C   UNL     1      -4.247 -11.693  15.135  0.00  0.00    +0.097 C 
ATOM     10  C   UNL     1      -2.984 -12.122  14.375  0.00  0.00    +0.092 C 
ATOM     11  C   UNL     1      -2.511 -10.538  16.156  0.00  0.00    +0.085 C 
ATOM     12  C   UNL     1      -1.837 -11.367  15.069  0.00  0.00    +0.029 C 
BRANCH   3   8
ATOM      2  O   UNL     1      -8.726 -11.312  20.018  0.00  0.00    -0.276 OA
ATOM      4  N   UNL     1      -7.283 -10.314  18.495  0.00  0.00    -0.302 N 
ATOM      8  C   UNL     1      -4.689 -10.540  17.230  0.00  0.00    +0.060 C 
ATOM     13  C   UNL     1      -5.966 -10.308  16.411  0.00  0.00    +0.038 C 
ATOM     14  C   UNL     1      -5.015 -11.281  18.533  0.00  0.00    +0.038 C 
ATOM     15  C   UNL     1      -7.029  -9.592  17.243  0.00  0.00    +0.109 C 
ATOM     16  C   UNL     1      -6.096 -10.545  19.322  0.00  0.00    +0.109 C 
ATOM     18  C   UNL     1      -8.534 -10.738  18.943  0.00  0.00    +0.212 C 
ATOM     20  C   UNL     1      -9.705 -10.466  18.034  0.00  0.00    +0.109 C 
ENDBRANCH   3   8
ENDBRANCH  17  10
BRANCH  19  21
ATOM     21  C   UNL     1      -3.013  -9.558  10.281  0.00  0.00    +0.135 C 
BRANCH  21  22
ATOM      7  N   UNL     1      -6.217  -8.095   9.153  0.00  0.00    -0.360 N 
ATOM     22  C   UNL     1      -4.320  -9.154   9.607  0.00  0.00    -0.013 A 
ATOM     23  C   UNL     1      -4.893  -9.747   8.448  0.00  0.00    +0.003 A 
ATOM     24  C   UNL     1      -5.156  -8.141  10.017  0.00  0.00    +0.087 A 
ATOM     25  C   UNL     1      -6.083  -9.064   8.184  0.00  0.00    +0.047 A 
ATOM     26  C   UNL     1      -4.515 -10.802   7.594  0.00  0.00    +0.010 A 
ATOM     27  C   UNL     1      -6.916  -9.385   7.107  0.00  0.00    +0.026 A 
ATOM     28  C   UNL     1      -5.337 -11.134   6.511  0.00  0.00    +0.001 A 
ATOM     29  C   UNL     1      -6.520 -10.436   6.273  0.00  0.00    +0.002 A 
ATOM     30  H   UNL     1      -6.987  -7.444   9.216  0.00  0.00    +0.165 HD
ENDBRANCH  21  22
ENDBRANCH  19  21
TORSDOF 4
ENDMDL
MODEL 5
REMARK VINA RESULT:      -7.4      4.630      6.694
REMARK  Name = 51137379
REMARK  5 active torsions:
REMARK  status: ('A' for Active; 'I' for Inactive)
REMARK    1  A    between atoms: N_3  and  C_8
REMARK    2  A    between atoms: C_10  and  C_17
REMARK    3  A    between atoms: C_18  and  C_20
REMARK    4  A    between atoms: C_19  and  C_21
REMARK    5  A    between atoms: C_21  and  C_22
REMARK                            x       y       z     vdW  Elec       q    Type
REMARK                         _______ _______ _______ _____ _____    ______ ____
ROOT
ATOM      1  O   UNL     1      13.391   7.454  20.141  0.00  0.00    -0.424 OA
ATOM      5  N   UNL     1      14.709   8.302  18.546  0.00  0.00    -0.112 NA
ATOM      6  N   UNL     1      13.491   8.952  18.482  0.00  0.00    -0.112 NA
ATOM     17  C   UNL     1      14.605   7.438  19.527  0.00  0.00    +0.222 A 
ATOM     19  C   UNL     1      12.753   8.424  19.431  0.00  0.00    +0.222 A 
ENDROOT
BRANCH  17  10
ATOM      3  N   UNL     1      17.760   6.312  21.013  0.00  0.00    -0.299 NA
ATOM      9  C   UNL     1      16.499   7.041  21.171  0.00  0.00    +0.097 C 
ATOM     10  C   UNL     1      15.623   6.454  20.055  0.00  0.00    +0.092 C 
ATOM     11  C   UNL     1      17.998   6.278  19.570  0.00  0.00    +0.085 C 
ATOM     12  C   UNL     1      16.624   5.935  19.008  0.00  0.00    +0.029 C 
BRANCH   3   8
ATOM      2  O   UNL     1      21.753  10.965  21.468  0.00  0.00    -0.276 OA
ATOM      4  N   UNL     1      21.105   8.764  21.827  0.00  0.00    -0.302 N 
ATOM      8  C   UNL     1      18.861   6.937  21.743  0.00  0.00    +0.060 C 
ATOM     13  C   UNL     1      20.198   6.599  21.070  0.00  0.00    +0.038 C 
ATOM     14  C   UNL     1      18.659   8.456  21.802  0.00  0.00    +0.038 C 
ATOM     15  C   UNL     1      21.356   7.319  21.760  0.00  0.00    +0.109 C 
ATOM     16  C   UNL     1      19.847   9.138  22.477  0.00  0.00    +0.109 C 
ATOM     18  C   UNL     1      21.970   9.755  21.367  0.00  0.00    +0.212 C 
ATOM     20  C   UNL     1      23.243   9.288  20.707  0.00  0.00    +0.109 C 
ENDBRANCH   3   8
ENDBRANCH  17  10
BRANCH  19  21
ATOM     21  C   UNL     1      11.371   8.733  19.822  0.00  0.00    +0.135 C 
BRANCH  21  22
ATOM      7  N   UNL     1      10.810   8.983  23.469  0.00  0.00    -0.360 N 
ATOM     22  C   UNL     1      11.194   9.117  21.288  0.00  0.00    -0.013 A 
ATOM     23  C   UNL     1      11.325  10.421  21.843  0.00  0.00    +0.003 A 
ATOM     24  C   UNL     1      10.877   8.255  22.311  0.00  0.00    +0.087 A 
ATOM     25  C   UNL     1      11.079  10.309  23.213  0.00  0.00    +0.047 A 
ATOM     26  C   UNL     1      11.629  11.689  21.311  0.00  0.00    +0.010 A 
ATOM     27  C   UNL     1      11.121  11.405  24.081  0.00  0.00    +0.026 A 
ATOM     28  C   UNL     1      11.677  12.796  22.167  0.00  0.00    +0.001 A 
ATOM     29  C   UNL     1      11.426  12.654  23.531  0.00  0.00    +0.002 A 
ATOM     30  H   UNL     1      10.594   8.602  24.380  0.00  0.00    +0.165 HD
ENDBRANCH  21  22
ENDBRANCH  19  21
TORSDOF 4
ENDMDL
MODEL 6
REMARK VINA RESULT:      -7.4     27.376     30.801
REMARK  Name = 51137379
REMARK  5 active torsions:
REMARK  status: ('A' for Active; 'I' for Inactive)
REMARK    1  A    between atoms: N_3  and  C_8
REMARK    2  A    between atoms: C_10  and  C_17
REMARK    3  A    between atoms: C_18  and  C_20
REMARK    4  A    between atoms: C_19  and  C_21
REMARK    5  A    between atoms: C_21  and  C_22
REMARK                            x       y       z     vdW  Elec       q    Type
REMARK                         _______ _______ _______ _____ _____    ______ ____
ROOT
ATOM      1  O   UNL     1      -3.130 -10.928  14.784  0.00  0.00    -0.424 OA
ATOM      5  N   UNL     1      -1.888 -10.672  16.627  0.00  0.00    -0.112 NA
ATOM      6  N   UNL     1      -1.151 -10.217  15.550  0.00  0.00    -0.112 NA
ATOM     17  C   UNL     1      -3.035 -11.077  16.134  0.00  0.00    +0.222 A 
ATOM     19  C   UNL     1      -1.916 -10.386  14.495  0.00  0.00    +0.222 A 
ENDROOT
BRANCH  17  10
ATOM      3  N   UNL     1      -6.257 -11.098  17.879  0.00  0.00    -0.299 NA
ATOM      9  C   UNL     1      -5.511 -10.843  16.644  0.00  0.00    +0.097 C 
ATOM     10  C   UNL     1      -4.232 -11.668  16.841  0.00  0.00    +0.092 C 
ATOM     11  C   UNL     1      -5.259 -11.020  18.946  0.00  0.00    +0.085 C 
ATOM     12  C   UNL     1      -4.082 -11.797  18.367  0.00  0.00    +0.029 C 
BRANCH   3   8
ATOM      2  O   UNL     1     -12.223  -9.799  17.162  0.00  0.00    -0.276 OA
ATOM      4  N   UNL     1      -9.993  -9.187  17.379  0.00  0.00    -0.302 N 
ATOM      8  C   UNL     1      -7.354 -10.154  18.074  0.00  0.00    +0.060 C 
ATOM     13  C   UNL     1      -7.607  -9.366  16.781  0.00  0.00    +0.038 C 
ATOM     14  C   UNL     1      -8.623 -10.900  18.504  0.00  0.00    +0.038 C 
ATOM     15  C   UNL     1      -8.812  -8.439  16.931  0.00  0.00    +0.109 C 
ATOM     16  C   UNL     1      -9.806  -9.942  18.620  0.00  0.00    +0.109 C 
ATOM     18  C   UNL     1     -11.234  -9.190  16.745  0.00  0.00    +0.212 C 
ATOM     20  C   UNL     1     -11.345  -8.391  15.471  0.00  0.00    +0.109 C 
ENDBRANCH   3   8
ENDBRANCH  17  10
BRANCH  19  21
ATOM     21  C   UNL     1      -1.646 -10.075  13.086  0.00  0.00    +0.135 C 
BRANCH  21  22
ATOM      7  N   UNL     1      -3.348 -12.661  11.062  0.00  0.00    -0.360 N 
ATOM     22  C   UNL     1      -2.428 -10.919  12.085  0.00  0.00    -0.013 A 
ATOM     23  C   UNL     1      -3.126 -10.444  10.940  0.00  0.00    +0.003 A 
ATOM     24  C   UNL     1      -2.582 -12.285  12.134  0.00  0.00    +0.087 A 
ATOM     25  C   UNL     1      -3.695 -11.557  10.316  0.00  0.00    +0.047 A 
ATOM     26  C   UNL     1      -3.331  -9.171  10.371  0.00  0.00    +0.010 A 
ATOM     27  C   UNL     1      -4.458 -11.461   9.148  0.00  0.00    +0.026 A 
ATOM     28  C   UNL     1      -4.094  -9.059   9.204  0.00  0.00    +0.001 A 
ATOM     29  C   UNL     1      -4.648 -10.187   8.602  0.00  0.00    +0.002 A 
ATOM     30  H   UNL     1      -3.619 -13.611  10.850  0.00  0.00    +0.165 HD
ENDBRANCH  21  22
ENDBRANCH  19  21
TORSDOF 4
ENDMDL
MODEL 7
REMARK VINA RESULT:      -7.3     28.765     32.991
REMARK  Name = 51137379
REMARK  5 active torsions:
REMARK  status: ('A' for Active; 'I' for Inactive)
REMARK    1  A    between atoms: N_3  and  C_8
REMARK    2  A    between atoms: C_10  and  C_17
REMARK    3  A    between atoms: C_18  and  C_20
REMARK    4  A    between atoms: C_19  and  C_21
REMARK    5  A    between atoms: C_21  and  C_22
REMARK                            x       y       z     vdW  Elec       q    Type
REMARK                         _______ _______ _______ _____ _____    ______ ____
ROOT
ATOM      1  O   UNL     1     -15.853   5.465  22.177  0.00  0.00    -0.424 OA
ATOM      5  N   UNL     1     -14.298   4.656  23.567  0.00  0.00    -0.112 NA
ATOM      6  N   UNL     1     -13.654   5.391  22.589  0.00  0.00    -0.112 NA
ATOM     17  C   UNL     1     -15.578   4.727  23.287  0.00  0.00    +0.222 A 
ATOM     19  C   UNL     1     -14.601   5.843  21.799  0.00  0.00    +0.222 A 
ENDROOT
BRANCH  17  10
ATOM      3  N   UNL     1     -17.368   3.028  25.997  0.00  0.00    -0.299 NA
ATOM      9  C   UNL     1     -16.632   4.209  25.539  0.00  0.00    +0.097 C 
ATOM     10  C   UNL     1     -16.756   4.118  24.011  0.00  0.00    +0.092 C 
ATOM     11  C   UNL     1     -16.953   1.953  25.096  0.00  0.00    +0.085 C 
ATOM     12  C   UNL     1     -16.987   2.623  23.728  0.00  0.00    +0.029 C 
BRANCH   3   8
ATOM      2  O   UNL     1     -13.256   2.450  30.530  0.00  0.00    -0.276 OA
ATOM      4  N   UNL     1     -15.264   1.921  29.491  0.00  0.00    -0.302 N 
ATOM      8  C   UNL     1     -17.101   2.713  27.398  0.00  0.00    +0.060 C 
ATOM     13  C   UNL     1     -16.606   1.266  27.527  0.00  0.00    +0.038 C 
ATOM     14  C   UNL     1     -16.063   3.688  27.969  0.00  0.00    +0.038 C 
ATOM     15  C   UNL     1     -16.229   0.943  28.973  0.00  0.00    +0.109 C 
ATOM     16  C   UNL     1     -15.699   3.317  29.405  0.00  0.00    +0.109 C 
ATOM     18  C   UNL     1     -14.034   1.611  30.069  0.00  0.00    +0.212 C 
ATOM     20  C   UNL     1     -13.658   0.152  30.117  0.00  0.00    +0.109 C 
ENDBRANCH   3   8
ENDBRANCH  17  10
BRANCH  19  21
ATOM     21  C   UNL     1     -14.496   6.683  20.600  0.00  0.00    +0.135 C 
BRANCH  21  22
ATOM      7  N   UNL     1     -12.460   9.648  21.462  0.00  0.00    -0.360 N 
ATOM     22  C   UNL     1     -13.508   7.840  20.716  0.00  0.00    -0.013 A 
ATOM     23  C   UNL     1     -12.443   8.137  19.821  0.00  0.00    +0.003 A 
ATOM     24  C   UNL     1     -13.493   8.786  21.715  0.00  0.00    +0.087 A 
ATOM     25  C   UNL     1     -11.801   9.276  20.312  0.00  0.00    +0.047 A 
ATOM     26  C   UNL     1     -11.961   7.546  18.636  0.00  0.00    +0.010 A 
ATOM     27  C   UNL     1     -10.699   9.856  19.675  0.00  0.00    +0.026 A 
ATOM     28  C   UNL     1     -10.858   8.114  17.988  0.00  0.00    +0.001 A 
ATOM     29  C   UNL     1     -10.238   9.252  18.501  0.00  0.00    +0.002 A 
ATOM     30  H   UNL     1     -12.216  10.443  22.036  0.00  0.00    +0.165 HD
ENDBRANCH  21  22
ENDBRANCH  19  21
TORSDOF 4
ENDMDL
MODEL 8
REMARK VINA RESULT:      -7.1      5.638      9.499
REMARK  Name = 51137379
REMARK  5 active torsions:
REMARK  status: ('A' for Active; 'I' for Inactive)
REMARK    1  A    between atoms: N_3  and  C_8
REMARK    2  A    between atoms: C_10  and  C_17
REMARK    3  A    between atoms: C_18  and  C_20
REMARK    4  A    between atoms: C_19  and  C_21
REMARK    5  A    between atoms: C_21  and  C_22
REMARK                            x       y       z     vdW  Elec       q    Type
REMARK                         _______ _______ _______ _____ _____    ______ ____
ROOT
ATOM      1  O   UNL     1      18.151   6.034  20.624  0.00  0.00    -0.424 OA
ATOM      5  N   UNL     1      18.867   8.021  21.362  0.00  0.00    -0.112 NA
ATOM      6  N   UNL     1      17.495   7.975  21.523  0.00  0.00    -0.112 NA
ATOM     17  C   UNL     1      19.206   6.868  20.835  0.00  0.00    +0.222 A 
ATOM     19  C   UNL     1      17.120   6.798  21.078  0.00  0.00    +0.222 A 
ENDROOT
BRANCH  17  10
ATOM      3  N   UNL     1      22.135   4.668  20.907  0.00  0.00    -0.299 NA
ATOM      9  C   UNL     1      20.710   4.834  20.615  0.00  0.00    +0.097 C 
ATOM     10  C   UNL     1      20.571   6.353  20.443  0.00  0.00    +0.092 C 
ATOM     11  C   UNL     1      22.454   5.740  21.851  0.00  0.00    +0.085 C 
ATOM     12  C   UNL     1      21.741   6.944  21.250  0.00  0.00    +0.029 C 
BRANCH   3   8
ATOM      2  O   UNL     1      25.506   1.242  24.741  0.00  0.00    -0.276 OA
ATOM      4  N   UNL     1      24.257   1.545  22.806  0.00  0.00    -0.302 N 
ATOM      8  C   UNL     1      22.444   3.345  21.444  0.00  0.00    +0.060 C 
ATOM     13  C   UNL     1      23.681   2.767  20.743  0.00  0.00    +0.038 C 
ATOM     14  C   UNL     1      22.677   3.432  22.958  0.00  0.00    +0.038 C 
ATOM     15  C   UNL     1      24.080   1.425  21.354  0.00  0.00    +0.109 C 
ATOM     16  C   UNL     1      23.096   2.076  23.524  0.00  0.00    +0.109 C 
ATOM     18  C   UNL     1      25.396   1.164  23.514  0.00  0.00    +0.212 C 
ATOM     20  C   UNL     1      26.549   0.629  22.704  0.00  0.00    +0.109 C 
ENDBRANCH   3   8
ENDBRANCH  17  10
BRANCH  19  21
ATOM     21  C   UNL     1      15.777   6.208  21.010  0.00  0.00    +0.135 C 
BRANCH  21  22
ATOM      7  N   UNL     1      13.979   7.858  18.231  0.00  0.00    -0.360 N 
ATOM     22  C   UNL     1      14.819   6.912  20.054  0.00  0.00    -0.013 A 
ATOM     23  C   UNL     1      13.496   7.345  20.347  0.00  0.00    +0.003 A 
ATOM     24  C   UNL     1      15.088   7.241  18.746  0.00  0.00    +0.087 A 
ATOM     25  C   UNL     1      12.991   7.935  19.187  0.00  0.00    +0.047 A 
ATOM     26  C   UNL     1      12.676   7.292  21.492  0.00  0.00    +0.010 A 
ATOM     27  C   UNL     1      11.703   8.477  19.113  0.00  0.00    +0.026 A 
ATOM     28  C   UNL     1      11.385   7.829  21.433  0.00  0.00    +0.001 A 
ATOM     29  C   UNL     1      10.908   8.413  20.261  0.00  0.00    +0.002 A 
ATOM     30  H   UNL     1      13.897   8.207  17.286  0.00  0.00    +0.165 HD
ENDBRANCH  21  22
ENDBRANCH  19  21
TORSDOF 4
ENDMDL
MODEL 9
REMARK VINA RESULT:      -7.1     28.473     31.189
REMARK  Name = 51137379
REMARK  5 active torsions:
REMARK  status: ('A' for Active; 'I' for Inactive)
REMARK    1  A    between atoms: N_3  and  C_8
REMARK    2  A    between atoms: C_10  and  C_17
REMARK    3  A    between atoms: C_18  and  C_20
REMARK    4  A    between atoms: C_19  and  C_21
REMARK    5  A    between atoms: C_21  and  C_22
REMARK                            x       y       z     vdW  Elec       q    Type
REMARK                         _______ _______ _______ _____ _____    ______ ____
ROOT
ATOM      1  O   UNL     1      -7.914 -10.242  17.739  0.00  0.00    -0.424 OA
ATOM      5  N   UNL     1      -7.169 -10.827  19.766  0.00  0.00    -0.112 NA
ATOM      6  N   UNL     1      -8.551 -10.824  19.804  0.00  0.00    -0.112 NA
ATOM     17  C   UNL     1      -6.842 -10.482  18.543  0.00  0.00    +0.222 A 
ATOM     19  C   UNL     1      -8.943 -10.476  18.600  0.00  0.00    +0.222 A 
ENDROOT
BRANCH  17  10
ATOM      3  N   UNL     1      -4.242 -10.774  15.977  0.00  0.00    -0.299 NA
ATOM      9  C   UNL     1      -5.523 -10.198  16.392  0.00  0.00    +0.097 C 
ATOM     10  C   UNL     1      -5.475 -10.321  17.921  0.00  0.00    +0.092 C 
ATOM     11  C   UNL     1      -4.081 -11.969  16.806  0.00  0.00    +0.085 C 
ATOM     12  C   UNL     1      -4.503 -11.485  18.187  0.00  0.00    +0.029 C 
BRANCH   3   8
ATOM      2  O   UNL     1      -2.548  -9.073  10.317  0.00  0.00    -0.276 OA
ATOM      4  N   UNL     1      -3.926 -10.211  11.801  0.00  0.00    -0.302 N 
ATOM      8  C   UNL     1      -4.203 -11.078  14.549  0.00  0.00    +0.060 C 
ATOM     13  C   UNL     1      -5.334 -10.338  13.822  0.00  0.00    +0.038 C 
ATOM     14  C   UNL     1      -2.841 -10.685  13.963  0.00  0.00    +0.038 C 
ATOM     15  C   UNL     1      -5.256 -10.565  12.313  0.00  0.00    +0.109 C 
ATOM     16  C   UNL     1      -2.813 -10.906  12.452  0.00  0.00    +0.109 C 
ATOM     18  C   UNL     1      -3.674  -9.326  10.754  0.00  0.00    +0.212 C 
ATOM     20  C   UNL     1      -4.872  -8.649  10.137  0.00  0.00    +0.109 C 
ENDBRANCH   3   8
ENDBRANCH  17  10
BRANCH  19  21
ATOM     21  C   UNL     1     -10.302 -10.313  18.070  0.00  0.00    +0.135 C 
BRANCH  21  22
ATOM      7  N   UNL     1     -10.307  -6.890  16.670  0.00  0.00    -0.360 N 
ATOM     22  C   UNL     1     -10.585  -8.950  17.447  0.00  0.00    -0.013 A 
ATOM     23  C   UNL     1     -11.839  -8.485  16.962  0.00  0.00    +0.003 A 
ATOM     24  C   UNL     1      -9.663  -7.948  17.254  0.00  0.00    +0.087 A 
ATOM     25  C   UNL     1     -11.638  -7.189  16.480  0.00  0.00    +0.047 A 
ATOM     26  C   UNL     1     -13.131  -9.041  16.886  0.00  0.00    +0.010 A 
ATOM     27  C   UNL     1     -12.666  -6.420  15.926  0.00  0.00    +0.026 A 
ATOM     28  C   UNL     1     -14.171  -8.284  16.333  0.00  0.00    +0.001 A 
ATOM     29  C   UNL     1     -13.940  -6.994  15.861  0.00  0.00    +0.002 A 
ATOM     30  H   UNL     1      -9.870  -6.015  16.416  0.00  0.00    +0.165 HD
ENDBRANCH  21  22
ENDBRANCH  19  21
TORSDOF 4
ENDMDL
MODEL 10
REMARK VINA RESULT:      -7.1     30.283     33.814
REMARK  Name = 51137379
REMARK  5 active torsions:
REMARK  status: ('A' for Active; 'I' for Inactive)
REMARK    1  A    between atoms: N_3  and  C_8
REMARK    2  A    between atoms: C_10  and  C_17
REMARK    3  A    between atoms: C_18  and  C_20
REMARK    4  A    between atoms: C_19  and  C_21
REMARK    5  A    between atoms: C_21  and  C_22
REMARK                            x       y       z     vdW  Elec       q    Type
REMARK                         _______ _______ _______ _____ _____    ______ ____
ROOT
ATOM      1  O   UNL     1     -16.809   2.108  27.033  0.00  0.00    -0.424 OA
ATOM      5  N   UNL     1     -17.839   0.168  26.609  0.00  0.00    -0.112 NA
ATOM      6  N   UNL     1     -17.885   0.385  27.973  0.00  0.00    -0.112 NA
ATOM     17  C   UNL     1     -17.203   1.197  26.101  0.00  0.00    +0.222 A 
ATOM     19  C   UNL     1     -17.271   1.529  28.175  0.00  0.00    +0.222 A 
ENDROOT
BRANCH  17  10
ATOM      3  N   UNL     1     -16.503   3.270  23.161  0.00  0.00    -0.299 NA
ATOM      9  C   UNL     1     -16.096   2.824  24.496  0.00  0.00    +0.097 C 
ATOM     10  C   UNL     1     -16.859   1.502  24.662  0.00  0.00    +0.092 C 
ATOM     11  C   UNL     1     -17.943   3.018  23.102  0.00  0.00    +0.085 C 
ATOM     12  C   UNL     1     -18.071   1.632  23.721  0.00  0.00    +0.029 C 
BRANCH   3   8
ATOM      2  O   UNL     1     -14.189   7.507  19.355  0.00  0.00    -0.276 OA
ATOM      4  N   UNL     1     -14.683   6.690  21.472  0.00  0.00    -0.302 N 
ATOM      8  C   UNL     1     -16.174   4.672  22.917  0.00  0.00    +0.060 C 
ATOM     13  C   UNL     1     -14.683   4.918  23.188  0.00  0.00    +0.038 C 
ATOM     14  C   UNL     1     -16.526   5.053  21.474  0.00  0.00    +0.038 C 
ATOM     15  C   UNL     1     -14.295   6.356  22.848  0.00  0.00    +0.109 C 
ATOM     16  C   UNL     1     -16.102   6.488  21.169  0.00  0.00    +0.109 C 
ATOM     18  C   UNL     1     -13.831   7.201  20.495  0.00  0.00    +0.212 C 
ATOM     20  C   UNL     1     -12.385   7.377  20.884  0.00  0.00    +0.109 C 
ENDBRANCH   3   8
ENDBRANCH  17  10
BRANCH  19  21
ATOM     21  C   UNL     1     -17.026   2.249  29.431  0.00  0.00    +0.135 C 
BRANCH  21  22
ATOM      7  N   UNL     1     -13.428   1.725  30.111  0.00  0.00    -0.360 N 
ATOM     22  C   UNL     1     -15.570   2.262  29.885  0.00  0.00    -0.013 A 
ATOM     23  C   UNL     1     -14.975   3.180  30.795  0.00  0.00    +0.003 A 
ATOM     24  C   UNL     1     -14.595   1.380  29.481  0.00  0.00    +0.087 A 
ATOM     25  C   UNL     1     -13.631   2.821  30.919  0.00  0.00    +0.047 A 
ATOM     26  C   UNL     1     -15.451   4.285  31.528  0.00  0.00    +0.010 A 
ATOM     27  C   UNL     1     -12.737   3.513  31.743  0.00  0.00    +0.026 A 
ATOM     28  C   UNL     1     -14.568   4.988  32.355  0.00  0.00    +0.001 A 
ATOM     29  C   UNL     1     -13.232   4.606  32.460  0.00  0.00    +0.002 A 
ATOM     30  H   UNL     1     -12.547   1.245  29.998  0.00  0.00    +0.165 HD
ENDBRANCH  21  22
ENDBRANCH  19  21
TORSDOF 4
ENDMDL
