MODEL 1
REMARK VINA RESULT:      -7.2      0.000      0.000
REMARK  Name = 75536752
REMARK  6 active torsions:
REMARK  status: ('A' for Active; 'I' for Inactive)
REMARK    1  A    between atoms: O_3  and  C_10
REMARK    2  A    between atoms: N_6  and  C_9
REMARK    3  A    between atoms: N_6  and  C_14
REMARK    4  A    between atoms: N_7  and  C_13
REMARK    5  A    between atoms: C_11  and  C_13
REMARK    6  A    between atoms: C_14  and  C_18
REMARK                            x       y       z     vdW  Elec       q    Type
REMARK                         _______ _______ _______ _____ _____    ______ ____
ROOT
ATOM      2  O   UNL     1      11.487   9.275  20.060  0.00  0.00    -0.371 OA
ATOM      9  C   UNL     1      12.468   7.173  19.547  0.00  0.00    +0.111 C 
ATOM     10  C   UNL     1      11.884   7.119  20.947  0.00  0.00    +0.164 C 
ATOM     11  C   UNL     1      10.888   8.270  20.895  0.00  0.00    +0.165 C 
ATOM     12  C   UNL     1      12.563   8.673  19.320  0.00  0.00    +0.181 C 
ENDROOT
BRANCH  10   3
ATOM      3  O   UNL     1      11.250   5.885  21.226  0.00  0.00    -0.388 OA
ATOM     28  H   UNL     1      11.761   5.428  21.915  0.00  0.00    +0.210 HD
ENDBRANCH  10   3
BRANCH   9   6
ATOM      6  N   UNL     1      13.749   6.500  19.423  0.00  0.00    -0.305 NA
ATOM     26  H   UNL     1      13.676   5.772  18.711  0.00  0.00    +0.123 HD
BRANCH   6  14
ATOM     14  C   UNL     1      14.799   7.435  19.035  0.00  0.00    +0.116 C 
BRANCH  14  18
ATOM      1  F   UNL     1      19.869   5.768  20.843  0.00  0.00    -0.205 F 
ATOM     18  C   UNL     1      16.153   6.990  19.518  0.00  0.00    -0.033 A 
ATOM     21  C   UNL     1      16.823   5.957  18.861  0.00  0.00    +0.008 A 
ATOM     22  C   UNL     1      16.738   7.608  20.622  0.00  0.00    +0.008 A 
ATOM     23  C   UNL     1      18.078   5.545  19.309  0.00  0.00    +0.038 A 
ATOM     24  C   UNL     1      17.993   7.196  21.071  0.00  0.00    +0.038 A 
ATOM     25  C   UNL     1      18.664   6.164  20.413  0.00  0.00    +0.123 A 
ENDBRANCH  14  18
ENDBRANCH   6  14
ENDBRANCH   9   6
BRANCH  11  13
ATOM     13  C   UNL     1      10.574   8.855  22.260  0.00  0.00    +0.140 C 
BRANCH  13   7
ATOM      4  O   UNL     1      11.836  15.103  23.016  0.00  0.00    -0.377 OA
ATOM      5  O   UNL     1      11.005  10.465  24.527  0.00  0.00    -0.253 OA
ATOM      7  N   UNL     1      10.700  10.295  22.260  0.00  0.00    -0.297 N 
ATOM      8  N   UNL     1      11.007  12.412  23.267  0.00  0.00    -0.281 N 
ATOM     15  C   UNL     1      10.913  11.019  23.427  0.00  0.00    +0.302 C 
ATOM     16  C   UNL     1      11.223  13.253  24.446  0.00  0.00    +0.137 C 
ATOM     17  C   UNL     1      10.760  13.160  22.026  0.00  0.00    +0.137 C 
ATOM     19  C   UNL     1      12.241  14.345  24.157  0.00  0.00    +0.179 C 
ATOM     20  C   UNL     1      11.785  14.276  21.852  0.00  0.00    +0.179 C 
ATOM     27  H   UNL     1      10.607  10.748  21.362  0.00  0.00    +0.150 HD
ENDBRANCH  13   7
ENDBRANCH  11  13
TORSDOF 6
ENDMDL
MODEL 2
REMARK VINA RESULT:      -6.6     26.749     28.482
REMARK  Name = 75536752
REMARK  6 active torsions:
REMARK  status: ('A' for Active; 'I' for Inactive)
REMARK    1  A    between atoms: O_3  and  C_10
REMARK    2  A    between atoms: N_6  and  C_9
REMARK    3  A    between atoms: N_6  and  C_14
REMARK    4  A    between atoms: N_7  and  C_13
REMARK    5  A    between atoms: C_11  and  C_13
REMARK    6  A    between atoms: C_14  and  C_18
REMARK                            x       y       z     vdW  Elec       q    Type
REMARK                         _______ _______ _______ _____ _____    ______ ____
ROOT
ATOM      2  O   UNL     1      -5.241 -11.582  15.928  0.00  0.00    -0.371 OA
ATOM      9  C   UNL     1      -3.144 -11.208  14.877  0.00  0.00    +0.111 C 
ATOM     10  C   UNL     1      -3.068 -10.733  16.316  0.00  0.00    +0.164 C 
ATOM     11  C   UNL     1      -4.224 -11.503  16.941  0.00  0.00    +0.165 C 
ATOM     12  C   UNL     1      -4.647 -11.262  14.658  0.00  0.00    +0.181 C 
ENDROOT
BRANCH  10   3
ATOM      3  O   UNL     1      -1.832 -11.047  16.930  0.00  0.00    -0.388 OA
ATOM     28  H   UNL     1      -1.147 -10.475  16.546  0.00  0.00    +0.210 HD
ENDBRANCH  10   3
BRANCH   9   6
ATOM      6  N   UNL     1      -2.468 -10.329  13.937  0.00  0.00    -0.305 NA
ATOM     26  H   UNL     1      -1.694  -9.864  14.414  0.00  0.00    +0.123 HD
BRANCH   6  14
ATOM     14  C   UNL     1      -1.939 -11.080  12.804  0.00  0.00    +0.116 C 
BRANCH  14  18
ATOM      1  F   UNL     1      -4.790 -10.008   8.063  0.00  0.00    -0.205 F 
ATOM     18  C   UNL     1      -2.701 -10.794  11.538  0.00  0.00    -0.033 A 
ATOM     21  C   UNL     1      -3.404 -11.817  10.900  0.00  0.00    +0.008 A 
ATOM     22  C   UNL     1      -2.703  -9.507  11.000  0.00  0.00    +0.008 A 
ATOM     23  C   UNL     1      -4.109 -11.551   9.727  0.00  0.00    +0.038 A 
ATOM     24  C   UNL     1      -3.408  -9.241   9.827  0.00  0.00    +0.038 A 
ATOM     25  C   UNL     1      -4.113 -10.264   9.190  0.00  0.00    +0.123 A 
ENDBRANCH  14  18
ENDBRANCH   6  14
ENDBRANCH   9   6
BRANCH  11  13
ATOM     13  C   UNL     1      -4.787 -10.838  18.184  0.00  0.00    +0.140 C 
BRANCH  13   7
ATOM      4  O   UNL     1     -11.111  -9.924  18.791  0.00  0.00    -0.377 OA
ATOM      5  O   UNL     1      -6.678 -11.705  20.079  0.00  0.00    -0.253 OA
ATOM      7  N   UNL     1      -6.219 -10.662  18.088  0.00  0.00    -0.297 N 
ATOM      8  N   UNL     1      -8.452 -10.882  18.832  0.00  0.00    -0.281 N 
ATOM     15  C   UNL     1      -7.088 -11.121  19.071  0.00  0.00    +0.302 C 
ATOM     16  C   UNL     1      -9.439 -11.339  19.812  0.00  0.00    +0.137 C 
ATOM     17  C   UNL     1      -9.033 -10.335  17.598  0.00  0.00    +0.137 C 
ATOM     19  C   UNL     1     -10.512 -10.285  20.037  0.00  0.00    +0.179 C 
ATOM     20  C   UNL     1     -10.145  -9.340  17.915  0.00  0.00    +0.179 C 
ATOM     27  H   UNL     1      -6.553 -10.201  17.254  0.00  0.00    +0.150 HD
ENDBRANCH  13   7
ENDBRANCH  11  13
TORSDOF 6
ENDMDL
MODEL 3
REMARK VINA RESULT:      -6.6     27.846     29.601
REMARK  Name = 75536752
REMARK  6 active torsions:
REMARK  status: ('A' for Active; 'I' for Inactive)
REMARK    1  A    between atoms: O_3  and  C_10
REMARK    2  A    between atoms: N_6  and  C_9
REMARK    3  A    between atoms: N_6  and  C_14
REMARK    4  A    between atoms: N_7  and  C_13
REMARK    5  A    between atoms: C_11  and  C_13
REMARK    6  A    between atoms: C_14  and  C_18
REMARK                            x       y       z     vdW  Elec       q    Type
REMARK                         _______ _______ _______ _____ _____    ______ ____
ROOT
ATOM      2  O   UNL     1     -12.106  -7.912  14.260  0.00  0.00    -0.371 OA
ATOM      9  C   UNL     1     -10.401  -8.186  15.891  0.00  0.00    +0.111 C 
ATOM     10  C   UNL     1     -10.798  -6.722  15.830  0.00  0.00    +0.164 C 
ATOM     11  C   UNL     1     -12.176  -6.818  15.190  0.00  0.00    +0.165 C 
ATOM     12  C   UNL     1     -10.941  -8.698  14.566  0.00  0.00    +0.181 C 
ENDROOT
BRANCH  10   3
ATOM      3  O   UNL     1     -10.850  -6.118  17.109  0.00  0.00    -0.388 OA
ATOM     28  H   UNL     1     -10.997  -6.815  17.770  0.00  0.00    +0.210 HD
ENDBRANCH  10   3
BRANCH   9   6
ATOM      6  N   UNL     1      -8.970  -8.396  16.036  0.00  0.00    -0.305 NA
ATOM     26  H   UNL     1      -8.493  -7.496  15.972  0.00  0.00    +0.123 HD
BRANCH   6  14
ATOM     14  C   UNL     1      -8.657  -9.005  17.324  0.00  0.00    +0.116 C 
BRANCH  14  18
ATOM      1  F   UNL     1      -3.453 -11.165  17.417  0.00  0.00    -0.205 F 
ATOM     18  C   UNL     1      -7.267  -9.582  17.349  0.00  0.00    -0.033 A 
ATOM     21  C   UNL     1      -6.459  -9.503  16.214  0.00  0.00    +0.008 A 
ATOM     22  C   UNL     1      -6.787 -10.196  18.505  0.00  0.00    +0.008 A 
ATOM     23  C   UNL     1      -5.171 -10.037  16.238  0.00  0.00    +0.038 A 
ATOM     24  C   UNL     1      -5.499 -10.731  18.529  0.00  0.00    +0.038 A 
ATOM     25  C   UNL     1      -4.690 -10.651  17.394  0.00  0.00    +0.123 A 
ENDBRANCH  14  18
ENDBRANCH   6  14
ENDBRANCH   9   6
BRANCH  11  13
ATOM     13  C   UNL     1     -12.590  -5.551  14.463  0.00  0.00    +0.140 C 
BRANCH  13   7
ATOM      4  O   UNL     1     -10.812  -5.106   8.312  0.00  0.00    -0.377 OA
ATOM      5  O   UNL     1     -12.282  -3.374  12.707  0.00  0.00    -0.253 OA
ATOM      7  N   UNL     1     -12.321  -5.643  13.045  0.00  0.00    -0.297 N 
ATOM      8  N   UNL     1     -11.930  -4.765  10.885  0.00  0.00    -0.281 N 
ATOM     15  C   UNL     1     -12.182  -4.515  12.245  0.00  0.00    +0.302 C 
ATOM     16  C   UNL     1     -11.778  -3.635   9.967  0.00  0.00    +0.137 C 
ATOM     17  C   UNL     1     -11.947  -6.080  10.228  0.00  0.00    +0.137 C 
ATOM     19  C   UNL     1     -10.627  -3.868   9.001  0.00  0.00    +0.179 C 
ATOM     20  C   UNL     1     -10.802  -6.202   9.229  0.00  0.00    +0.179 C 
ATOM     27  H   UNL     1     -12.258  -6.576  12.666  0.00  0.00    +0.150 HD
ENDBRANCH  13   7
ENDBRANCH  11  13
TORSDOF 6
ENDMDL
MODEL 4
REMARK VINA RESULT:      -6.4     26.544     28.797
REMARK  Name = 75536752
REMARK  6 active torsions:
REMARK  status: ('A' for Active; 'I' for Inactive)
REMARK    1  A    between atoms: O_3  and  C_10
REMARK    2  A    between atoms: N_6  and  C_9
REMARK    3  A    between atoms: N_6  and  C_14
REMARK    4  A    between atoms: N_7  and  C_13
REMARK    5  A    between atoms: C_11  and  C_13
REMARK    6  A    between atoms: C_14  and  C_18
REMARK                            x       y       z     vdW  Elec       q    Type
REMARK                         _______ _______ _______ _____ _____    ______ ____
ROOT
ATOM      2  O   UNL     1      -1.880 -10.894  12.625  0.00  0.00    -0.371 OA
ATOM      9  C   UNL     1      -1.666 -11.508  14.910  0.00  0.00    +0.111 C 
ATOM     10  C   UNL     1      -2.505 -12.550  14.194  0.00  0.00    +0.164 C 
ATOM     11  C   UNL     1      -2.100 -12.309  12.746  0.00  0.00    +0.165 C 
ATOM     12  C   UNL     1      -1.754 -10.337  13.945  0.00  0.00    +0.181 C 
ENDROOT
BRANCH  10   3
ATOM      3  O   UNL     1      -2.211 -13.870  14.612  0.00  0.00    -0.388 OA
ATOM     28  H   UNL     1      -2.964 -14.201  15.129  0.00  0.00    +0.210 HD
ENDBRANCH  10   3
BRANCH   9   6
ATOM      6  N   UNL     1      -2.151 -11.183  16.241  0.00  0.00    -0.305 NA
ATOM     26  H   UNL     1      -1.451 -10.615  16.720  0.00  0.00    +0.123 HD
BRANCH   6  14
ATOM     14  C   UNL     1      -3.401 -10.435  16.175  0.00  0.00    +0.116 C 
BRANCH  14  18
ATOM      1  F   UNL     1      -6.945 -11.904  20.303  0.00  0.00    -0.205 F 
ATOM     18  C   UNL     1      -4.347 -10.827  17.278  0.00  0.00    -0.033 A 
ATOM     21  C   UNL     1      -3.902 -11.635  18.325  0.00  0.00    +0.008 A 
ATOM     22  C   UNL     1      -5.670 -10.385  17.253  0.00  0.00    +0.008 A 
ATOM     23  C   UNL     1      -4.779 -11.998  19.346  0.00  0.00    +0.038 A 
ATOM     24  C   UNL     1      -6.548 -10.749  18.274  0.00  0.00    +0.038 A 
ATOM     25  C   UNL     1      -6.102 -11.556  19.322  0.00  0.00    +0.123 A 
ENDBRANCH  14  18
ENDBRANCH   6  14
ENDBRANCH   9   6
BRANCH  11  13
ATOM     13  C   UNL     1      -3.152 -12.753  11.746  0.00  0.00    +0.140 C 
BRANCH  13   7
ATOM      4  O   UNL     1      -6.664  -8.438   8.546  0.00  0.00    -0.377 OA
ATOM      5  O   UNL     1      -3.835 -12.468   9.030  0.00  0.00    -0.253 OA
ATOM      7  N   UNL     1      -3.839 -11.622  11.163  0.00  0.00    -0.297 N 
ATOM      8  N   UNL     1      -4.805 -10.392   9.390  0.00  0.00    -0.281 N 
ATOM     15  C   UNL     1      -4.141 -11.558   9.808  0.00  0.00    +0.302 C 
ATOM     16  C   UNL     1      -5.154 -10.237   7.977  0.00  0.00    +0.137 C 
ATOM     17  C   UNL     1      -5.069  -9.203  10.214  0.00  0.00    +0.137 C 
ATOM     19  C   UNL     1      -6.555  -9.664   7.822  0.00  0.00    +0.179 C 
ATOM     20  C   UNL     1      -6.467  -8.656   9.944  0.00  0.00    +0.179 C 
ATOM     27  H   UNL     1      -4.072 -10.872  11.797  0.00  0.00    +0.150 HD
ENDBRANCH  13   7
ENDBRANCH  11  13
TORSDOF 6
ENDMDL
MODEL 5
REMARK VINA RESULT:      -6.4     27.866     29.928
REMARK  Name = 75536752
REMARK  6 active torsions:
REMARK  status: ('A' for Active; 'I' for Inactive)
REMARK    1  A    between atoms: O_3  and  C_10
REMARK    2  A    between atoms: N_6  and  C_9
REMARK    3  A    between atoms: N_6  and  C_14
REMARK    4  A    between atoms: N_7  and  C_13
REMARK    5  A    between atoms: C_11  and  C_13
REMARK    6  A    between atoms: C_14  and  C_18
REMARK                            x       y       z     vdW  Elec       q    Type
REMARK                         _______ _______ _______ _____ _____    ______ ____
ROOT
ATOM      2  O   UNL     1     -11.538  -9.742  16.647  0.00  0.00    -0.371 OA
ATOM      9  C   UNL     1      -9.668  -8.550  17.498  0.00  0.00    +0.111 C 
ATOM     10  C   UNL     1      -9.932  -8.105  16.071  0.00  0.00    +0.164 C 
ATOM     11  C   UNL     1     -11.385  -8.527  15.896  0.00  0.00    +0.165 C 
ATOM     12  C   UNL     1     -10.421  -9.869  17.544  0.00  0.00    +0.181 C 
ENDROOT
BRANCH  10   3
ATOM      3  O   UNL     1      -9.762  -6.711  15.894  0.00  0.00    -0.388 OA
ATOM     28  H   UNL     1      -9.057  -6.570  15.241  0.00  0.00    +0.210 HD
ENDBRANCH  10   3
BRANCH   9   6
ATOM      6  N   UNL     1      -8.256  -8.694  17.811  0.00  0.00    -0.305 NA
ATOM     26  H   UNL     1      -8.156  -8.910  18.804  0.00  0.00    +0.123 HD
BRANCH   6  14
ATOM     14  C   UNL     1      -7.651  -9.768  17.032  0.00  0.00    +0.116 C 
BRANCH  14  18
ATOM      1  F   UNL     1      -3.463 -12.291  19.833  0.00  0.00    -0.205 F 
ATOM     18  C   UNL     1      -6.533 -10.442  17.780  0.00  0.00    -0.033 A 
ATOM     21  C   UNL     1      -6.708 -10.808  19.115  0.00  0.00    +0.008 A 
ATOM     22  C   UNL     1      -5.321 -10.700  17.140  0.00  0.00    +0.008 A 
ATOM     23  C   UNL     1      -5.670 -11.432  19.808  0.00  0.00    +0.038 A 
ATOM     24  C   UNL     1      -4.284 -11.324  17.832  0.00  0.00    +0.038 A 
ATOM     25  C   UNL     1      -4.459 -11.691  19.168  0.00  0.00    +0.123 A 
ENDBRANCH  14  18
ENDBRANCH   6  14
ENDBRANCH   9   6
BRANCH  11  13
ATOM     13  C   UNL     1     -11.771  -8.766  14.448  0.00  0.00    +0.140 C 
BRANCH  13   7
ATOM      4  O   UNL     1     -13.683  -3.088  12.145  0.00  0.00    -0.377 OA
ATOM      5  O   UNL     1     -14.297  -7.555  14.183  0.00  0.00    -0.253 OA
ATOM      7  N   UNL     1     -12.042  -7.523  13.760  0.00  0.00    -0.297 N 
ATOM      8  N   UNL     1     -13.429  -5.780  12.968  0.00  0.00    -0.281 N 
ATOM     15  C   UNL     1     -13.323  -6.990  13.674  0.00  0.00    +0.302 C 
ATOM     16  C   UNL     1     -14.743  -5.151  12.821  0.00  0.00    +0.137 C 
ATOM     17  C   UNL     1     -12.356  -5.124  12.208  0.00  0.00    +0.137 C 
ATOM     19  C   UNL     1     -14.655  -3.648  13.031  0.00  0.00    +0.179 C 
ATOM     20  C   UNL     1     -12.384  -3.614  12.422  0.00  0.00    +0.179 C 
ATOM     27  H   UNL     1     -11.248  -7.073  13.329  0.00  0.00    +0.150 HD
ENDBRANCH  13   7
ENDBRANCH  11  13
TORSDOF 6
ENDMDL
MODEL 6
REMARK VINA RESULT:      -6.3     33.461     35.430
REMARK  Name = 75536752
REMARK  6 active torsions:
REMARK  status: ('A' for Active; 'I' for Inactive)
REMARK    1  A    between atoms: O_3  and  C_10
REMARK    2  A    between atoms: N_6  and  C_9
REMARK    3  A    between atoms: N_6  and  C_14
REMARK    4  A    between atoms: N_7  and  C_13
REMARK    5  A    between atoms: C_11  and  C_13
REMARK    6  A    between atoms: C_14  and  C_18
REMARK                            x       y       z     vdW  Elec       q    Type
REMARK                         _______ _______ _______ _____ _____    ______ ____
ROOT
ATOM      2  O   UNL     1      -2.132 -15.485  -1.616  0.00  0.00    -0.371 OA
ATOM      9  C   UNL     1      -1.531 -14.238   0.314  0.00  0.00    +0.111 C 
ATOM     10  C   UNL     1      -1.951 -13.278  -0.784  0.00  0.00    +0.164 C 
ATOM     11  C   UNL     1      -2.769 -14.198  -1.680  0.00  0.00    +0.165 C 
ATOM     12  C   UNL     1      -1.246 -15.500  -0.483  0.00  0.00    +0.181 C 
ENDROOT
BRANCH  10   3
ATOM      3  O   UNL     1      -2.721 -12.195  -0.297  0.00  0.00    -0.388 OA
ATOM     28  H   UNL     1      -2.149 -11.642   0.261  0.00  0.00    +0.210 HD
ENDBRANCH  10   3
BRANCH   9   6
ATOM      6  N   UNL     1      -0.383 -13.781   1.079  0.00  0.00    -0.305 NA
ATOM     26  H   UNL     1      -0.711 -13.244   1.883  0.00  0.00    +0.123 HD
BRANCH   6  14
ATOM     14  C   UNL     1       0.412 -14.907   1.557  0.00  0.00    +0.116 C 
BRANCH  14  18
ATOM      1  F   UNL     1       5.767 -14.577  -0.164  0.00  0.00    -0.205 F 
ATOM     18  C   UNL     1       1.842 -14.818   1.097  0.00  0.00    -0.033 A 
ATOM     21  C   UNL     1       2.200 -13.908   0.103  0.00  0.00    +0.008 A 
ATOM     22  C   UNL     1       2.810 -15.647   1.664  0.00  0.00    +0.008 A 
ATOM     23  C   UNL     1       3.526 -13.826  -0.323  0.00  0.00    +0.038 A 
ATOM     24  C   UNL     1       4.135 -15.566   1.239  0.00  0.00    +0.038 A 
ATOM     25  C   UNL     1       4.494 -14.655   0.244  0.00  0.00    +0.123 A 
ENDBRANCH  14  18
ENDBRANCH   6  14
ENDBRANCH   9   6
BRANCH  11  13
ATOM     13  C   UNL     1      -2.836 -13.729  -3.122  0.00  0.00    +0.140 C 
BRANCH  13   7
ATOM      4  O   UNL     1       2.295 -11.125  -5.967  0.00  0.00    -0.377 OA
ATOM      5  O   UNL     1      -1.656 -14.087  -5.652  0.00  0.00    -0.253 OA
ATOM      7  N   UNL     1      -1.577 -13.163  -3.553  0.00  0.00    -0.297 N 
ATOM      8  N   UNL     1       0.175 -12.778  -5.093  0.00  0.00    -0.281 N 
ATOM     15  C   UNL     1      -1.061 -13.389  -4.824  0.00  0.00    +0.302 C 
ATOM     16  C   UNL     1       0.796 -12.969  -6.405  0.00  0.00    +0.137 C 
ATOM     17  C   UNL     1       1.017 -12.062  -4.124  0.00  0.00    +0.137 C 
ATOM     19  C   UNL     1       1.383 -11.666  -6.925  0.00  0.00    +0.179 C 
ATOM     20  C   UNL     1       1.619 -10.808  -4.749  0.00  0.00    +0.179 C 
ATOM     27  H   UNL     1      -1.083 -12.608  -2.870  0.00  0.00    +0.150 HD
ENDBRANCH  13   7
ENDBRANCH  11  13
TORSDOF 6
ENDMDL
MODEL 7
REMARK VINA RESULT:      -6.3     26.493     28.784
REMARK  Name = 75536752
REMARK  6 active torsions:
REMARK  status: ('A' for Active; 'I' for Inactive)
REMARK    1  A    between atoms: O_3  and  C_10
REMARK    2  A    between atoms: N_6  and  C_9
REMARK    3  A    between atoms: N_6  and  C_14
REMARK    4  A    between atoms: N_7  and  C_13
REMARK    5  A    between atoms: C_11  and  C_13
REMARK    6  A    between atoms: C_14  and  C_18
REMARK                            x       y       z     vdW  Elec       q    Type
REMARK                         _______ _______ _______ _____ _____    ______ ____
ROOT
ATOM      2  O   UNL     1      -8.711 -11.944  17.872  0.00  0.00    -0.371 OA
ATOM      9  C   UNL     1      -6.457 -11.220  18.068  0.00  0.00    +0.111 C 
ATOM     10  C   UNL     1      -7.340 -10.328  18.921  0.00  0.00    +0.164 C 
ATOM     11  C   UNL     1      -8.566 -11.213  19.101  0.00  0.00    +0.165 C 
ATOM     12  C   UNL     1      -7.479 -11.850  17.136  0.00  0.00    +0.181 C 
ENDROOT
BRANCH  10   3
ATOM      3  O   UNL     1      -6.744  -9.994  20.160  0.00  0.00    -0.388 OA
ATOM     28  H   UNL     1      -5.786  -9.904  20.023  0.00  0.00    +0.210 HD
ENDBRANCH  10   3
BRANCH   9   6
ATOM      6  N   UNL     1      -5.413 -10.500  17.359  0.00  0.00    -0.305 NA
ATOM     26  H   UNL     1      -5.167  -9.663  17.888  0.00  0.00    +0.123 HD
BRANCH   6  14
ATOM     14  C   UNL     1      -4.221 -11.325  17.200  0.00  0.00    +0.116 C 
BRANCH  14  18
ATOM      1  F   UNL     1      -1.346  -9.986  12.542  0.00  0.00    -0.205 F 
ATOM     18  C   UNL     1      -3.453 -10.968  15.957  0.00  0.00    -0.033 A 
ATOM     21  C   UNL     1      -2.118 -10.573  16.050  0.00  0.00    +0.008 A 
ATOM     22  C   UNL     1      -4.075 -11.030  14.710  0.00  0.00    +0.008 A 
ATOM     23  C   UNL     1      -1.407 -10.242  14.897  0.00  0.00    +0.038 A 
ATOM     24  C   UNL     1      -3.365 -10.698  13.557  0.00  0.00    +0.038 A 
ATOM     25  C   UNL     1      -2.029 -10.304  13.650  0.00  0.00    +0.123 A 
ENDBRANCH  14  18
ENDBRANCH   6  14
ENDBRANCH   9   6
BRANCH  11  13
ATOM     13  C   UNL     1      -9.836 -10.430  19.386  0.00  0.00    +0.140 C 
BRANCH  13   7
ATOM      4  O   UNL     1     -11.980  -6.047  15.217  0.00  0.00    -0.377 OA
ATOM      5  O   UNL     1     -12.326 -10.025  18.138  0.00  0.00    -0.253 OA
ATOM      7  N   UNL     1     -10.109  -9.467  18.343  0.00  0.00    -0.297 N 
ATOM      8  N   UNL     1     -11.479  -8.355  16.770  0.00  0.00    -0.281 N 
ATOM     15  C   UNL     1     -11.371  -9.328  17.777  0.00  0.00    +0.302 C 
ATOM     16  C   UNL     1     -12.771  -8.147  16.113  0.00  0.00    +0.137 C 
ATOM     17  C   UNL     1     -10.370  -7.594  16.177  0.00  0.00    +0.137 C 
ATOM     19  C   UNL     1     -13.056  -6.665  15.926  0.00  0.00    +0.179 C 
ATOM     20  C   UNL     1     -10.765  -6.137  15.962  0.00  0.00    +0.179 C 
ATOM     27  H   UNL     1      -9.324  -8.912  18.036  0.00  0.00    +0.150 HD
ENDBRANCH  13   7
ENDBRANCH  11  13
TORSDOF 6
ENDMDL
MODEL 8
REMARK VINA RESULT:      -6.2      4.551      7.146
REMARK  Name = 75536752
REMARK  6 active torsions:
REMARK  status: ('A' for Active; 'I' for Inactive)
REMARK    1  A    between atoms: O_3  and  C_10
REMARK    2  A    between atoms: N_6  and  C_9
REMARK    3  A    between atoms: N_6  and  C_14
REMARK    4  A    between atoms: N_7  and  C_13
REMARK    5  A    between atoms: C_11  and  C_13
REMARK    6  A    between atoms: C_14  and  C_18
REMARK                            x       y       z     vdW  Elec       q    Type
REMARK                         _______ _______ _______ _____ _____    ______ ____
ROOT
ATOM      2  O   UNL     1      17.705   6.064  19.911  0.00  0.00    -0.371 OA
ATOM      9  C   UNL     1      19.670   5.547  21.141  0.00  0.00    +0.111 C 
ATOM     10  C   UNL     1      19.146   6.899  21.589  0.00  0.00    +0.164 C 
ATOM     11  C   UNL     1      17.695   6.818  21.135  0.00  0.00    +0.165 C 
ATOM     12  C   UNL     1      18.966   5.381  19.804  0.00  0.00    +0.181 C 
ENDROOT
BRANCH  10   3
ATOM      3  O   UNL     1      19.252   7.089  22.987  0.00  0.00    -0.388 OA
ATOM     28  H   UNL     1      18.768   6.372  23.430  0.00  0.00    +0.210 HD
ENDBRANCH  10   3
BRANCH   9   6
ATOM      6  N   UNL     1      21.118   5.491  21.028  0.00  0.00    -0.305 NA
ATOM     26  H   UNL     1      21.523   6.272  21.546  0.00  0.00    +0.123 HD
BRANCH   6  14
ATOM     14  C   UNL     1      21.640   4.243  21.573  0.00  0.00    +0.116 C 
BRANCH  14  18
ATOM      1  F   UNL     1      26.597   2.859  19.279  0.00  0.00    -0.205 F 
ATOM     18  C   UNL     1      22.963   3.874  20.961  0.00  0.00    -0.033 A 
ATOM     21  C   UNL     1      23.732   4.847  20.321  0.00  0.00    +0.008 A 
ATOM     22  C   UNL     1      23.422   2.559  21.031  0.00  0.00    +0.008 A 
ATOM     23  C   UNL     1      24.959   4.504  19.753  0.00  0.00    +0.038 A 
ATOM     24  C   UNL     1      24.649   2.215  20.463  0.00  0.00    +0.038 A 
ATOM     25  C   UNL     1      25.418   3.189  19.824  0.00  0.00    +0.123 A 
ENDBRANCH  14  18
ENDBRANCH   6  14
ENDBRANCH   9   6
BRANCH  11  13
ATOM     13  C   UNL     1      17.063   8.177  20.896  0.00  0.00    +0.140 C 
BRANCH  13   7
ATOM      4  O   UNL     1      10.886   8.151  19.151  0.00  0.00    -0.377 OA
ATOM      5  O   UNL     1      14.667   7.794  22.322  0.00  0.00    -0.253 OA
ATOM      7  N   UNL     1      15.745   8.053  20.314  0.00  0.00    -0.297 N 
ATOM      8  N   UNL     1      13.401   7.756  20.380  0.00  0.00    -0.281 N 
ATOM     15  C   UNL     1      14.608   7.865  21.090  0.00  0.00    +0.302 C 
ATOM     16  C   UNL     1      12.154   7.548  21.118  0.00  0.00    +0.137 C 
ATOM     17  C   UNL     1      13.259   7.678  18.919  0.00  0.00    +0.137 C 
ATOM     19  C   UNL     1      11.034   8.406  20.549  0.00  0.00    +0.179 C 
ATOM     20  C   UNL     1      12.074   8.510  18.443  0.00  0.00    +0.179 C 
ATOM     27  H   UNL     1      15.701   8.093  19.306  0.00  0.00    +0.150 HD
ENDBRANCH  13   7
ENDBRANCH  11  13
TORSDOF 6
ENDMDL
MODEL 9
REMARK VINA RESULT:      -6.2     27.499     29.791
REMARK  Name = 75536752
REMARK  6 active torsions:
REMARK  status: ('A' for Active; 'I' for Inactive)
REMARK    1  A    between atoms: O_3  and  C_10
REMARK    2  A    between atoms: N_6  and  C_9
REMARK    3  A    between atoms: N_6  and  C_14
REMARK    4  A    between atoms: N_7  and  C_13
REMARK    5  A    between atoms: C_11  and  C_13
REMARK    6  A    between atoms: C_14  and  C_18
REMARK                            x       y       z     vdW  Elec       q    Type
REMARK                         _______ _______ _______ _____ _____    ______ ____
ROOT
ATOM      2  O   UNL     1      -5.664 -10.913  18.255  0.00  0.00    -0.371 OA
ATOM      9  C   UNL     1      -7.695  -9.914  17.535  0.00  0.00    +0.111 C 
ATOM     10  C   UNL     1      -6.592  -9.554  16.557  0.00  0.00    +0.164 C 
ATOM     11  C   UNL     1      -5.575 -10.650  16.845  0.00  0.00    +0.165 C 
ATOM     12  C   UNL     1      -6.889 -10.345  18.749  0.00  0.00    +0.181 C 
ENDROOT
BRANCH  10   3
ATOM      3  O   UNL     1      -7.028  -9.580  15.210  0.00  0.00    -0.388 OA
ATOM     28  H   UNL     1      -7.562 -10.381  15.077  0.00  0.00    +0.210 HD
ENDBRANCH  10   3
BRANCH   9   6
ATOM      6  N   UNL     1      -8.603  -8.816  17.820  0.00  0.00    -0.305 NA
ATOM     26  H   UNL     1      -8.441  -8.067  17.145  0.00  0.00    +0.123 HD
BRANCH   6  14
ATOM     14  C   UNL     1      -9.994  -9.244  17.724  0.00  0.00    +0.116 C 
BRANCH  14  18
ATOM      1  F   UNL     1     -13.156  -5.503  14.939  0.00  0.00    -0.205 F 
ATOM     18  C   UNL     1     -10.838  -8.245  16.981  0.00  0.00    -0.033 A 
ATOM     21  C   UNL     1     -12.204  -8.476  16.810  0.00  0.00    +0.008 A 
ATOM     22  C   UNL     1     -10.256  -7.089  16.461  0.00  0.00    +0.008 A 
ATOM     23  C   UNL     1     -12.986  -7.549  16.121  0.00  0.00    +0.038 A 
ATOM     24  C   UNL     1     -11.039  -6.163  15.771  0.00  0.00    +0.038 A 
ATOM     25  C   UNL     1     -12.405  -6.393  15.601  0.00  0.00    +0.123 A 
ENDBRANCH  14  18
ENDBRANCH   6  14
ENDBRANCH   9   6
BRANCH  11  13
ATOM     13  C   UNL     1      -4.153 -10.260  16.484  0.00  0.00    +0.140 C 
BRANCH  13   7
ATOM      4  O   UNL     1      -3.457 -11.743  10.278  0.00  0.00    -0.377 OA
ATOM      5  O   UNL     1      -3.224 -12.559  15.152  0.00  0.00    -0.253 OA
ATOM      7  N   UNL     1      -3.918 -10.374  15.062  0.00  0.00    -0.297 N 
ATOM      8  N   UNL     1      -3.271 -11.503  13.088  0.00  0.00    -0.281 N 
ATOM     15  C   UNL     1      -3.457 -11.549  14.480  0.00  0.00    +0.302 C 
ATOM     16  C   UNL     1      -2.780 -12.695  12.393  0.00  0.00    +0.137 C 
ATOM     17  C   UNL     1      -3.378 -10.308  12.238  0.00  0.00    +0.137 C 
ATOM     19  C   UNL     1      -3.533 -12.916  11.091  0.00  0.00    +0.179 C 
ATOM     20  C   UNL     1      -4.084 -10.636  10.927  0.00  0.00    +0.179 C 
ATOM     27  H   UNL     1      -4.092  -9.542  14.516  0.00  0.00    +0.150 HD
ENDBRANCH  13   7
ENDBRANCH  11  13
TORSDOF 6
ENDMDL
MODEL 10
REMARK VINA RESULT:      -6.1     27.745     29.912
REMARK  Name = 75536752
REMARK  6 active torsions:
REMARK  status: ('A' for Active; 'I' for Inactive)
REMARK    1  A    between atoms: O_3  and  C_10
REMARK    2  A    between atoms: N_6  and  C_9
REMARK    3  A    between atoms: N_6  and  C_14
REMARK    4  A    between atoms: N_7  and  C_13
REMARK    5  A    between atoms: C_11  and  C_13
REMARK    6  A    between atoms: C_14  and  C_18
REMARK                            x       y       z     vdW  Elec       q    Type
REMARK                         _______ _______ _______ _____ _____    ______ ____
ROOT
ATOM      2  O   UNL     1     -10.035 -12.734  18.493  0.00  0.00    -0.371 OA
ATOM      9  C   UNL     1      -8.561 -11.428  19.822  0.00  0.00    +0.111 C 
ATOM     10  C   UNL     1      -9.870 -10.679  19.651  0.00  0.00    +0.164 C 
ATOM     11  C   UNL     1     -10.813 -11.815  19.278  0.00  0.00    +0.165 C 
ATOM     12  C   UNL     1      -8.642 -12.434  18.685  0.00  0.00    +0.181 C 
ENDROOT
BRANCH  10   3
ATOM      3  O   UNL     1     -10.280 -10.020  20.835  0.00  0.00    -0.388 OA
ATOM     28  H   UNL     1      -9.868  -9.140  20.853  0.00  0.00    +0.210 HD
ENDBRANCH  10   3
BRANCH   9   6
ATOM      6  N   UNL     1      -7.387 -10.576  19.741  0.00  0.00    -0.305 NA
ATOM     26  H   UNL     1      -7.345  -9.987  20.573  0.00  0.00    +0.123 HD
BRANCH   6  14
ATOM     14  C   UNL     1      -6.166 -11.370  19.664  0.00  0.00    +0.116 C 
BRANCH  14  18
ATOM      1  F   UNL     1      -3.252 -10.286  14.964  0.00  0.00    -0.205 F 
ATOM     18  C   UNL     1      -5.388 -11.081  18.409  0.00  0.00    -0.033 A 
ATOM     21  C   UNL     1      -4.108 -11.611  18.244  0.00  0.00    +0.008 A 
ATOM     22  C   UNL     1      -5.945 -10.282  17.410  0.00  0.00    +0.008 A 
ATOM     23  C   UNL     1      -3.387 -11.342  17.080  0.00  0.00    +0.038 A 
ATOM     24  C   UNL     1      -5.224 -10.013  16.247  0.00  0.00    +0.038 A 
ATOM     25  C   UNL     1      -3.944 -10.544  16.082  0.00  0.00    +0.123 A 
ENDBRANCH  14  18
ENDBRANCH   6  14
ENDBRANCH   9   6
BRANCH  11  13
ATOM     13  C   UNL     1     -12.022 -11.356  18.483  0.00  0.00    +0.140 C 
BRANCH  13   7
ATOM      4  O   UNL     1     -11.550  -6.132  14.784  0.00  0.00    -0.377 OA
ATOM      5  O   UNL     1     -11.810 -10.987  15.701  0.00  0.00    -0.253 OA
ATOM      7  N   UNL     1     -11.771 -10.098  17.816  0.00  0.00    -0.297 N 
ATOM      8  N   UNL     1     -11.425  -8.712  15.933  0.00  0.00    -0.281 N 
ATOM     15  C   UNL     1     -11.680 -10.000  16.433  0.00  0.00    +0.302 C 
ATOM     16  C   UNL     1     -11.306  -8.518  14.486  0.00  0.00    +0.137 C 
ATOM     17  C   UNL     1     -11.109  -7.519  16.731  0.00  0.00    +0.137 C 
ATOM     19  C   UNL     1     -12.031  -7.256  14.044  0.00  0.00    +0.179 C 
ATOM     20  C   UNL     1     -11.823  -6.290  16.177  0.00  0.00    +0.179 C 
ATOM     27  H   UNL     1     -11.647  -9.296  18.416  0.00  0.00    +0.150 HD
ENDBRANCH  13   7
ENDBRANCH  11  13
TORSDOF 6
ENDMDL
