MODEL 1
REMARK VINA RESULT:      -5.6      0.000      0.000
REMARK  Name = 56774074
REMARK  11 active torsions:
REMARK  status: ('A' for Active; 'I' for Inactive)
REMARK    1  A    between atoms: S_1  and  N_5
REMARK    2  A    between atoms: S_1  and  C_16
REMARK    3  A    between atoms: N_5  and  C_9
REMARK    4  A    between atoms: C_7  and  C_12
REMARK    5  A    between atoms: C_7  and  C_13
REMARK    6  A    between atoms: C_8  and  C_11
REMARK    7  A    between atoms: C_11  and  C_14
REMARK    8  A    between atoms: C_17  and  C_18
REMARK    9  A    between atoms: C_18  and  C_19
REMARK   10  A    between atoms: C_19  and  C_20
REMARK   11  A    between atoms: C_20  and  C_21
REMARK                            x       y       z     vdW  Elec       q    Type
REMARK                         _______ _______ _______ _____ _____    ______ ____
ROOT
ATOM      7  C   UNL     1      -3.687 -11.080  15.118  0.00  0.00    -0.015 C 
ATOM      8  C   UNL     1      -2.439 -10.433  14.483  0.00  0.00    +0.004 C 
ATOM      9  C   UNL     1      -3.062 -10.754  16.491  0.00  0.00    +0.082 C 
ATOM     10  C   UNL     1      -1.690 -10.778  15.787  0.00  0.00    +0.025 C 
ATOM     12  C   UNL     1      -3.853 -12.570  14.883  0.00  0.00    +0.013 C 
ATOM     13  C   UNL     1      -4.974 -10.356  14.792  0.00  0.00    +0.013 C 
ENDROOT
BRANCH   9   5
ATOM      5  N   UNL     1      -3.246 -11.758  17.596  0.00  0.00    -0.191 NA
ATOM     22  H   UNL     1      -3.019 -12.717  17.299  0.00  0.00    +0.148 HD
BRANCH   5   1
ATOM      1  S   UNL     1      -4.457 -11.670  18.800  0.00  0.00    +0.027 S 
ATOM      2  O   UNL     1      -5.178 -10.418  18.672  0.00  0.00    -0.158 OA
ATOM      3  O   UNL     1      -3.880 -12.075  20.066  0.00  0.00    -0.158 OA
ATOM     16  C   UNL     1      -5.531 -12.977  18.254  0.00  0.00    +0.214 C 
ENDBRANCH   5   1
ENDBRANCH   9   5
BRANCH   8  11
ATOM     11  C   UNL     1      -1.869 -11.092  13.219  0.00  0.00    +0.063 C 
BRANCH  11  14
ATOM      4  O   UNL     1      -2.048  -9.006  10.327  0.00  0.00    -0.359 OA
ATOM      6  N   UNL     1      -1.371  -9.542  11.414  0.00  0.00    -0.083 NA
ATOM     14  C   UNL     1      -2.255 -10.346  12.012  0.00  0.00    +0.084 A 
ATOM     15  C   UNL     1      -3.497 -10.355  11.353  0.00  0.00    +0.071 A 
ATOM     17  C   UNL     1      -3.314  -9.497  10.300  0.00  0.00    +0.138 A 
BRANCH  17  18
ATOM     18  C   UNL     1      -4.199  -9.017   9.178  0.00  0.00    +0.077 C 
BRANCH  18  19
ATOM     19  C   UNL     1      -5.348  -8.150   9.695  0.00  0.00    +0.007 C 
BRANCH  19  20
ATOM     20  C   UNL     1      -6.704  -8.775   9.367  0.00  0.00    -0.003 C 
ATOM     21  C   UNL     1      -7.101  -9.817  10.401  0.00  0.00    +0.004 C 
ENDBRANCH  19  20
ENDBRANCH  18  19
ENDBRANCH  17  18
ENDBRANCH  11  14
ENDBRANCH   8  11
TORSDOF 7
ENDMDL
MODEL 2
REMARK VINA RESULT:      -5.4      3.312      4.770
REMARK  Name = 56774074
REMARK  11 active torsions:
REMARK  status: ('A' for Active; 'I' for Inactive)
REMARK    1  A    between atoms: S_1  and  N_5
REMARK    2  A    between atoms: S_1  and  C_16
REMARK    3  A    between atoms: N_5  and  C_9
REMARK    4  A    between atoms: C_7  and  C_12
REMARK    5  A    between atoms: C_7  and  C_13
REMARK    6  A    between atoms: C_8  and  C_11
REMARK    7  A    between atoms: C_11  and  C_14
REMARK    8  A    between atoms: C_17  and  C_18
REMARK    9  A    between atoms: C_18  and  C_19
REMARK   10  A    between atoms: C_19  and  C_20
REMARK   11  A    between atoms: C_20  and  C_21
REMARK                            x       y       z     vdW  Elec       q    Type
REMARK                         _______ _______ _______ _____ _____    ______ ____
ROOT
ATOM      7  C   UNL     1      -6.416 -11.110  17.842  0.00  0.00    -0.015 C 
ATOM      8  C   UNL     1      -5.429 -10.867  16.682  0.00  0.00    +0.004 C 
ATOM      9  C   UNL     1      -7.403 -10.191  17.094  0.00  0.00    +0.082 C 
ATOM     10  C   UNL     1      -6.174  -9.539  16.429  0.00  0.00    +0.025 C 
ATOM     12  C   UNL     1      -5.999 -10.557  19.193  0.00  0.00    +0.013 C 
ATOM     13  C   UNL     1      -6.839 -12.556  17.982  0.00  0.00    +0.013 C 
ENDROOT
BRANCH   9   5
ATOM      5  N   UNL     1      -8.261  -9.271  17.920  0.00  0.00    -0.191 NA
ATOM     22  H   UNL     1      -7.998  -9.274  18.915  0.00  0.00    +0.148 HD
BRANCH   5   1
ATOM      1  S   UNL     1      -9.922  -8.977  17.640  0.00  0.00    +0.027 S 
ATOM      2  O   UNL     1     -10.117  -7.581  17.298  0.00  0.00    -0.158 OA
ATOM      3  O   UNL     1     -10.686  -9.602  18.700  0.00  0.00    -0.158 OA
ATOM     16  C   UNL     1     -10.162  -9.939  16.165  0.00  0.00    +0.214 C 
ENDBRANCH   5   1
ENDBRANCH   9   5
BRANCH   8  11
ATOM     11  C   UNL     1      -3.944 -10.715  17.039  0.00  0.00    +0.063 C 
BRANCH  11  14
ATOM      4  O   UNL     1      -1.323 -10.587  14.617  0.00  0.00    -0.359 OA
ATOM      6  N   UNL     1      -1.816 -10.412  15.904  0.00  0.00    -0.083 NA
ATOM     14  C   UNL     1      -3.100 -10.774  15.835  0.00  0.00    +0.084 A 
ATOM     15  C   UNL     1      -3.471 -11.180  14.542  0.00  0.00    +0.071 A 
ATOM     17  C   UNL     1      -2.318 -11.045  13.814  0.00  0.00    +0.138 A 
BRANCH  17  18
ATOM     18  C   UNL     1      -1.958 -11.292  12.372  0.00  0.00    +0.077 C 
BRANCH  18  19
ATOM     19  C   UNL     1      -2.196 -10.051  11.509  0.00  0.00    +0.007 C 
BRANCH  19  20
ATOM     20  C   UNL     1      -3.511 -10.158  10.737  0.00  0.00    -0.003 C 
ATOM     21  C   UNL     1      -3.618  -9.082   9.667  0.00  0.00    +0.004 C 
ENDBRANCH  19  20
ENDBRANCH  18  19
ENDBRANCH  17  18
ENDBRANCH  11  14
ENDBRANCH   8  11
TORSDOF 7
ENDMDL
MODEL 3
REMARK VINA RESULT:      -5.4      3.078      4.528
REMARK  Name = 56774074
REMARK  11 active torsions:
REMARK  status: ('A' for Active; 'I' for Inactive)
REMARK    1  A    between atoms: S_1  and  N_5
REMARK    2  A    between atoms: S_1  and  C_16
REMARK    3  A    between atoms: N_5  and  C_9
REMARK    4  A    between atoms: C_7  and  C_12
REMARK    5  A    between atoms: C_7  and  C_13
REMARK    6  A    between atoms: C_8  and  C_11
REMARK    7  A    between atoms: C_11  and  C_14
REMARK    8  A    between atoms: C_17  and  C_18
REMARK    9  A    between atoms: C_18  and  C_19
REMARK   10  A    between atoms: C_19  and  C_20
REMARK   11  A    between atoms: C_20  and  C_21
REMARK                            x       y       z     vdW  Elec       q    Type
REMARK                         _______ _______ _______ _____ _____    ______ ____
ROOT
ATOM      7  C   UNL     1      -6.485 -10.870  17.342  0.00  0.00    -0.015 C 
ATOM      8  C   UNL     1      -5.009 -10.595  17.694  0.00  0.00    +0.004 C 
ATOM      9  C   UNL     1      -6.844 -10.280  18.722  0.00  0.00    +0.082 C 
ATOM     10  C   UNL     1      -5.425 -10.680  19.177  0.00  0.00    +0.025 C 
ATOM     12  C   UNL     1      -6.871 -12.331  17.204  0.00  0.00    +0.013 C 
ATOM     13  C   UNL     1      -6.976 -10.089  16.143  0.00  0.00    +0.013 C 
ENDROOT
BRANCH   9   5
ATOM      5  N   UNL     1      -7.976 -10.919  19.480  0.00  0.00    -0.191 NA
ATOM     22  H   UNL     1      -7.790 -11.905  19.708  0.00  0.00    +0.148 HD
BRANCH   5   1
ATOM      1  S   UNL     1      -9.630 -10.558  19.244  0.00  0.00    +0.027 S 
ATOM      2  O   UNL     1      -9.773  -9.640  18.130  0.00  0.00    -0.158 OA
ATOM      3  O   UNL     1     -10.227 -10.270  20.533  0.00  0.00    -0.158 OA
ATOM     16  C   UNL     1     -10.222 -12.149  18.720  0.00  0.00    +0.214 C 
ENDBRANCH   5   1
ENDBRANCH   9   5
BRANCH   8  11
ATOM     11  C   UNL     1      -3.972 -11.638  17.254  0.00  0.00    +0.063 C 
BRANCH  11  14
ATOM      4  O   UNL     1      -1.473 -10.309  15.077  0.00  0.00    -0.359 OA
ATOM      6  N   UNL     1      -1.937 -10.681  16.332  0.00  0.00    -0.083 NA
ATOM     14  C   UNL     1      -3.171 -11.146  16.122  0.00  0.00    +0.084 A 
ATOM     15  C   UNL     1      -3.538 -11.091  14.766  0.00  0.00    +0.071 A 
ATOM     17  C   UNL     1      -2.435 -10.558  14.152  0.00  0.00    +0.138 A 
BRANCH  17  18
ATOM     18  C   UNL     1      -2.102 -10.211  12.723  0.00  0.00    +0.077 C 
BRANCH  18  19
ATOM     19  C   UNL     1      -2.535 -11.315  11.757  0.00  0.00    +0.007 C 
BRANCH  19  20
ATOM     20  C   UNL     1      -3.448 -10.765  10.662  0.00  0.00    -0.003 C 
ATOM     21  C   UNL     1      -3.078  -9.336  10.294  0.00  0.00    +0.004 C 
ENDBRANCH  19  20
ENDBRANCH  18  19
ENDBRANCH  17  18
ENDBRANCH  11  14
ENDBRANCH   8  11
TORSDOF 7
ENDMDL
MODEL 4
REMARK VINA RESULT:      -5.3     22.919     25.528
REMARK  Name = 56774074
REMARK  11 active torsions:
REMARK  status: ('A' for Active; 'I' for Inactive)
REMARK    1  A    between atoms: S_1  and  N_5
REMARK    2  A    between atoms: S_1  and  C_16
REMARK    3  A    between atoms: N_5  and  C_9
REMARK    4  A    between atoms: C_7  and  C_12
REMARK    5  A    between atoms: C_7  and  C_13
REMARK    6  A    between atoms: C_8  and  C_11
REMARK    7  A    between atoms: C_11  and  C_14
REMARK    8  A    between atoms: C_17  and  C_18
REMARK    9  A    between atoms: C_18  and  C_19
REMARK   10  A    between atoms: C_19  and  C_20
REMARK   11  A    between atoms: C_20  and  C_21
REMARK                            x       y       z     vdW  Elec       q    Type
REMARK                         _______ _______ _______ _____ _____    ______ ____
ROOT
ATOM      7  C   UNL     1     -16.119   2.390  29.745  0.00  0.00    -0.015 C 
ATOM      8  C   UNL     1     -15.288   1.734  30.867  0.00  0.00    +0.004 C 
ATOM      9  C   UNL     1     -16.495   0.963  29.295  0.00  0.00    +0.082 C 
ATOM     10  C   UNL     1     -15.186   0.490  29.961  0.00  0.00    +0.025 C 
ATOM     12  C   UNL     1     -15.330   3.153  28.697  0.00  0.00    +0.013 C 
ATOM     13  C   UNL     1     -17.260   3.241  30.257  0.00  0.00    +0.013 C 
ENDROOT
BRANCH   9   5
ATOM      5  N   UNL     1     -16.604   0.705  27.817  0.00  0.00    -0.191 NA
ATOM     22  H   UNL     1     -15.784   1.044  27.296  0.00  0.00    +0.148 HD
BRANCH   5   1
ATOM      1  S   UNL     1     -18.063   0.750  26.927  0.00  0.00    +0.027 S 
ATOM      2  O   UNL     1     -18.680   2.054  27.073  0.00  0.00    -0.158 OA
ATOM      3  O   UNL     1     -18.806  -0.464  27.195  0.00  0.00    -0.158 OA
ATOM     16  C   UNL     1     -17.420   0.633  25.273  0.00  0.00    +0.214 C 
ENDBRANCH   5   1
ENDBRANCH   9   5
BRANCH   8  11
ATOM     11  C   UNL     1     -13.945   2.386  31.222  0.00  0.00    +0.063 C 
BRANCH  11  14
ATOM      4  O   UNL     1     -14.532   3.891  34.407  0.00  0.00    -0.359 OA
ATOM      6  N   UNL     1     -14.533   2.803  33.544  0.00  0.00    -0.083 NA
ATOM     14  C   UNL     1     -14.079   3.281  32.382  0.00  0.00    +0.084 A 
ATOM     15  C   UNL     1     -13.781   4.653  32.451  0.00  0.00    +0.071 A 
ATOM     17  C   UNL     1     -14.082   4.988  33.745  0.00  0.00    +0.138 A 
BRANCH  17  18
ATOM     18  C   UNL     1     -14.016   6.270  34.535  0.00  0.00    +0.077 C 
BRANCH  18  19
ATOM     19  C   UNL     1     -14.226   7.496  33.643  0.00  0.00    +0.007 C 
BRANCH  19  20
ATOM     20  C   UNL     1     -12.972   8.367  33.596  0.00  0.00    -0.003 C 
ATOM     21  C   UNL     1     -12.222   8.194  32.284  0.00  0.00    +0.004 C 
ENDBRANCH  19  20
ENDBRANCH  18  19
ENDBRANCH  17  18
ENDBRANCH  11  14
ENDBRANCH   8  11
TORSDOF 7
ENDMDL
MODEL 5
REMARK VINA RESULT:      -5.3     24.326     26.953
REMARK  Name = 56774074
REMARK  11 active torsions:
REMARK  status: ('A' for Active; 'I' for Inactive)
REMARK    1  A    between atoms: S_1  and  N_5
REMARK    2  A    between atoms: S_1  and  C_16
REMARK    3  A    between atoms: N_5  and  C_9
REMARK    4  A    between atoms: C_7  and  C_12
REMARK    5  A    between atoms: C_7  and  C_13
REMARK    6  A    between atoms: C_8  and  C_11
REMARK    7  A    between atoms: C_11  and  C_14
REMARK    8  A    between atoms: C_17  and  C_18
REMARK    9  A    between atoms: C_18  and  C_19
REMARK   10  A    between atoms: C_19  and  C_20
REMARK   11  A    between atoms: C_20  and  C_21
REMARK                            x       y       z     vdW  Elec       q    Type
REMARK                         _______ _______ _______ _____ _____    ______ ____
ROOT
ATOM      7  C   UNL     1     -14.653   2.913  32.095  0.00  0.00    -0.015 C 
ATOM      8  C   UNL     1     -13.782   4.102  32.549  0.00  0.00    +0.004 C 
ATOM      9  C   UNL     1     -13.350   2.240  31.616  0.00  0.00    +0.082 C 
ATOM     10  C   UNL     1     -12.756   3.658  31.485  0.00  0.00    +0.025 C 
ATOM     12  C   UNL     1     -15.623   3.197  30.964  0.00  0.00    +0.013 C 
ATOM     13  C   UNL     1     -15.371   2.222  33.233  0.00  0.00    +0.013 C 
ENDROOT
BRANCH   9   5
ATOM      5  N   UNL     1     -13.407   1.438  30.344  0.00  0.00    -0.191 NA
ATOM     22  H   UNL     1     -13.361   2.029  29.503  0.00  0.00    +0.148 HD
BRANCH   5   1
ATOM      1  S   UNL     1     -14.314   0.003  30.139  0.00  0.00    +0.027 S 
ATOM      2  O   UNL     1     -15.302   0.199  29.096  0.00  0.00    -0.158 OA
ATOM      3  O   UNL     1     -14.693  -0.494  31.446  0.00  0.00    -0.158 OA
ATOM     16  C   UNL     1     -13.051  -1.072  29.500  0.00  0.00    +0.214 C 
ENDBRANCH   5   1
ENDBRANCH   9   5
BRANCH   8  11
ATOM     11  C   UNL     1     -14.352   5.512  32.345  0.00  0.00    +0.063 C 
BRANCH  11  14
ATOM      4  O   UNL     1     -12.478   8.166  33.827  0.00  0.00    -0.359 OA
ATOM      6  N   UNL     1     -12.921   7.439  32.729  0.00  0.00    -0.083 NA
ATOM     14  C   UNL     1     -13.701   6.482  33.240  0.00  0.00    +0.084 A 
ATOM     15  C   UNL     1     -13.785   6.554  34.641  0.00  0.00    +0.071 A 
ATOM     17  C   UNL     1     -12.999   7.630  34.960  0.00  0.00    +0.138 A 
BRANCH  17  18
ATOM     18  C   UNL     1     -12.620   8.298  36.257  0.00  0.00    +0.077 C 
BRANCH  18  19
ATOM     19  C   UNL     1     -11.415   7.621  36.912  0.00  0.00    +0.007 C 
BRANCH  19  20
ATOM     20  C   UNL     1     -10.646   8.598  37.800  0.00  0.00    -0.003 C 
ATOM     21  C   UNL     1     -10.064   7.902  39.021  0.00  0.00    +0.004 C 
ENDBRANCH  19  20
ENDBRANCH  18  19
ENDBRANCH  17  18
ENDBRANCH  11  14
ENDBRANCH   8  11
TORSDOF 7
ENDMDL
MODEL 6
REMARK VINA RESULT:      -5.2     22.334     24.259
REMARK  Name = 56774074
REMARK  11 active torsions:
REMARK  status: ('A' for Active; 'I' for Inactive)
REMARK    1  A    between atoms: S_1  and  N_5
REMARK    2  A    between atoms: S_1  and  C_16
REMARK    3  A    between atoms: N_5  and  C_9
REMARK    4  A    between atoms: C_7  and  C_12
REMARK    5  A    between atoms: C_7  and  C_13
REMARK    6  A    between atoms: C_8  and  C_11
REMARK    7  A    between atoms: C_11  and  C_14
REMARK    8  A    between atoms: C_17  and  C_18
REMARK    9  A    between atoms: C_18  and  C_19
REMARK   10  A    between atoms: C_19  and  C_20
REMARK   11  A    between atoms: C_20  and  C_21
REMARK                            x       y       z     vdW  Elec       q    Type
REMARK                         _______ _______ _______ _____ _____    ______ ____
ROOT
ATOM      7  C   UNL     1      10.104   6.851   4.579  0.00  0.00    -0.015 C 
ATOM      8  C   UNL     1      10.785   6.211   3.352  0.00  0.00    +0.004 C 
ATOM      9  C   UNL     1      10.628   5.653   5.399  0.00  0.00    +0.082 C 
ATOM     10  C   UNL     1      10.648   4.857   4.078  0.00  0.00    +0.025 C 
ATOM     12  C   UNL     1       8.589   6.920   4.534  0.00  0.00    +0.013 C 
ATOM     13  C   UNL     1      10.675   8.202   4.950  0.00  0.00    +0.013 C 
ENDROOT
BRANCH   9   5
ATOM      5  N   UNL     1       9.735   5.104   6.478  0.00  0.00    -0.191 NA
ATOM     22  H   UNL     1       8.751   5.041   6.181  0.00  0.00    +0.148 HD
BRANCH   5   1
ATOM      1  S   UNL     1       9.941   5.389   8.150  0.00  0.00    +0.027 S 
ATOM      2  O   UNL     1      11.334   5.687   8.424  0.00  0.00    -0.158 OA
ATOM      3  O   UNL     1       9.239   4.356   8.885  0.00  0.00    -0.158 OA
ATOM     16  C   UNL     1       9.016   6.897   8.324  0.00  0.00    +0.214 C 
ENDBRANCH   5   1
ENDBRANCH   9   5
BRANCH   8  11
ATOM     11  C   UNL     1      10.047   6.301   2.010  0.00  0.00    +0.063 C 
BRANCH  11  14
ATOM      4  O   UNL     1      10.553   3.760  -0.448  0.00  0.00    -0.359 OA
ATOM      6  N   UNL     1       9.737   4.549   0.353  0.00  0.00    -0.083 NA
ATOM     14  C   UNL     1      10.577   5.323   1.047  0.00  0.00    +0.084 A 
ATOM     15  C   UNL     1      11.922   5.067   0.729  0.00  0.00    +0.071 A 
ATOM     17  C   UNL     1      11.852   4.077  -0.215  0.00  0.00    +0.138 A 
BRANCH  17  18
ATOM     18  C   UNL     1      12.883   3.311  -1.004  0.00  0.00    +0.077 C 
BRANCH  18  19
ATOM     19  C   UNL     1      12.935   3.770  -2.463  0.00  0.00    +0.007 C 
BRANCH  19  20
ATOM     20  C   UNL     1      12.443   2.672  -3.406  0.00  0.00    -0.003 C 
ATOM     21  C   UNL     1      11.004   2.913  -3.836  0.00  0.00    +0.004 C 
ENDBRANCH  19  20
ENDBRANCH  18  19
ENDBRANCH  17  18
ENDBRANCH  11  14
ENDBRANCH   8  11
TORSDOF 7
ENDMDL
MODEL 7
REMARK VINA RESULT:      -5.1      4.498      6.510
REMARK  Name = 56774074
REMARK  11 active torsions:
REMARK  status: ('A' for Active; 'I' for Inactive)
REMARK    1  A    between atoms: S_1  and  N_5
REMARK    2  A    between atoms: S_1  and  C_16
REMARK    3  A    between atoms: N_5  and  C_9
REMARK    4  A    between atoms: C_7  and  C_12
REMARK    5  A    between atoms: C_7  and  C_13
REMARK    6  A    between atoms: C_8  and  C_11
REMARK    7  A    between atoms: C_11  and  C_14
REMARK    8  A    between atoms: C_17  and  C_18
REMARK    9  A    between atoms: C_18  and  C_19
REMARK   10  A    between atoms: C_19  and  C_20
REMARK   11  A    between atoms: C_20  and  C_21
REMARK                            x       y       z     vdW  Elec       q    Type
REMARK                         _______ _______ _______ _____ _____    ______ ____
ROOT
ATOM      7  C   UNL     1      -4.386 -11.869  18.229  0.00  0.00    -0.015 C 
ATOM      8  C   UNL     1      -5.297 -10.641  18.432  0.00  0.00    +0.004 C 
ATOM      9  C   UNL     1      -3.721 -11.089  17.075  0.00  0.00    +0.082 C 
ATOM     10  C   UNL     1      -5.042 -10.301  16.949  0.00  0.00    +0.025 C 
ATOM     12  C   UNL     1      -5.079 -13.137  17.765  0.00  0.00    +0.013 C 
ATOM     13  C   UNL     1      -3.500 -12.167  19.419  0.00  0.00    +0.013 C 
ENDROOT
BRANCH   9   5
ATOM      5  N   UNL     1      -3.308 -11.867  15.856  0.00  0.00    -0.191 NA
ATOM     22  H   UNL     1      -3.295 -12.883  16.023  0.00  0.00    +0.148 HD
BRANCH   5   1
ATOM      1  S   UNL     1      -2.161 -11.336  14.705  0.00  0.00    +0.027 S 
ATOM      2  O   UNL     1      -2.787 -10.398  13.793  0.00  0.00    -0.158 OA
ATOM      3  O   UNL     1      -1.433 -12.488  14.212  0.00  0.00    -0.158 OA
ATOM     16  C   UNL     1      -1.064 -10.419  15.762  0.00  0.00    +0.214 C 
ENDBRANCH   5   1
ENDBRANCH   9   5
BRANCH   8  11
ATOM     11  C   UNL     1      -6.766 -10.903  18.790  0.00  0.00    +0.063 C 
BRANCH  11  14
ATOM      4  O   UNL     1      -8.886 -10.708  15.923  0.00  0.00    -0.359 OA
ATOM      6  N   UNL     1      -8.070 -11.409  16.802  0.00  0.00    -0.083 NA
ATOM     14  C   UNL     1      -7.660 -10.502  17.692  0.00  0.00    +0.084 A 
ATOM     15  C   UNL     1      -8.178  -9.222  17.427  0.00  0.00    +0.071 A 
ATOM     17  C   UNL     1      -8.942  -9.406  16.305  0.00  0.00    +0.138 A 
BRANCH  17  18
ATOM     18  C   UNL     1      -9.789  -8.492  15.457  0.00  0.00    +0.077 C 
BRANCH  18  19
ATOM     19  C   UNL     1     -11.270  -8.585  15.829  0.00  0.00    +0.007 C 
BRANCH  19  20
ATOM     20  C   UNL     1     -11.918  -7.202  15.872  0.00  0.00    -0.003 C 
ATOM     21  C   UNL     1     -10.872  -6.098  15.901  0.00  0.00    +0.004 C 
ENDBRANCH  19  20
ENDBRANCH  18  19
ENDBRANCH  17  18
ENDBRANCH  11  14
ENDBRANCH   8  11
TORSDOF 7
ENDMDL
MODEL 8
REMARK VINA RESULT:      -5.1      3.636      7.637
REMARK  Name = 56774074
REMARK  11 active torsions:
REMARK  status: ('A' for Active; 'I' for Inactive)
REMARK    1  A    between atoms: S_1  and  N_5
REMARK    2  A    between atoms: S_1  and  C_16
REMARK    3  A    between atoms: N_5  and  C_9
REMARK    4  A    between atoms: C_7  and  C_12
REMARK    5  A    between atoms: C_7  and  C_13
REMARK    6  A    between atoms: C_8  and  C_11
REMARK    7  A    between atoms: C_11  and  C_14
REMARK    8  A    between atoms: C_17  and  C_18
REMARK    9  A    between atoms: C_18  and  C_19
REMARK   10  A    between atoms: C_19  and  C_20
REMARK   11  A    between atoms: C_20  and  C_21
REMARK                            x       y       z     vdW  Elec       q    Type
REMARK                         _______ _______ _______ _____ _____    ______ ____
ROOT
ATOM      7  C   UNL     1      -4.137  -9.940  10.759  0.00  0.00    -0.015 C 
ATOM      8  C   UNL     1      -3.581 -10.928  11.805  0.00  0.00    +0.004 C 
ATOM      9  C   UNL     1      -4.546 -11.172   9.925  0.00  0.00    +0.082 C 
ATOM     10  C   UNL     1      -3.424 -11.941  10.652  0.00  0.00    +0.025 C 
ATOM     12  C   UNL     1      -3.110  -9.067  10.062  0.00  0.00    +0.013 C 
ATOM     13  C   UNL     1      -5.276  -9.089  11.278  0.00  0.00    +0.013 C 
ENDROOT
BRANCH   9   5
ATOM      5  N   UNL     1      -4.408 -11.078   8.429  0.00  0.00    -0.191 NA
ATOM     22  H   UNL     1      -3.468 -10.777   8.139  0.00  0.00    +0.148 HD
BRANCH   5   1
ATOM      1  S   UNL     1      -5.655 -10.590   7.367  0.00  0.00    +0.027 S 
ATOM      2  O   UNL     1      -5.242 -10.819   5.996  0.00  0.00    -0.158 OA
ATOM      3  O   UNL     1      -6.147  -9.296   7.795  0.00  0.00    -0.158 OA
ATOM     16  C   UNL     1      -6.896 -11.798   7.771  0.00  0.00    +0.214 C 
ENDBRANCH   5   1
ENDBRANCH   9   5
BRANCH   8  11
ATOM     11  C   UNL     1      -2.274 -10.546  12.511  0.00  0.00    +0.063 C 
BRANCH  11  14
ATOM      4  O   UNL     1      -1.919 -10.304  16.056  0.00  0.00    -0.359 OA
ATOM      6  N   UNL     1      -1.457 -10.114  14.759  0.00  0.00    -0.083 NA
ATOM     14  C   UNL     1      -2.428 -10.589  13.973  0.00  0.00    +0.084 A 
ATOM     15  C   UNL     1      -3.515 -11.087  14.711  0.00  0.00    +0.071 A 
ATOM     17  C   UNL     1      -3.146 -10.884  16.015  0.00  0.00    +0.138 A 
BRANCH  17  18
ATOM     18  C   UNL     1      -3.802 -11.165  17.342  0.00  0.00    +0.077 C 
BRANCH  18  19
ATOM     19  C   UNL     1      -5.096 -10.367  17.514  0.00  0.00    +0.007 C 
BRANCH  19  20
ATOM     20  C   UNL     1      -6.136 -11.162  18.303  0.00  0.00    -0.003 C 
ATOM     21  C   UNL     1      -5.712 -11.349  19.752  0.00  0.00    +0.004 C 
ENDBRANCH  19  20
ENDBRANCH  18  19
ENDBRANCH  17  18
ENDBRANCH  11  14
ENDBRANCH   8  11
TORSDOF 7
ENDMDL
MODEL 9
REMARK VINA RESULT:      -5.1     24.422     26.883
REMARK  Name = 56774074
REMARK  11 active torsions:
REMARK  status: ('A' for Active; 'I' for Inactive)
REMARK    1  A    between atoms: S_1  and  N_5
REMARK    2  A    between atoms: S_1  and  C_16
REMARK    3  A    between atoms: N_5  and  C_9
REMARK    4  A    between atoms: C_7  and  C_12
REMARK    5  A    between atoms: C_7  and  C_13
REMARK    6  A    between atoms: C_8  and  C_11
REMARK    7  A    between atoms: C_11  and  C_14
REMARK    8  A    between atoms: C_17  and  C_18
REMARK    9  A    between atoms: C_18  and  C_19
REMARK   10  A    between atoms: C_19  and  C_20
REMARK   11  A    between atoms: C_20  and  C_21
REMARK                            x       y       z     vdW  Elec       q    Type
REMARK                         _______ _______ _______ _____ _____    ______ ____
ROOT
ATOM      7  C   UNL     1     -14.676   3.110  32.275  0.00  0.00    -0.015 C 
ATOM      8  C   UNL     1     -13.734   4.207  32.810  0.00  0.00    +0.004 C 
ATOM      9  C   UNL     1     -13.413   2.371  31.787  0.00  0.00    +0.082 C 
ATOM     10  C   UNL     1     -12.717   3.746  31.746  0.00  0.00    +0.025 C 
ATOM     12  C   UNL     1     -15.596   3.523  31.141  0.00  0.00    +0.013 C 
ATOM     13  C   UNL     1     -15.469   2.414  33.359  0.00  0.00    +0.013 C 
ENDROOT
BRANCH   9   5
ATOM      5  N   UNL     1     -13.496   1.643  30.473  0.00  0.00    -0.191 NA
ATOM     22  H   UNL     1     -13.636   2.281  29.677  0.00  0.00    +0.148 HD
BRANCH   5   1
ATOM      1  S   UNL     1     -14.197   0.098  30.259  0.00  0.00    +0.027 S 
ATOM      2  O   UNL     1     -14.803  -0.336  31.503  0.00  0.00    -0.158 OA
ATOM      3  O   UNL     1     -13.252  -0.743  29.553  0.00  0.00    -0.158 OA
ATOM     16  C   UNL     1     -15.505   0.506  29.127  0.00  0.00    +0.214 C 
ENDBRANCH   5   1
ENDBRANCH   9   5
BRANCH   8  11
ATOM     11  C   UNL     1     -14.197   5.664  32.672  0.00  0.00    +0.063 C 
BRANCH  11  14
ATOM      4  O   UNL     1     -13.167   7.074  35.787  0.00  0.00    -0.359 OA
ATOM      6  N   UNL     1     -13.753   6.069  35.027  0.00  0.00    -0.083 NA
ATOM     14  C   UNL     1     -13.667   6.495  33.764  0.00  0.00    +0.084 A 
ATOM     15  C   UNL     1     -13.044   7.752  33.667  0.00  0.00    +0.071 A 
ATOM     17  C   UNL     1     -12.749   8.071  34.966  0.00  0.00    +0.138 A 
BRANCH  17  18
ATOM     18  C   UNL     1     -12.085   9.252  35.626  0.00  0.00    +0.077 C 
BRANCH  18  19
ATOM     19  C   UNL     1     -11.760  10.356  34.617  0.00  0.00    +0.007 C 
BRANCH  19  20
ATOM     20  C   UNL     1     -10.254  10.471  34.389  0.00  0.00    -0.003 C 
ATOM     21  C   UNL     1      -9.831   9.782  33.101  0.00  0.00    +0.004 C 
ENDBRANCH  19  20
ENDBRANCH  18  19
ENDBRANCH  17  18
ENDBRANCH  11  14
ENDBRANCH   8  11
TORSDOF 7
ENDMDL
MODEL 10
REMARK VINA RESULT:      -4.9     22.484     25.550
REMARK  Name = 56774074
REMARK  11 active torsions:
REMARK  status: ('A' for Active; 'I' for Inactive)
REMARK    1  A    between atoms: S_1  and  N_5
REMARK    2  A    between atoms: S_1  and  C_16
REMARK    3  A    between atoms: N_5  and  C_9
REMARK    4  A    between atoms: C_7  and  C_12
REMARK    5  A    between atoms: C_7  and  C_13
REMARK    6  A    between atoms: C_8  and  C_11
REMARK    7  A    between atoms: C_11  and  C_14
REMARK    8  A    between atoms: C_17  and  C_18
REMARK    9  A    between atoms: C_18  and  C_19
REMARK   10  A    between atoms: C_19  and  C_20
REMARK   11  A    between atoms: C_20  and  C_21
REMARK                            x       y       z     vdW  Elec       q    Type
REMARK                         _______ _______ _______ _____ _____    ______ ____
ROOT
ATOM      7  C   UNL     1      11.415   4.781   0.399  0.00  0.00    -0.015 C 
ATOM      8  C   UNL     1      12.081   4.422   1.743  0.00  0.00    +0.004 C 
ATOM      9  C   UNL     1      12.069   3.507  -0.178  0.00  0.00    +0.082 C 
ATOM     10  C   UNL     1      13.137   3.649   0.926  0.00  0.00    +0.025 C 
ATOM     12  C   UNL     1      11.909   6.052  -0.266  0.00  0.00    +0.013 C 
ATOM     13  C   UNL     1       9.903   4.778   0.454  0.00  0.00    +0.013 C 
ENDROOT
BRANCH   9   5
ATOM      5  N   UNL     1      12.581   3.566  -1.591  0.00  0.00    -0.191 NA
ATOM     22  H   UNL     1      13.132   4.415  -1.776  0.00  0.00    +0.148 HD
BRANCH   5   1
ATOM      1  S   UNL     1      11.740   2.970  -2.955  0.00  0.00    +0.027 S 
ATOM      2  O   UNL     1      10.650   2.118  -2.520  0.00  0.00    -0.158 OA
ATOM      3  O   UNL     1      12.708   2.509  -3.929  0.00  0.00    -0.158 OA
ATOM     16  C   UNL     1      11.037   4.483  -3.570  0.00  0.00    +0.214 C 
ENDBRANCH   5   1
ENDBRANCH   9   5
BRANCH   8  11
ATOM     11  C   UNL     1      12.637   5.578   2.585  0.00  0.00    +0.063 C 
BRANCH  11  14
ATOM      4  O   UNL     1      10.663   7.288   5.021  0.00  0.00    -0.359 OA
ATOM      6  N   UNL     1      11.669   7.247   4.064  0.00  0.00    -0.083 NA
ATOM     14  C   UNL     1      11.678   5.985   3.625  0.00  0.00    +0.084 A 
ATOM     15  C   UNL     1      10.709   5.192   4.263  0.00  0.00    +0.071 A 
ATOM     17  C   UNL     1      10.098   6.058   5.130  0.00  0.00    +0.138 A 
BRANCH  17  18
ATOM     18  C   UNL     1       8.979   5.919   6.131  0.00  0.00    +0.077 C 
BRANCH  18  19
ATOM     19  C   UNL     1       9.489   6.027   7.569  0.00  0.00    +0.007 C 
BRANCH  19  20
ATOM     20  C   UNL     1       9.795   4.648   8.153  0.00  0.00    -0.003 C 
ATOM     21  C   UNL     1       9.369   4.553   9.610  0.00  0.00    +0.004 C 
ENDBRANCH  19  20
ENDBRANCH  18  19
ENDBRANCH  17  18
ENDBRANCH  11  14
ENDBRANCH   8  11
TORSDOF 7
ENDMDL
