REMARK  Name = 45361604
REMARK  10 active torsions:
REMARK  status: ('A' for Active; 'I' for Inactive)
REMARK    1  A    between atoms: O_2  and  C_11
REMARK    2  A    between atoms: N_5  and  C_15
REMARK    3  A    between atoms: N_6  and  C_25
REMARK    4  A    between atoms: C_8  and  C_18
REMARK    5  A    between atoms: C_10  and  C_20
REMARK    6  A    between atoms: C_14  and  C_19
REMARK    7  A    between atoms: C_19  and  C_21
REMARK    8  A    between atoms: C_19  and  C_22
REMARK    9  A    between atoms: C_23  and  C_24
REMARK   10  A    between atoms: C_25  and  C_27
REMARK                            x       y       z     vdW  Elec       q    Type
REMARK                         _______ _______ _______ _____ _____    ______ ____
ROOT
ATOM      8  C   UNL     1      -0.174   0.270   1.285  0.00  0.00    -0.027 C 
ATOM      9  C   UNL     1      -0.507  -0.500  -0.035  0.00  0.00    +0.028 C 
ATOM     10  C   UNL     1      -2.039  -0.840  -0.112  0.00  0.00    +0.012 C 
ATOM     11  C   UNL     1       0.456  -1.703  -0.246  0.00  0.00    +0.122 C 
ATOM     12  C   UNL     1       1.316   0.689   1.276  0.00  0.00    +0.007 C 
ATOM     13  C   UNL     1      -1.024   1.560   1.346  0.00  0.00    +0.009 C 
ATOM     14  C   UNL     1       1.945  -1.296  -0.150  0.00  0.00    +0.029 C 
ATOM     15  C   UNL     1      -2.886   0.456   0.025  0.00  0.00    +0.076 C 
ATOM     16  C   UNL     1       2.264  -0.492   1.110  0.00  0.00    +0.007 C 
ATOM     17  C   UNL     1      -2.520   1.294   1.249  0.00  0.00    +0.023 C 
ATOM     18  C   UNL     1      -0.444  -0.579   2.553  0.00  0.00    +0.011 C 
ATOM     20  C   UNL     1      -2.443  -1.574  -1.402  0.00  0.00    +0.010 C 
ENDROOT
BRANCH  15   5
ATOM      4  O   UNL     1      -5.010   2.111  -0.972  0.00  0.00    -0.269 OA
ATOM      5  N   UNL     1      -4.304   0.167   0.075  0.00  0.00    -0.307 N 
ATOM     23  C   UNL     1      -5.255   1.033  -0.435  0.00  0.00    +0.263 C 
ATOM     36  H   UNL     1      -4.608  -0.677   0.554  0.00  0.00    +0.149 HD
BRANCH  23  24
ATOM      7  N   UNL     1      -6.857  -0.582   0.339  0.00  0.00    -0.250 NA
ATOM     24  C   UNL     1      -6.669   0.604  -0.282  0.00  0.00    +0.125 A 
ATOM     26  C   UNL     1      -7.697   1.401  -0.760  0.00  0.00    +0.033 A 
ATOM     28  C   UNL     1      -9.001   0.952  -0.589  0.00  0.00    +0.004 A 
ATOM     29  C   UNL     1      -8.139  -0.986   0.487  0.00  0.00    +0.111 A 
ATOM     32  C   UNL     1      -9.235  -0.263   0.045  0.00  0.00    +0.020 A 
ENDBRANCH  23  24
ENDBRANCH  15   5
BRANCH  11   2
ATOM      2  O   UNL     1       0.265  -2.245  -1.553  0.00  0.00    -0.391 OA
ATOM     37  H   UNL     1       0.451  -1.545  -2.201  0.00  0.00    +0.210 HD
ENDBRANCH  11   2
BRANCH  14  19
ATOM     19  C   UNL     1       2.874  -2.514  -0.229  0.00  0.00    +0.077 C 
ATOM     21  C   UNL     1       2.565  -3.484   0.906  0.00  0.00    +0.017 C 
BRANCH  19  22
ATOM      3  O   UNL     1       5.121  -2.437   0.670  0.00  0.00    -0.276 OA
ATOM      6  N   UNL     1       4.642  -1.190  -1.226  0.00  0.00    -0.311 N 
ATOM     22  C   UNL     1       4.330  -2.061  -0.192  0.00  0.00    +0.216 C 
ATOM     38  H   UNL     1       3.946  -0.968  -1.930  0.00  0.00    +0.149 HD
BRANCH   6  25
ATOM     25  C   UNL     1       5.960  -0.624  -1.399  0.00  0.00    +0.141 C 
BRANCH  25  27
ATOM      1 CL   UNL     1       4.616   1.928  -2.501  0.00  0.00    -0.083 Cl
ATOM     27  C   UNL     1       6.129   0.652  -0.626  0.00  0.00    -0.012 A 
ATOM     30  C   UNL     1       5.555   1.849  -1.054  0.00  0.00    +0.046 A 
ATOM     31  C   UNL     1       6.883   0.621   0.547  0.00  0.00    +0.006 A 
ATOM     33  C   UNL     1       5.735   3.015  -0.309  0.00  0.00    +0.020 A 
ATOM     34  C   UNL     1       7.062   1.786   1.292  0.00  0.00    +0.000 A 
ATOM     35  C   UNL     1       6.488   2.983   0.864  0.00  0.00    +0.001 A 
ENDBRANCH  25  27
ENDBRANCH   6  25
ENDBRANCH  19  22
ENDBRANCH  14  19
TORSDOF 7
