MODEL 1
REMARK VINA RESULT:      -7.5      0.000      0.000
REMARK  Name = 38031254
REMARK  12 active torsions:
REMARK  status: ('A' for Active; 'I' for Inactive)
REMARK    1  A    between atoms: O_4  and  C_34
REMARK    2  A    between atoms: O_4  and  C_35
REMARK    3  A    between atoms: N_5  and  C_15
REMARK    4  A    between atoms: C_8  and  C_12
REMARK    5  A    between atoms: C_9  and  C_15
REMARK    6  A    between atoms: C_11  and  C_16
REMARK    7  A    between atoms: C_12  and  C_17
REMARK    8  A    between atoms: C_12  and  C_18
REMARK    9  A    between atoms: C_13  and  C_19
REMARK   10  A    between atoms: C_16  and  C_20
REMARK   11  A    between atoms: C_21  and  C_23
REMARK   12  A    between atoms: C_22  and  C_24
REMARK                            x       y       z     vdW  Elec       q    Type
REMARK                         _______ _______ _______ _____ _____    ______ ____
ROOT
ATOM      8  C   UNL     1      13.100  10.296  20.559  0.00  0.00    +0.000 C 
ATOM      9  C   UNL     1      13.081   9.757  22.012  0.00  0.00    +0.032 C 
ATOM     10  C   UNL     1      11.875   9.787  19.783  0.00  0.00    +0.012 C 
ATOM     11  C   UNL     1      11.816   8.249  19.731  0.00  0.00    +0.024 C 
ATOM     13  C   UNL     1      12.059   7.631  21.093  0.00  0.00    -0.073 C 
ATOM     14  C   UNL     1      12.612   8.323  22.104  0.00  0.00    -0.022 C 
ATOM     19  C   UNL     1      11.607   6.209  21.281  0.00  0.00    +0.039 C 
ENDROOT
BRANCH   8  12
ATOM     12  C   UNL     1      13.138  11.827  20.522  0.00  0.00    -0.013 C 
ATOM     17  C   UNL     1      11.885  12.406  21.170  0.00  0.00    +0.007 C 
ATOM     18  C   UNL     1      13.282  12.321  19.085  0.00  0.00    +0.007 C 
ENDBRANCH   8  12
BRANCH   9  15
ATOM     15  C   UNL     1      14.461   9.886  22.667  0.00  0.00    +0.112 C 
BRANCH  15   5
ATOM      3  O   UNL     1      16.706  10.230  20.910  0.00  0.00    -0.270 OA
ATOM      5  N   UNL     1      15.343   8.863  22.199  0.00  0.00    -0.311 N 
ATOM     21  C   UNL     1      16.415   9.118  21.344  0.00  0.00    +0.244 C 
ATOM     36  H   UNL     1      15.157   7.917  22.510  0.00  0.00    +0.149 HD
BRANCH  21  23
ATOM      1  F   UNL     1      19.464   4.674  19.770  0.00  0.00    -0.205 F 
ATOM     23  C   UNL     1      17.222   7.942  20.928  0.00  0.00    +0.037 A 
ATOM     25  C   UNL     1      18.444   7.682  21.544  0.00  0.00    +0.016 A 
ATOM     26  C   UNL     1      16.755   7.098  19.918  0.00  0.00    +0.016 A 
ATOM     29  C   UNL     1      19.202   6.577  21.154  0.00  0.00    +0.039 A 
ATOM     30  C   UNL     1      17.512   5.994  19.527  0.00  0.00    +0.039 A 
ATOM     31  C   UNL     1      18.736   5.734  20.145  0.00  0.00    +0.123 A 
ENDBRANCH  21  23
ENDBRANCH  15   5
ENDBRANCH   9  15
BRANCH  11  16
ATOM     16  C   UNL     1      12.797   7.693  18.694  0.00  0.00    +0.105 C 
BRANCH  16  20
ATOM      2  O   UNL     1      13.664   9.425  17.209  0.00  0.00    -0.420 OA
ATOM      6  N   UNL     1      11.875   8.345  16.409  0.00  0.00    -0.112 NA
ATOM      7  N   UNL     1      12.257   9.288  15.474  0.00  0.00    -0.107 NA
ATOM     20  C   UNL     1      12.724   8.460  17.404  0.00  0.00    +0.218 A 
ATOM     22  C   UNL     1      13.304   9.895  15.983  0.00  0.00    +0.248 A 
BRANCH  22  24
ATOM     24  C   UNL     1      14.113  10.956  15.456  0.00  0.00    +0.039 A 
ATOM     27  C   UNL     1      15.306  11.303  16.088  0.00  0.00    +0.017 A 
ATOM     28  C   UNL     1      13.704  11.640  14.311  0.00  0.00    +0.017 A 
ATOM     32  C   UNL     1      16.092  12.336  15.574  0.00  0.00    +0.046 A 
ATOM     33  C   UNL     1      14.489  12.673  13.798  0.00  0.00    +0.046 A 
ATOM     34  C   UNL     1      15.684  13.020  14.430  0.00  0.00    +0.120 A 
BRANCH  34   4
ATOM      4  O   UNL     1      16.450  14.028  13.929  0.00  0.00    -0.495 OA
ATOM     35  C   UNL     1      17.172  13.760  12.729  0.00  0.00    +0.277 C 
ENDBRANCH  34   4
ENDBRANCH  22  24
ENDBRANCH  16  20
ENDBRANCH  11  16
TORSDOF 8
ENDMDL
MODEL 2
REMARK VINA RESULT:      -7.2     26.898     29.466
REMARK  Name = 38031254
REMARK  12 active torsions:
REMARK  status: ('A' for Active; 'I' for Inactive)
REMARK    1  A    between atoms: O_4  and  C_34
REMARK    2  A    between atoms: O_4  and  C_35
REMARK    3  A    between atoms: N_5  and  C_15
REMARK    4  A    between atoms: C_8  and  C_12
REMARK    5  A    between atoms: C_9  and  C_15
REMARK    6  A    between atoms: C_11  and  C_16
REMARK    7  A    between atoms: C_12  and  C_17
REMARK    8  A    between atoms: C_12  and  C_18
REMARK    9  A    between atoms: C_13  and  C_19
REMARK   10  A    between atoms: C_16  and  C_20
REMARK   11  A    between atoms: C_21  and  C_23
REMARK   12  A    between atoms: C_22  and  C_24
REMARK                            x       y       z     vdW  Elec       q    Type
REMARK                         _______ _______ _______ _____ _____    ______ ____
ROOT
ATOM      8  C   UNL     1      -3.290 -12.076  12.595  0.00  0.00    +0.000 C 
ATOM      9  C   UNL     1      -2.139 -11.050  12.439  0.00  0.00    +0.032 C 
ATOM     10  C   UNL     1      -3.876 -12.436  11.221  0.00  0.00    +0.012 C 
ATOM     11  C   UNL     1      -4.419 -11.202  10.476  0.00  0.00    +0.024 C 
ATOM     13  C   UNL     1      -3.438 -10.047  10.512  0.00  0.00    -0.073 C 
ATOM     14  C   UNL     1      -2.417 -10.002  11.387  0.00  0.00    -0.022 C 
ATOM     19  C   UNL     1      -3.630  -8.964   9.487  0.00  0.00    +0.039 C 
ENDROOT
BRANCH   8  12
ATOM     12  C   UNL     1      -2.826 -13.347  13.311  0.00  0.00    -0.013 C 
ATOM     17  C   UNL     1      -2.516 -14.445  12.299  0.00  0.00    +0.007 C 
ATOM     18  C   UNL     1      -3.884 -13.813  14.307  0.00  0.00    +0.007 C 
ENDBRANCH   8  12
BRANCH   9  15
ATOM     15  C   UNL     1      -1.826 -10.363  13.773  0.00  0.00    +0.112 C 
BRANCH  15   5
ATOM      3  O   UNL     1      -1.996 -10.919  16.586  0.00  0.00    -0.270 OA
ATOM      5  N   UNL     1      -2.997 -10.284  14.590  0.00  0.00    -0.311 N 
ATOM     21  C   UNL     1      -2.991 -10.573  15.955  0.00  0.00    +0.244 C 
ATOM     36  H   UNL     1      -3.859 -10.012  14.133  0.00  0.00    +0.149 HD
BRANCH  21  23
ATOM      1  F   UNL     1      -7.922 -10.179  18.610  0.00  0.00    -0.205 F 
ATOM     23  C   UNL     1      -4.295 -10.469  16.657  0.00  0.00    +0.037 A 
ATOM     25  C   UNL     1      -4.435 -10.976  17.948  0.00  0.00    +0.016 A 
ATOM     26  C   UNL     1      -5.382  -9.863  16.024  0.00  0.00    +0.016 A 
ATOM     29  C   UNL     1      -5.660 -10.877  18.609  0.00  0.00    +0.039 A 
ATOM     30  C   UNL     1      -6.607  -9.765  16.684  0.00  0.00    +0.039 A 
ATOM     31  C   UNL     1      -6.746 -10.272  17.976  0.00  0.00    +0.123 A 
ENDBRANCH  21  23
ENDBRANCH  15   5
ENDBRANCH   9  15
BRANCH  11  16
ATOM     16  C   UNL     1      -5.784 -10.779  11.029  0.00  0.00    +0.105 C 
BRANCH  16  20
ATOM      2  O   UNL     1      -7.385  -9.130  10.209  0.00  0.00    -0.420 OA
ATOM      6  N   UNL     1      -6.898 -10.744   8.738  0.00  0.00    -0.112 NA
ATOM      7  N   UNL     1      -7.807  -9.888   8.146  0.00  0.00    -0.107 NA
ATOM     20  C   UNL     1      -6.680 -10.263   9.940  0.00  0.00    +0.218 A 
ATOM     22  C   UNL     1      -8.063  -8.962   9.041  0.00  0.00    +0.248 A 
BRANCH  22  24
ATOM     24  C   UNL     1      -8.931  -7.821   8.978  0.00  0.00    +0.039 A 
ATOM     27  C   UNL     1     -10.220  -7.895   9.506  0.00  0.00    +0.017 A 
ATOM     28  C   UNL     1      -8.485  -6.638   8.388  0.00  0.00    +0.017 A 
ATOM     32  C   UNL     1     -11.064  -6.785   9.444  0.00  0.00    +0.046 A 
ATOM     33  C   UNL     1      -9.329  -5.529   8.326  0.00  0.00    +0.046 A 
ATOM     34  C   UNL     1     -10.618  -5.603   8.855  0.00  0.00    +0.120 A 
BRANCH  34   4
ATOM      4  O   UNL     1     -11.441  -4.520   8.794  0.00  0.00    -0.495 OA
ATOM     35  C   UNL     1     -11.468  -3.660   9.931  0.00  0.00    +0.277 C 
ENDBRANCH  34   4
ENDBRANCH  22  24
ENDBRANCH  16  20
ENDBRANCH  11  16
TORSDOF 8
ENDMDL
MODEL 3
REMARK VINA RESULT:      -6.9     26.920     30.410
REMARK  Name = 38031254
REMARK  12 active torsions:
REMARK  status: ('A' for Active; 'I' for Inactive)
REMARK    1  A    between atoms: O_4  and  C_34
REMARK    2  A    between atoms: O_4  and  C_35
REMARK    3  A    between atoms: N_5  and  C_15
REMARK    4  A    between atoms: C_8  and  C_12
REMARK    5  A    between atoms: C_9  and  C_15
REMARK    6  A    between atoms: C_11  and  C_16
REMARK    7  A    between atoms: C_12  and  C_17
REMARK    8  A    between atoms: C_12  and  C_18
REMARK    9  A    between atoms: C_13  and  C_19
REMARK   10  A    between atoms: C_16  and  C_20
REMARK   11  A    between atoms: C_21  and  C_23
REMARK   12  A    between atoms: C_22  and  C_24
REMARK                            x       y       z     vdW  Elec       q    Type
REMARK                         _______ _______ _______ _____ _____    ______ ____
ROOT
ATOM      8  C   UNL     1      -3.154 -12.233  13.124  0.00  0.00    +0.000 C 
ATOM      9  C   UNL     1      -2.011 -11.190  13.028  0.00  0.00    +0.032 C 
ATOM     10  C   UNL     1      -3.606 -12.662  11.719  0.00  0.00    +0.012 C 
ATOM     11  C   UNL     1      -4.101 -11.471  10.877  0.00  0.00    +0.024 C 
ATOM     13  C   UNL     1      -3.149 -10.295  10.951  0.00  0.00    -0.073 C 
ATOM     14  C   UNL     1      -2.212 -10.193  11.911  0.00  0.00    -0.022 C 
ATOM     19  C   UNL     1      -3.267  -9.259   9.867  0.00  0.00    +0.039 C 
ENDROOT
BRANCH   8  12
ATOM     12  C   UNL     1      -2.733 -13.464  13.932  0.00  0.00    -0.013 C 
ATOM     17  C   UNL     1      -1.360 -13.952  13.483  0.00  0.00    +0.007 C 
ATOM     18  C   UNL     1      -3.774 -14.572  13.793  0.00  0.00    +0.007 C 
ENDBRANCH   8  12
BRANCH   9  15
ATOM     15  C   UNL     1      -1.833 -10.443  14.354  0.00  0.00    +0.112 C 
BRANCH  15   5
ATOM      3  O   UNL     1      -2.510 -11.167  17.049  0.00  0.00    -0.270 OA
ATOM      5  N   UNL     1      -3.093 -10.247  15.000  0.00  0.00    -0.311 N 
ATOM     21  C   UNL     1      -3.338 -10.630  16.318  0.00  0.00    +0.244 C 
ATOM     36  H   UNL     1      -3.829  -9.815  14.452  0.00  0.00    +0.149 HD
BRANCH  21  23
ATOM      1  F   UNL     1      -8.518  -9.688  18.270  0.00  0.00    -0.205 F 
ATOM     23  C   UNL     1      -4.709 -10.381  16.835  0.00  0.00    +0.037 A 
ATOM     25  C   UNL     1      -5.023 -10.692  18.156  0.00  0.00    +0.016 A 
ATOM     26  C   UNL     1      -5.681  -9.835  15.995  0.00  0.00    +0.016 A 
ATOM     29  C   UNL     1      -6.309 -10.457  18.642  0.00  0.00    +0.039 A 
ATOM     30  C   UNL     1      -6.968  -9.601  16.480  0.00  0.00    +0.039 A 
ATOM     31  C   UNL     1      -7.282  -9.912  17.804  0.00  0.00    +0.123 A 
ENDBRANCH  21  23
ENDBRANCH  15   5
ENDBRANCH   9  15
BRANCH  11  16
ATOM     16  C   UNL     1      -5.518 -11.056  11.287  0.00  0.00    +0.105 C 
BRANCH  16  20
ATOM      2  O   UNL     1      -6.423 -11.947  13.372  0.00  0.00    -0.420 OA
ATOM      6  N   UNL     1      -6.664 -13.309  11.613  0.00  0.00    -0.112 NA
ATOM      7  N   UNL     1      -7.216 -13.934  12.715  0.00  0.00    -0.107 NA
ATOM     20  C   UNL     1      -6.214 -12.153  12.042  0.00  0.00    +0.218 A 
ATOM     22  C   UNL     1      -7.052 -13.103  13.718  0.00  0.00    +0.248 A 
BRANCH  22  24
ATOM     24  C   UNL     1      -7.428 -13.223  15.097  0.00  0.00    +0.039 A 
ATOM     27  C   UNL     1      -6.505 -13.689  16.034  0.00  0.00    +0.017 A 
ATOM     28  C   UNL     1      -8.717 -12.874  15.501  0.00  0.00    +0.017 A 
ATOM     32  C   UNL     1      -6.872 -13.805  17.375  0.00  0.00    +0.046 A 
ATOM     33  C   UNL     1      -9.083 -12.992  16.842  0.00  0.00    +0.046 A 
ATOM     34  C   UNL     1      -8.160 -13.457  17.779  0.00  0.00    +0.120 A 
BRANCH  34   4
ATOM      4  O   UNL     1      -8.518 -13.571  19.088  0.00  0.00    -0.495 OA
ATOM     35  C   UNL     1      -9.890 -13.347  19.407  0.00  0.00    +0.277 C 
ENDBRANCH  34   4
ENDBRANCH  22  24
ENDBRANCH  16  20
ENDBRANCH  11  16
TORSDOF 8
ENDMDL
MODEL 4
REMARK VINA RESULT:      -6.8      1.861      2.906
REMARK  Name = 38031254
REMARK  12 active torsions:
REMARK  status: ('A' for Active; 'I' for Inactive)
REMARK    1  A    between atoms: O_4  and  C_34
REMARK    2  A    between atoms: O_4  and  C_35
REMARK    3  A    between atoms: N_5  and  C_15
REMARK    4  A    between atoms: C_8  and  C_12
REMARK    5  A    between atoms: C_9  and  C_15
REMARK    6  A    between atoms: C_11  and  C_16
REMARK    7  A    between atoms: C_12  and  C_17
REMARK    8  A    between atoms: C_12  and  C_18
REMARK    9  A    between atoms: C_13  and  C_19
REMARK   10  A    between atoms: C_16  and  C_20
REMARK   11  A    between atoms: C_21  and  C_23
REMARK   12  A    between atoms: C_22  and  C_24
REMARK                            x       y       z     vdW  Elec       q    Type
REMARK                         _______ _______ _______ _____ _____    ______ ____
ROOT
ATOM      8  C   UNL     1      13.462   9.718  20.521  0.00  0.00    +0.000 C 
ATOM      9  C   UNL     1      12.243   8.793  20.765  0.00  0.00    +0.032 C 
ATOM     10  C   UNL     1      13.140  10.750  19.429  0.00  0.00    +0.012 C 
ATOM     11  C   UNL     1      12.757  10.087  18.093  0.00  0.00    +0.024 C 
ATOM     13  C   UNL     1      11.749   8.972  18.288  0.00  0.00    -0.073 C 
ATOM     14  C   UNL     1      11.522   8.415  19.491  0.00  0.00    -0.022 C 
ATOM     19  C   UNL     1      10.972   8.542  17.075  0.00  0.00    +0.039 C 
ENDROOT
BRANCH   8  12
ATOM     12  C   UNL     1      13.895  10.436  21.803  0.00  0.00    -0.013 C 
ATOM     17  C   UNL     1      12.986  11.629  22.078  0.00  0.00    +0.007 C 
ATOM     18  C   UNL     1      15.352  10.879  21.697  0.00  0.00    +0.007 C 
ENDBRANCH   8  12
BRANCH   9  15
ATOM     15  C   UNL     1      12.655   7.521  21.514  0.00  0.00    +0.112 C 
BRANCH  15   5
ATOM      3  O   UNL     1      13.979   6.409  19.221  0.00  0.00    -0.270 OA
ATOM      5  N   UNL     1      14.057   7.279  21.371  0.00  0.00    -0.311 N 
ATOM     21  C   UNL     1      14.619   6.734  20.218  0.00  0.00    +0.244 C 
ATOM     36  H   UNL     1      14.648   7.517  22.160  0.00  0.00    +0.149 HD
BRANCH  21  23
ATOM      1  F   UNL     1      20.175   5.925  20.288  0.00  0.00    -0.205 F 
ATOM     23  C   UNL     1      16.089   6.520  20.236  0.00  0.00    +0.037 A 
ATOM     25  C   UNL     1      16.844   6.956  21.324  0.00  0.00    +0.016 A 
ATOM     26  C   UNL     1      16.715   5.883  19.164  0.00  0.00    +0.016 A 
ATOM     29  C   UNL     1      18.224   6.755  21.343  0.00  0.00    +0.039 A 
ATOM     30  C   UNL     1      18.095   5.682  19.181  0.00  0.00    +0.039 A 
ATOM     31  C   UNL     1      18.849   6.118  20.270  0.00  0.00    +0.123 A 
ENDBRANCH  21  23
ENDBRANCH  15   5
ENDBRANCH   9  15
BRANCH  11  16
ATOM     16  C   UNL     1      13.999   9.580  17.352  0.00  0.00    +0.105 C 
BRANCH  16  20
ATOM      2  O   UNL     1      15.412  10.661  15.681  0.00  0.00    -0.420 OA
ATOM      6  N   UNL     1      13.253  10.529  15.108  0.00  0.00    -0.112 NA
ATOM      7  N   UNL     1      13.929  11.157  14.080  0.00  0.00    -0.107 NA
ATOM     20  C   UNL     1      14.157  10.257  16.021  0.00  0.00    +0.218 A 
ATOM     22  C   UNL     1      15.185  11.213  14.458  0.00  0.00    +0.248 A 
BRANCH  22  24
ATOM     24  C   UNL     1      16.335  11.755  13.792  0.00  0.00    +0.039 A 
ATOM     27  C   UNL     1      16.287  12.022  12.424  0.00  0.00    +0.017 A 
ATOM     28  C   UNL     1      17.500  12.015  14.514  0.00  0.00    +0.017 A 
ATOM     32  C   UNL     1      17.405  12.549  11.777  0.00  0.00    +0.046 A 
ATOM     33  C   UNL     1      18.618  12.541  13.866  0.00  0.00    +0.046 A 
ATOM     34  C   UNL     1      18.570  12.809  12.498  0.00  0.00    +0.120 A 
BRANCH  34   4
ATOM      4  O   UNL     1      19.661  13.323  11.867  0.00  0.00    -0.495 OA
ATOM     35  C   UNL     1      20.918  13.182  12.526  0.00  0.00    +0.277 C 
ENDBRANCH  34   4
ENDBRANCH  22  24
ENDBRANCH  16  20
ENDBRANCH  11  16
TORSDOF 8
ENDMDL
MODEL 5
REMARK VINA RESULT:      -6.8     27.797     30.344
REMARK  Name = 38031254
REMARK  12 active torsions:
REMARK  status: ('A' for Active; 'I' for Inactive)
REMARK    1  A    between atoms: O_4  and  C_34
REMARK    2  A    between atoms: O_4  and  C_35
REMARK    3  A    between atoms: N_5  and  C_15
REMARK    4  A    between atoms: C_8  and  C_12
REMARK    5  A    between atoms: C_9  and  C_15
REMARK    6  A    between atoms: C_11  and  C_16
REMARK    7  A    between atoms: C_12  and  C_17
REMARK    8  A    between atoms: C_12  and  C_18
REMARK    9  A    between atoms: C_13  and  C_19
REMARK   10  A    between atoms: C_16  and  C_20
REMARK   11  A    between atoms: C_21  and  C_23
REMARK   12  A    between atoms: C_22  and  C_24
REMARK                            x       y       z     vdW  Elec       q    Type
REMARK                         _______ _______ _______ _____ _____    ______ ____
ROOT
ATOM      8  C   UNL     1      -6.410 -10.897  15.872  0.00  0.00    +0.000 C 
ATOM      9  C   UNL     1      -6.958 -10.823  17.320  0.00  0.00    +0.032 C 
ATOM     10  C   UNL     1      -5.439 -12.079  15.726  0.00  0.00    +0.012 C 
ATOM     11  C   UNL     1      -4.246 -11.976  16.694  0.00  0.00    +0.024 C 
ATOM     13  C   UNL     1      -4.691 -11.636  18.102  0.00  0.00    -0.073 C 
ATOM     14  C   UNL     1      -5.912 -11.136  18.365  0.00  0.00    -0.022 C 
ATOM     19  C   UNL     1      -3.718 -11.930  19.210  0.00  0.00    +0.039 C 
ENDROOT
BRANCH   8  12
ATOM     12  C   UNL     1      -7.538 -11.022  14.844  0.00  0.00    -0.013 C 
ATOM     17  C   UNL     1      -8.491 -12.147  15.233  0.00  0.00    +0.007 C 
ATOM     18  C   UNL     1      -6.963 -11.258  13.450  0.00  0.00    +0.007 C 
ENDBRANCH   8  12
BRANCH   9  15
ATOM     15  C   UNL     1      -7.574  -9.450  17.609  0.00  0.00    +0.112 C 
BRANCH  15   5
ATOM      3  O   UNL     1     -10.164  -9.189  16.395  0.00  0.00    -0.270 OA
ATOM      5  N   UNL     1      -8.840  -9.589  18.259  0.00  0.00    -0.311 N 
ATOM     21  C   UNL     1     -10.056  -9.445  17.592  0.00  0.00    +0.244 C 
ATOM     36  H   UNL     1      -8.828  -9.793  19.252  0.00  0.00    +0.149 HD
BRANCH  21  23
ATOM      1  F   UNL     1     -14.696 -10.004  20.703  0.00  0.00    -0.205 F 
ATOM     23  C   UNL     1     -11.283  -9.594  18.415  0.00  0.00    +0.037 A 
ATOM     25  C   UNL     1     -11.181  -9.904  19.770  0.00  0.00    +0.016 A 
ATOM     26  C   UNL     1     -12.539  -9.422  17.831  0.00  0.00    +0.016 A 
ATOM     29  C   UNL     1     -12.333 -10.042  20.544  0.00  0.00    +0.039 A 
ATOM     30  C   UNL     1     -13.692  -9.561  18.604  0.00  0.00    +0.039 A 
ATOM     31  C   UNL     1     -13.589  -9.871  19.960  0.00  0.00    +0.123 A 
ENDBRANCH  21  23
ENDBRANCH  15   5
ENDBRANCH   9  15
BRANCH  11  16
ATOM     16  C   UNL     1      -3.210 -10.967  16.189  0.00  0.00    +0.105 C 
BRANCH  16  20
ATOM      2  O   UNL     1      -3.504 -10.741  13.776  0.00  0.00    -0.420 OA
ATOM      6  N   UNL     1      -1.770 -12.023  14.372  0.00  0.00    -0.112 NA
ATOM      7  N   UNL     1      -1.817 -11.984  12.991  0.00  0.00    -0.107 NA
ATOM     20  C   UNL     1      -2.773 -11.285  14.787  0.00  0.00    +0.218 A 
ATOM     22  C   UNL     1      -2.845 -11.225  12.689  0.00  0.00    +0.248 A 
BRANCH  22  24
ATOM     24  C   UNL     1      -3.369 -10.834  11.412  0.00  0.00    +0.039 A 
ATOM     27  C   UNL     1      -4.142 -11.728  10.672  0.00  0.00    +0.017 A 
ATOM     28  C   UNL     1      -3.106  -9.559  10.912  0.00  0.00    +0.017 A 
ATOM     32  C   UNL     1      -4.652 -11.347   9.430  0.00  0.00    +0.046 A 
ATOM     33  C   UNL     1      -3.615  -9.178   9.670  0.00  0.00    +0.046 A 
ATOM     34  C   UNL     1      -4.389 -10.072   8.929  0.00  0.00    +0.120 A 
BRANCH  34   4
ATOM      4  O   UNL     1      -4.885  -9.700   7.718  0.00  0.00    -0.495 OA
ATOM     35  C   UNL     1      -6.057 -10.373   7.262  0.00  0.00    +0.277 C 
ENDBRANCH  34   4
ENDBRANCH  22  24
ENDBRANCH  16  20
ENDBRANCH  11  16
TORSDOF 8
ENDMDL
MODEL 6
REMARK VINA RESULT:      -6.6     26.928     29.699
REMARK  Name = 38031254
REMARK  12 active torsions:
REMARK  status: ('A' for Active; 'I' for Inactive)
REMARK    1  A    between atoms: O_4  and  C_34
REMARK    2  A    between atoms: O_4  and  C_35
REMARK    3  A    between atoms: N_5  and  C_15
REMARK    4  A    between atoms: C_8  and  C_12
REMARK    5  A    between atoms: C_9  and  C_15
REMARK    6  A    between atoms: C_11  and  C_16
REMARK    7  A    between atoms: C_12  and  C_17
REMARK    8  A    between atoms: C_12  and  C_18
REMARK    9  A    between atoms: C_13  and  C_19
REMARK   10  A    between atoms: C_16  and  C_20
REMARK   11  A    between atoms: C_21  and  C_23
REMARK   12  A    between atoms: C_22  and  C_24
REMARK                            x       y       z     vdW  Elec       q    Type
REMARK                         _______ _______ _______ _____ _____    ______ ____
ROOT
ATOM      8  C   UNL     1      -3.458 -11.964  12.673  0.00  0.00    +0.000 C 
ATOM      9  C   UNL     1      -2.204 -11.061  12.557  0.00  0.00    +0.032 C 
ATOM     10  C   UNL     1      -4.024 -12.275  11.279  0.00  0.00    +0.012 C 
ATOM     11  C   UNL     1      -4.412 -10.999  10.508  0.00  0.00    +0.024 C 
ATOM     13  C   UNL     1      -3.322  -9.948  10.577  0.00  0.00    -0.073 C 
ATOM     14  C   UNL     1      -2.335  -9.999  11.489  0.00  0.00    -0.022 C 
ATOM     19  C   UNL     1      -3.365  -8.860   9.540  0.00  0.00    +0.039 C 
ENDROOT
BRANCH   8  12
ATOM     12  C   UNL     1      -3.151 -13.269  13.412  0.00  0.00    -0.013 C 
ATOM     17  C   UNL     1      -2.160 -14.111  12.616  0.00  0.00    +0.007 C 
ATOM     18  C   UNL     1      -4.438 -14.049  13.671  0.00  0.00    +0.007 C 
ENDBRANCH   8  12
BRANCH   9  15
ATOM     15  C   UNL     1      -1.874 -10.397  13.898  0.00  0.00    +0.112 C 
BRANCH  15   5
ATOM      3  O   UNL     1      -2.022 -10.965  16.709  0.00  0.00    -0.270 OA
ATOM      5  N   UNL     1      -3.038 -10.318  14.725  0.00  0.00    -0.311 N 
ATOM     21  C   UNL     1      -3.021 -10.612  16.088  0.00  0.00    +0.244 C 
ATOM     36  H   UNL     1      -3.903 -10.040  14.276  0.00  0.00    +0.149 HD
BRANCH  21  23
ATOM      1  F   UNL     1      -7.929 -10.215  18.786  0.00  0.00    -0.205 F 
ATOM     23  C   UNL     1      -4.320 -10.508  16.802  0.00  0.00    +0.037 A 
ATOM     25  C   UNL     1      -4.454 -11.032  18.086  0.00  0.00    +0.016 A 
ATOM     26  C   UNL     1      -5.405  -9.883  16.186  0.00  0.00    +0.016 A 
ATOM     29  C   UNL     1      -5.673 -10.933  18.757  0.00  0.00    +0.039 A 
ATOM     30  C   UNL     1      -6.625  -9.784  16.856  0.00  0.00    +0.039 A 
ATOM     31  C   UNL     1      -6.759 -10.309  18.142  0.00  0.00    +0.123 A 
ENDBRANCH  21  23
ENDBRANCH  15   5
ENDBRANCH   9  15
BRANCH  11  16
ATOM     16  C   UNL     1      -5.747 -10.436  11.007  0.00  0.00    +0.105 C 
BRANCH  16  20
ATOM      2  O   UNL     1      -6.368 -10.151   8.663  0.00  0.00    -0.420 OA
ATOM      6  N   UNL     1      -7.152  -8.554  10.020  0.00  0.00    -0.112 NA
ATOM      7  N   UNL     1      -7.576  -8.269   8.735  0.00  0.00    -0.107 NA
ATOM     20  C   UNL     1      -6.451  -9.660   9.930  0.00  0.00    +0.218 A 
ATOM     22  C   UNL     1      -7.095  -9.227   7.978  0.00  0.00    +0.248 A 
BRANCH  22  24
ATOM     24  C   UNL     1      -7.215  -9.446   6.565  0.00  0.00    +0.039 A 
ATOM     27  C   UNL     1      -6.681 -10.598   5.990  0.00  0.00    +0.017 A 
ATOM     28  C   UNL     1      -7.868  -8.505   5.768  0.00  0.00    +0.017 A 
ATOM     32  C   UNL     1      -6.798 -10.811   4.616  0.00  0.00    +0.046 A 
ATOM     33  C   UNL     1      -7.985  -8.718   4.394  0.00  0.00    +0.046 A 
ATOM     34  C   UNL     1      -7.450  -9.871   3.818  0.00  0.00    +0.120 A 
BRANCH  34   4
ATOM      4  O   UNL     1      -7.565 -10.078   2.477  0.00  0.00    -0.495 OA
ATOM     35  C   UNL     1      -8.598  -9.368   1.797  0.00  0.00    +0.277 C 
ENDBRANCH  34   4
ENDBRANCH  22  24
ENDBRANCH  16  20
ENDBRANCH  11  16
TORSDOF 8
ENDMDL
MODEL 7
REMARK VINA RESULT:      -6.5     27.108     30.806
REMARK  Name = 38031254
REMARK  12 active torsions:
REMARK  status: ('A' for Active; 'I' for Inactive)
REMARK    1  A    between atoms: O_4  and  C_34
REMARK    2  A    between atoms: O_4  and  C_35
REMARK    3  A    between atoms: N_5  and  C_15
REMARK    4  A    between atoms: C_8  and  C_12
REMARK    5  A    between atoms: C_9  and  C_15
REMARK    6  A    between atoms: C_11  and  C_16
REMARK    7  A    between atoms: C_12  and  C_17
REMARK    8  A    between atoms: C_12  and  C_18
REMARK    9  A    between atoms: C_13  and  C_19
REMARK   10  A    between atoms: C_16  and  C_20
REMARK   11  A    between atoms: C_21  and  C_23
REMARK   12  A    between atoms: C_22  and  C_24
REMARK                            x       y       z     vdW  Elec       q    Type
REMARK                         _______ _______ _______ _____ _____    ______ ____
ROOT
ATOM      8  C   UNL     1      -5.621 -11.117  17.360  0.00  0.00    +0.000 C 
ATOM      9  C   UNL     1      -4.575 -12.013  16.649  0.00  0.00    +0.032 C 
ATOM     10  C   UNL     1      -6.985 -11.824  17.411  0.00  0.00    +0.012 C 
ATOM     11  C   UNL     1      -7.515 -12.173  16.008  0.00  0.00    +0.024 C 
ATOM     13  C   UNL     1      -6.448 -12.822  15.149  0.00  0.00    -0.073 C 
ATOM     14  C   UNL     1      -5.141 -12.752  15.458  0.00  0.00    -0.022 C 
ATOM     19  C   UNL     1      -6.922 -13.595  13.950  0.00  0.00    +0.039 C 
ENDROOT
BRANCH   8  12
ATOM     12  C   UNL     1      -5.178 -10.741  18.777  0.00  0.00    -0.013 C 
ATOM     17  C   UNL     1      -4.413 -11.893  19.418  0.00  0.00    +0.007 C 
ATOM     18  C   UNL     1      -6.385 -10.354  19.626  0.00  0.00    +0.007 C 
ENDBRANCH   8  12
BRANCH   9  15
ATOM     15  C   UNL     1      -3.355 -11.196  16.210  0.00  0.00    +0.112 C 
BRANCH  15   5
ATOM      3  O   UNL     1      -1.759 -11.770  13.892  0.00  0.00    -0.270 OA
ATOM      5  N   UNL     1      -3.542 -10.672  14.893  0.00  0.00    -0.311 N 
ATOM     21  C   UNL     1      -2.717 -11.005  13.819  0.00  0.00    +0.244 C 
ATOM     36  H   UNL     1      -4.311 -10.025  14.760  0.00  0.00    +0.149 HD
BRANCH  21  23
ATOM      1  F   UNL     1      -3.892  -8.546   8.910  0.00  0.00    -0.205 F 
ATOM     23  C   UNL     1      -3.028 -10.355  12.520  0.00  0.00    +0.037 A 
ATOM     25  C   UNL     1      -4.354 -10.186  12.124  0.00  0.00    +0.016 A 
ATOM     26  C   UNL     1      -1.992  -9.912  11.697  0.00  0.00    +0.016 A 
ATOM     29  C   UNL     1      -4.647  -9.575  10.905  0.00  0.00    +0.039 A 
ATOM     30  C   UNL     1      -2.284  -9.301  10.477  0.00  0.00    +0.039 A 
ATOM     31  C   UNL     1      -3.611  -9.133  10.081  0.00  0.00    +0.123 A 
ENDBRANCH  21  23
ENDBRANCH  15   5
ENDBRANCH   9  15
BRANCH  11  16
ATOM     16  C   UNL     1      -8.099 -10.937  15.315  0.00  0.00    +0.105 C 
BRANCH  16  20
ATOM      2  O   UNL     1      -9.907 -10.518  16.900  0.00  0.00    -0.420 OA
ATOM      6  N   UNL     1      -8.473  -8.815  16.675  0.00  0.00    -0.112 NA
ATOM      7  N   UNL     1      -9.435  -8.444  17.595  0.00  0.00    -0.107 NA
ATOM     20  C   UNL     1      -8.788 -10.032  16.297  0.00  0.00    +0.218 A 
ATOM     22  C   UNL     1     -10.251  -9.468  17.694  0.00  0.00    +0.248 A 
BRANCH  22  24
ATOM     24  C   UNL     1     -11.427  -9.647  18.497  0.00  0.00    +0.039 A 
ATOM     27  C   UNL     1     -12.690  -9.460  17.935  0.00  0.00    +0.017 A 
ATOM     28  C   UNL     1     -11.306 -10.009  19.838  0.00  0.00    +0.017 A 
ATOM     32  C   UNL     1     -13.833  -9.634  18.716  0.00  0.00    +0.046 A 
ATOM     33  C   UNL     1     -12.449 -10.182  20.619  0.00  0.00    +0.046 A 
ATOM     34  C   UNL     1     -13.713  -9.996  20.057  0.00  0.00    +0.120 A 
BRANCH  34   4
ATOM      4  O   UNL     1     -14.828 -10.165  20.819  0.00  0.00    -0.495 OA
ATOM     35  C   UNL     1     -15.613 -11.330  20.571  0.00  0.00    +0.277 C 
ENDBRANCH  34   4
ENDBRANCH  22  24
ENDBRANCH  16  20
ENDBRANCH  11  16
TORSDOF 8
ENDMDL
MODEL 8
REMARK VINA RESULT:      -6.5     12.750     15.606
REMARK  Name = 38031254
REMARK  12 active torsions:
REMARK  status: ('A' for Active; 'I' for Inactive)
REMARK    1  A    between atoms: O_4  and  C_34
REMARK    2  A    between atoms: O_4  and  C_35
REMARK    3  A    between atoms: N_5  and  C_15
REMARK    4  A    between atoms: C_8  and  C_12
REMARK    5  A    between atoms: C_9  and  C_15
REMARK    6  A    between atoms: C_11  and  C_16
REMARK    7  A    between atoms: C_12  and  C_17
REMARK    8  A    between atoms: C_12  and  C_18
REMARK    9  A    between atoms: C_13  and  C_19
REMARK   10  A    between atoms: C_16  and  C_20
REMARK   11  A    between atoms: C_21  and  C_23
REMARK   12  A    between atoms: C_22  and  C_24
REMARK                            x       y       z     vdW  Elec       q    Type
REMARK                         _______ _______ _______ _____ _____    ______ ____
ROOT
ATOM      8  C   UNL     1      10.624   7.234   6.259  0.00  0.00    +0.000 C 
ATOM      9  C   UNL     1       9.810   7.926   5.136  0.00  0.00    +0.032 C 
ATOM     10  C   UNL     1      11.526   8.254   6.971  0.00  0.00    +0.012 C 
ATOM     11  C   UNL     1      12.512   8.937   6.005  0.00  0.00    +0.024 C 
ATOM     13  C   UNL     1      11.822   9.410   4.741  0.00  0.00    -0.073 C 
ATOM     14  C   UNL     1      10.609   8.959   4.375  0.00  0.00    -0.022 C 
ATOM     19  C   UNL     1      12.540  10.453   3.929  0.00  0.00    +0.039 C 
ENDROOT
BRANCH   8  12
ATOM     12  C   UNL     1       9.713   6.546   7.279  0.00  0.00    -0.013 C 
ATOM     17  C   UNL     1       8.820   7.569   7.972  0.00  0.00    +0.007 C 
ATOM     18  C   UNL     1      10.545   5.773   8.299  0.00  0.00    +0.007 C 
ENDBRANCH   8  12
BRANCH   9  15
ATOM     15  C   UNL     1       9.239   6.898   4.153  0.00  0.00    +0.112 C 
BRANCH  15   5
ATOM      3  O   UNL     1      10.523   4.334   4.310  0.00  0.00    -0.270 OA
ATOM      5  N   UNL     1      10.262   6.401   3.287  0.00  0.00    -0.311 N 
ATOM     21  C   UNL     1      10.834   5.137   3.435  0.00  0.00    +0.244 C 
ATOM     36  H   UNL     1      10.575   7.015   2.545  0.00  0.00    +0.149 HD
BRANCH  21  23
ATOM      1  F   UNL     1      14.881   3.784  -0.215  0.00  0.00    -0.205 F 
ATOM     23  C   UNL     1      11.905   4.780   2.469  0.00  0.00    +0.037 A 
ATOM     25  C   UNL     1      12.737   5.771   1.951  0.00  0.00    +0.016 A 
ATOM     26  C   UNL     1      12.077   3.450   2.080  0.00  0.00    +0.016 A 
ATOM     29  C   UNL     1      13.743   5.435   1.045  0.00  0.00    +0.039 A 
ATOM     30  C   UNL     1      13.082   3.114   1.174  0.00  0.00    +0.039 A 
ATOM     31  C   UNL     1      13.915   4.106   0.656  0.00  0.00    +0.123 A 
ENDBRANCH  21  23
ENDBRANCH  15   5
ENDBRANCH   9  15
BRANCH  11  16
ATOM     16  C   UNL     1      13.690   8.015   5.674  0.00  0.00    +0.105 C 
BRANCH  16  20
ATOM      2  O   UNL     1      16.128   8.010   5.562  0.00  0.00    -0.420 OA
ATOM      6  N   UNL     1      15.250   9.912   6.348  0.00  0.00    -0.112 NA
ATOM      7  N   UNL     1      16.626  10.049   6.339  0.00  0.00    -0.107 NA
ATOM     20  C   UNL     1      15.005   8.708   5.887  0.00  0.00    +0.218 A 
ATOM     22  C   UNL     1      17.095   8.915   5.874  0.00  0.00    +0.248 A 
BRANCH  22  24
ATOM     24  C   UNL     1      18.448   8.491   5.647  0.00  0.00    +0.039 A 
ATOM     27  C   UNL     1      18.830   8.024   4.389  0.00  0.00    +0.017 A 
ATOM     28  C   UNL     1      19.379   8.546   6.684  0.00  0.00    +0.017 A 
ATOM     32  C   UNL     1      20.144   7.612   4.169  0.00  0.00    +0.046 A 
ATOM     33  C   UNL     1      20.693   8.133   6.463  0.00  0.00    +0.046 A 
ATOM     34  C   UNL     1      21.076   7.666   5.205  0.00  0.00    +0.120 A 
BRANCH  34   4
ATOM      4  O   UNL     1      22.358   7.264   4.991  0.00  0.00    -0.495 OA
ATOM     35  C   UNL     1      23.312   8.275   4.672  0.00  0.00    +0.277 C 
ENDBRANCH  34   4
ENDBRANCH  22  24
ENDBRANCH  16  20
ENDBRANCH  11  16
TORSDOF 8
ENDMDL
MODEL 9
REMARK VINA RESULT:      -6.5      3.448      8.691
REMARK  Name = 38031254
REMARK  12 active torsions:
REMARK  status: ('A' for Active; 'I' for Inactive)
REMARK    1  A    between atoms: O_4  and  C_34
REMARK    2  A    between atoms: O_4  and  C_35
REMARK    3  A    between atoms: N_5  and  C_15
REMARK    4  A    between atoms: C_8  and  C_12
REMARK    5  A    between atoms: C_9  and  C_15
REMARK    6  A    between atoms: C_11  and  C_16
REMARK    7  A    between atoms: C_12  and  C_17
REMARK    8  A    between atoms: C_12  and  C_18
REMARK    9  A    between atoms: C_13  and  C_19
REMARK   10  A    between atoms: C_16  and  C_20
REMARK   11  A    between atoms: C_21  and  C_23
REMARK   12  A    between atoms: C_22  and  C_24
REMARK                            x       y       z     vdW  Elec       q    Type
REMARK                         _______ _______ _______ _____ _____    ______ ____
ROOT
ATOM      8  C   UNL     1      13.138   8.223  19.927  0.00  0.00    +0.000 C 
ATOM      9  C   UNL     1      12.927   9.605  19.259  0.00  0.00    +0.032 C 
ATOM     10  C   UNL     1      14.012   8.363  21.184  0.00  0.00    +0.012 C 
ATOM     11  C   UNL     1      15.392   8.969  20.870  0.00  0.00    +0.024 C 
ATOM     13  C   UNL     1      15.281  10.192  19.983  0.00  0.00    -0.073 C 
ATOM     14  C   UNL     1      14.167  10.469  19.282  0.00  0.00    -0.022 C 
ATOM     19  C   UNL     1      16.465  11.119  19.957  0.00  0.00    +0.039 C 
ENDROOT
BRANCH   8  12
ATOM     12  C   UNL     1      11.807   7.560  20.292  0.00  0.00    -0.013 C 
ATOM     17  C   UNL     1      10.875   8.566  20.958  0.00  0.00    +0.007 C 
ATOM     18  C   UNL     1      12.044   6.357  21.202  0.00  0.00    +0.007 C 
ENDBRANCH   8  12
BRANCH   9  15
ATOM     15  C   UNL     1      12.438   9.452  17.815  0.00  0.00    +0.112 C 
BRANCH  15   5
ATOM      3  O   UNL     1      13.507   8.852  15.218  0.00  0.00    -0.270 OA
ATOM      5  N   UNL     1      13.129  10.354  16.947  0.00  0.00    -0.311 N 
ATOM     21  C   UNL     1      13.617   9.978  15.696  0.00  0.00    +0.244 C 
ATOM     36  H   UNL     1      13.265  11.301  17.281  0.00  0.00    +0.149 HD
BRANCH  21  23
ATOM      1  F   UNL     1      16.334  13.935  12.783  0.00  0.00    -0.205 F 
ATOM     23  C   UNL     1      14.336  11.025  14.925  0.00  0.00    +0.037 A 
ATOM     25  C   UNL     1      15.725  11.113  14.997  0.00  0.00    +0.016 A 
ATOM     26  C   UNL     1      13.620  11.921  14.130  0.00  0.00    +0.016 A 
ATOM     29  C   UNL     1      16.401  12.095  14.272  0.00  0.00    +0.039 A 
ATOM     30  C   UNL     1      14.295  12.904  13.407  0.00  0.00    +0.039 A 
ATOM     31  C   UNL     1      15.685  12.991  13.478  0.00  0.00    +0.123 A 
ENDBRANCH  21  23
ENDBRANCH  15   5
ENDBRANCH   9  15
BRANCH  11  16
ATOM     16  C   UNL     1      16.325   7.924  20.248  0.00  0.00    +0.105 C 
BRANCH  16  20
ATOM      2  O   UNL     1      18.328   6.673  20.867  0.00  0.00    -0.420 OA
ATOM      6  N   UNL     1      18.195   8.706  21.792  0.00  0.00    -0.112 NA
ATOM      7  N   UNL     1      19.368   8.116  22.225  0.00  0.00    -0.107 NA
ATOM     20  C   UNL     1      17.621   7.829  21.002  0.00  0.00    +0.218 A 
ATOM     22  C   UNL     1      19.403   6.932  21.661  0.00  0.00    +0.248 A 
BRANCH  22  24
ATOM     24  C   UNL     1      20.383   5.887  21.749  0.00  0.00    +0.039 A 
ATOM     27  C   UNL     1      20.455   4.913  20.753  0.00  0.00    +0.017 A 
ATOM     28  C   UNL     1      21.262   5.846  22.831  0.00  0.00    +0.017 A 
ATOM     32  C   UNL     1      21.408   3.897  20.839  0.00  0.00    +0.046 A 
ATOM     33  C   UNL     1      22.214   4.830  22.917  0.00  0.00    +0.046 A 
ATOM     34  C   UNL     1      22.287   3.856  21.921  0.00  0.00    +0.120 A 
BRANCH  34   4
ATOM      4  O   UNL     1      23.217   2.865  22.006  0.00  0.00    -0.495 OA
ATOM     35  C   UNL     1      23.685   2.308  20.780  0.00  0.00    +0.277 C 
ENDBRANCH  34   4
ENDBRANCH  22  24
ENDBRANCH  16  20
ENDBRANCH  11  16
TORSDOF 8
ENDMDL
MODEL 10
REMARK VINA RESULT:      -6.5     27.874     30.231
REMARK  Name = 38031254
REMARK  12 active torsions:
REMARK  status: ('A' for Active; 'I' for Inactive)
REMARK    1  A    between atoms: O_4  and  C_34
REMARK    2  A    between atoms: O_4  and  C_35
REMARK    3  A    between atoms: N_5  and  C_15
REMARK    4  A    between atoms: C_8  and  C_12
REMARK    5  A    between atoms: C_9  and  C_15
REMARK    6  A    between atoms: C_11  and  C_16
REMARK    7  A    between atoms: C_12  and  C_17
REMARK    8  A    between atoms: C_12  and  C_18
REMARK    9  A    between atoms: C_13  and  C_19
REMARK   10  A    between atoms: C_16  and  C_20
REMARK   11  A    between atoms: C_21  and  C_23
REMARK   12  A    between atoms: C_22  and  C_24
REMARK                            x       y       z     vdW  Elec       q    Type
REMARK                         _______ _______ _______ _____ _____    ______ ____
ROOT
ATOM      8  C   UNL     1      -7.482 -11.998  17.187  0.00  0.00    +0.000 C 
ATOM      9  C   UNL     1      -7.473 -12.279  18.711  0.00  0.00    +0.032 C 
ATOM     10  C   UNL     1      -6.227 -12.589  16.527  0.00  0.00    +0.012 C 
ATOM     11  C   UNL     1      -4.928 -12.012  17.121  0.00  0.00    +0.024 C 
ATOM     13  C   UNL     1      -4.957 -12.007  18.636  0.00  0.00    -0.073 C 
ATOM     14  C   UNL     1      -6.102 -12.142  19.330  0.00  0.00    -0.022 C 
ATOM     19  C   UNL     1      -3.633 -11.892  19.339  0.00  0.00    +0.039 C 
ENDROOT
BRANCH   8  12
ATOM     12  C   UNL     1      -8.737 -12.561  16.513  0.00  0.00    -0.013 C 
ATOM     17  C   UNL     1      -8.521 -14.018  16.118  0.00  0.00    +0.007 C 
ATOM     18  C   UNL     1      -9.109 -11.720  15.295  0.00  0.00    +0.007 C 
ENDBRANCH   8  12
BRANCH   9  15
ATOM     15  C   UNL     1      -8.459 -11.365  19.447  0.00  0.00    +0.112 C 
BRANCH  15   5
ATOM      3  O   UNL     1     -11.190 -10.557  19.081  0.00  0.00    -0.270 OA
ATOM      5  N   UNL     1      -8.935 -10.330  18.583  0.00  0.00    -0.311 N 
ATOM     21  C   UNL     1     -10.285 -10.001  18.465  0.00  0.00    +0.244 C 
ATOM     36  H   UNL     1      -8.242  -9.833  18.036  0.00  0.00    +0.149 HD
BRANCH  21  23
ATOM      1  F   UNL     1     -11.550  -5.912  14.831  0.00  0.00    -0.205 F 
ATOM     23  C   UNL     1     -10.619  -8.919  17.504  0.00  0.00    +0.037 A 
ATOM     25  C   UNL     1      -9.601  -8.217  16.862  0.00  0.00    +0.016 A 
ATOM     26  C   UNL     1     -11.954  -8.606  17.244  0.00  0.00    +0.016 A 
ATOM     29  C   UNL     1      -9.914  -7.202  15.958  0.00  0.00    +0.039 A 
ATOM     30  C   UNL     1     -12.269  -7.590  16.341  0.00  0.00    +0.039 A 
ATOM     31  C   UNL     1     -11.249  -6.888  15.698  0.00  0.00    +0.123 A 
ENDBRANCH  21  23
ENDBRANCH  15   5
ENDBRANCH   9  15
BRANCH  11  16
ATOM     16  C   UNL     1      -4.646 -10.609  16.575  0.00  0.00    +0.105 C 
BRANCH  16  20
ATOM      2  O   UNL     1      -4.373 -10.671  14.150  0.00  0.00    -0.420 OA
ATOM      6  N   UNL     1      -2.448 -10.699  15.289  0.00  0.00    -0.112 NA
ATOM      7  N   UNL     1      -2.146 -10.737  13.941  0.00  0.00    -0.107 NA
ATOM     20  C   UNL     1      -3.758 -10.661  15.364  0.00  0.00    +0.218 A 
ATOM     22  C   UNL     1      -3.299 -10.720  13.315  0.00  0.00    +0.248 A 
BRANCH  22  24
ATOM     24  C   UNL     1      -3.597 -10.742  11.911  0.00  0.00    +0.039 A 
ATOM     27  C   UNL     1      -3.794 -11.960  11.260  0.00  0.00    +0.017 A 
ATOM     28  C   UNL     1      -3.689  -9.547  11.199  0.00  0.00    +0.017 A 
ATOM     32  C   UNL     1      -4.084 -11.981   9.895  0.00  0.00    +0.046 A 
ATOM     33  C   UNL     1      -3.978  -9.568   9.834  0.00  0.00    +0.046 A 
ATOM     34  C   UNL     1      -4.176 -10.786   9.182  0.00  0.00    +0.120 A 
BRANCH  34   4
ATOM      4  O   UNL     1      -4.458 -10.807   7.851  0.00  0.00    -0.495 OA
ATOM     35  C   UNL     1      -5.489  -9.935   7.392  0.00  0.00    +0.277 C 
ENDBRANCH  34   4
ENDBRANCH  22  24
ENDBRANCH  16  20
ENDBRANCH  11  16
TORSDOF 8
ENDMDL
