REMARK  Name = 25338459
REMARK  5 active torsions:
REMARK  status: ('A' for Active; 'I' for Inactive)
REMARK    1  A    between atoms: N_3  and  C_14
REMARK    2  A    between atoms: N_4  and  C_9
REMARK    3  A    between atoms: N_7  and  C_18
REMARK    4  A    between atoms: C_10  and  C_13
REMARK    5  A    between atoms: C_16  and  C_17
REMARK                            x       y       z     vdW  Elec       q    Type
REMARK                         _______ _______ _______ _____ _____    ______ ____
ROOT
ATOM      3  N   UNL     1      -0.926   3.047   1.076  0.00  0.00    -0.293 NA
ATOM      9  C   UNL     1       1.044   2.888  -0.162  0.00  0.00    +0.090 C 
ATOM     10  C   UNL     1      -1.393   2.774  -0.297  0.00  0.00    +0.147 C 
ATOM     11  C   UNL     1      -0.104   2.514  -1.100  0.00  0.00    +0.052 C 
ATOM     12  C   UNL     1       0.376   3.707   0.932  0.00  0.00    +0.107 C 
ATOM     14  C   UNL     1      -1.861   3.853   1.851  0.00  0.00    +0.105 C 
ENDROOT
BRANCH   9   4
ATOM      2  O   UNL     1       3.322   1.533  -1.248  0.00  0.00    -0.253 OA
ATOM      4  N   UNL     1       1.690   1.716   0.380  0.00  0.00    -0.295 N 
ATOM      7  N   UNL     1       3.210   0.003   0.529  0.00  0.00    -0.269 N 
ATOM     15  C   UNL     1       2.804   1.114  -0.215  0.00  0.00    +0.304 C 
ATOM     28  H   UNL     1       1.275   1.267   1.191  0.00  0.00    +0.151 HD
ATOM     29  H   UNL     1       2.670  -0.210   1.364  0.00  0.00    +0.156 HD
BRANCH   7  18
ATOM     18  C   UNL     1       4.291  -0.871   0.265  0.00  0.00    +0.035 A 
ATOM     21  C   UNL     1       4.550  -1.938   1.125  0.00  0.00    +0.023 A 
ATOM     22  C   UNL     1       5.096  -0.666  -0.855  0.00  0.00    +0.023 A 
ATOM     25  C   UNL     1       5.615  -2.800   0.865  0.00  0.00    +0.002 A 
ATOM     26  C   UNL     1       6.161  -1.529  -1.115  0.00  0.00    +0.002 A 
ATOM     27  C   UNL     1       6.421  -2.596  -0.255  0.00  0.00    +0.000 A 
ENDBRANCH   7  18
ENDBRANCH   9   4
BRANCH  10  13
ATOM      1  O   UNL     1      -3.585   1.899  -0.930  0.00  0.00    -0.336 OA
ATOM      5  N   UNL     1      -2.229   0.380   0.001  0.00  0.00    -0.190 NA
ATOM      6  N   UNL     1      -4.308   0.700  -0.900  0.00  0.00    -0.056 NA
ATOM     13  C   UNL     1      -2.373   1.623  -0.382  0.00  0.00    +0.245 A 
ATOM     16  C   UNL     1      -3.442  -0.148  -0.337  0.00  0.00    +0.202 A 
BRANCH  16  17
ATOM      8  N   UNL     1      -4.366  -4.216   0.360  0.00  0.00    -0.263 NA
ATOM     17  C   UNL     1      -3.755  -1.528  -0.101  0.00  0.00    +0.025 A 
ATOM     19  C   UNL     1      -2.815  -2.366   0.487  0.00  0.00    +0.031 A 
ATOM     20  C   UNL     1      -5.001  -2.032  -0.458  0.00  0.00    +0.031 A 
ATOM     23  C   UNL     1      -3.166  -3.690   0.695  0.00  0.00    +0.111 A 
ATOM     24  C   UNL     1      -5.255  -3.371  -0.209  0.00  0.00    +0.111 A 
ENDBRANCH  16  17
ENDBRANCH  10  13
TORSDOF 4
