REMARK  Name = 11882566
REMARK  17 active torsions:
REMARK  status: ('A' for Active; 'I' for Inactive)
REMARK    1  A    between atoms: O_1  and  C_12
REMARK    2  A    between atoms: O_2  and  C_15
REMARK    3  A    between atoms: O_3  and  C_17
REMARK    4  A    between atoms: O_7  and  C_33
REMARK    5  A    between atoms: O_7  and  C_34
REMARK    6  A    between atoms: N_8  and  C_13
REMARK    7  A    between atoms: N_9  and  C_21
REMARK    8  A    between atoms: N_10  and  C_20
REMARK    9  A    between atoms: N_10  and  C_28
REMARK   10  A    between atoms: C_12  and  C_18
REMARK   11  A    between atoms: C_19  and  C_20
REMARK   12  A    between atoms: C_20  and  C_22
REMARK   13  A    between atoms: C_21  and  C_23
REMARK   14  A    between atoms: C_21  and  C_26
REMARK   15  A    between atoms: C_22  and  C_24
REMARK   16  A    between atoms: C_22  and  C_25
REMARK   17  A    between atoms: C_23  and  C_27
REMARK                            x       y       z     vdW  Elec       q    Type
REMARK                         _______ _______ _______ _____ _____    ______ ____
ROOT
ATOM     12  C   UNL     1      -0.816   2.126  -0.965  0.00  0.00    +0.146 C 
ATOM     13  C   UNL     1       1.577   1.771  -0.187  0.00  0.00    +0.107 C 
ATOM     14  C   UNL     1       0.231   1.110  -0.506  0.00  0.00    +0.069 C 
ATOM     15  C   UNL     1       1.423   2.923   0.815  0.00  0.00    +0.163 C 
ATOM     16  C   UNL     1      -0.974   3.257   0.050  0.00  0.00    +0.078 C 
ATOM     17  C   UNL     1       0.360   3.932   0.371  0.00  0.00    +0.148 C 
ENDROOT
BRANCH  12  18
ATOM      4  O   UNL     1      -2.695   1.486  -2.294  0.00  0.00    -0.273 OA
ATOM      9  N   UNL     1      -2.625   0.843  -0.058  0.00  0.00    -0.301 N 
ATOM     18  C   UNL     1      -2.137   1.454  -1.200  0.00  0.00    +0.246 C 
ATOM     39  H   UNL     1      -2.131   0.951   0.822  0.00  0.00    +0.150 HD
BRANCH   9  21
ATOM     21  C   UNL     1      -3.890   0.146  -0.013  0.00  0.00    +0.163 C 
BRANCH  21  26
ATOM      6  O   UNL     1      -4.784   2.150   1.031  0.00  0.00    -0.274 OA
ATOM     11  N   UNL     1      -6.140   0.948  -0.381  0.00  0.00    -0.328 N 
ATOM     26  C   UNL     1      -4.961   1.182   0.295  0.00  0.00    +0.231 C 
ATOM     41  H   UNL     1      -6.271   0.146  -0.989  0.00  0.00    +0.145 HD
ATOM     42  H   UNL     1      -6.933   1.573  -0.277  0.00  0.00    +0.145 HD
ENDBRANCH  21  26
BRANCH  21  23
ATOM     23  C   UNL     1      -3.902  -0.965   1.043  0.00  0.00    +0.067 C 
BRANCH  23  27
ATOM     27  C   UNL     1      -2.839  -2.009   0.804  0.00  0.00    -0.045 A 
ATOM     29  C   UNL     1      -3.121  -3.126   0.018  0.00  0.00    +0.007 A 
ATOM     30  C   UNL     1      -1.573  -1.857   1.371  0.00  0.00    +0.007 A 
ATOM     31  C   UNL     1      -2.138  -4.090  -0.203  0.00  0.00    +0.046 A 
ATOM     32  C   UNL     1      -0.590  -2.821   1.151  0.00  0.00    +0.046 A 
ATOM     33  C   UNL     1      -0.872  -3.938   0.364  0.00  0.00    +0.120 A 
BRANCH  33   7
ATOM      7  O   UNL     1       0.087  -4.879   0.149  0.00  0.00    -0.495 OA
ATOM     34  C   UNL     1      -0.269  -5.995  -0.666  0.00  0.00    +0.277 C 
ENDBRANCH  33   7
ENDBRANCH  23  27
ENDBRANCH  21  23
ENDBRANCH   9  21
ENDBRANCH  12  18
BRANCH  13   8
ATOM      5  O   UNL     1       3.335   0.106  -1.740  0.00  0.00    -0.274 OA
ATOM      8  N   UNL     1       2.501   0.778   0.317  0.00  0.00    -0.309 N 
ATOM     19  C   UNL     1       3.312   0.021  -0.513  0.00  0.00    +0.231 C 
ATOM     35  H   UNL     1       2.507   0.599   1.316  0.00  0.00    +0.149 HD
BRANCH  19  20
ATOM     20  C   UNL     1       4.187  -0.961   0.265  0.00  0.00    +0.143 C 
BRANCH  20  10
ATOM     10  N   UNL     1       4.316  -2.165  -0.560  0.00  0.00    -0.309 NA
ATOM     28  C   UNL     1       3.129  -2.996  -0.443  0.00  0.00    +0.101 C 
ATOM     40  H   UNL     1       5.119  -2.709  -0.244  0.00  0.00    +0.122 HD
ENDBRANCH  20  10
BRANCH  20  22
ATOM     22  C   UNL     1       5.574  -0.383   0.634  0.00  0.00    +0.009 C 
ATOM     24  C   UNL     1       5.513   0.850   1.543  0.00  0.00    +0.009 C 
ATOM     25  C   UNL     1       6.409  -0.066  -0.611  0.00  0.00    +0.009 C 
ENDBRANCH  20  22
ENDBRANCH  19  20
ENDBRANCH  13   8
BRANCH  12   1
ATOM      1  O   UNL     1      -0.455   2.679  -2.225  0.00  0.00    -0.379 OA
ATOM     36  H   UNL     1      -1.083   3.389  -2.442  0.00  0.00    +0.211 HD
ENDBRANCH  12   1
BRANCH  15   2
ATOM      2  O   UNL     1       2.667   3.622   0.917  0.00  0.00    -0.387 OA
ATOM     37  H   UNL     1       2.904   3.947   0.032  0.00  0.00    +0.210 HD
ENDBRANCH  15   2
BRANCH  17   3
ATOM      3  O   UNL     1       0.159   4.871   1.428  0.00  0.00    -0.389 OA
ATOM     38  H   UNL     1      -0.508   5.511   1.127  0.00  0.00    +0.210 HD
ENDBRANCH  17   3
TORSDOF 13
