MODEL 1
REMARK VINA RESULT:      -7.1      0.000      0.000
REMARK  Name = 51138172
REMARK  9 active torsions:
REMARK  status: ('A' for Active; 'I' for Inactive)
REMARK    1  A    between atoms: O_2  and  C_20
REMARK    2  A    between atoms: N_5  and  C_27
REMARK    3  A    between atoms: C_6  and  C_12
REMARK    4  A    between atoms: C_7  and  C_13
REMARK    5  A    between atoms: C_12  and  C_17
REMARK    6  A    between atoms: C_17  and  C_25
REMARK    7  A    between atoms: C_17  and  C_26
REMARK    8  A    between atoms: C_27  and  C_28
REMARK    9  A    between atoms: C_29  and  C_30
REMARK                            x       y       z     vdW  Elec       q    Type
REMARK                         _______ _______ _______ _____ _____    ______ ____
ROOT
ATOM      3  N   UNL     1      13.531   8.847  19.927  0.00  0.00    -0.299 NA
ATOM      5  N   UNL     1      13.689  11.012  15.368  0.00  0.00    -0.335 N 
ATOM      6  C   UNL     1      12.477   8.193  19.140  0.00  0.00    +0.085 C 
ATOM      7  C   UNL     1      14.861   8.775  19.340  0.00  0.00    +0.145 C 
ATOM      8  C   UNL     1      15.199  10.047  18.563  0.00  0.00    +0.065 C 
ATOM      9  C   UNL     1      12.195   8.803  17.762  0.00  0.00    -0.021 A 
ATOM     10  C   UNL     1      13.063   9.693  17.065  0.00  0.00    +0.008 A 
ATOM     11  C   UNL     1      14.354  10.259  17.352  0.00  0.00    -0.020 A 
ATOM     14  C   UNL     1      12.694  10.169  15.803  0.00  0.00    +0.050 A 
ATOM     21  C   UNL     1      14.694  11.069  16.287  0.00  0.00    +0.091 A 
ATOM     22  C   UNL     1      11.022   8.406  17.071  0.00  0.00    +0.006 A 
ATOM     23  C   UNL     1      11.510   9.803  15.159  0.00  0.00    +0.026 A 
ATOM     24  C   UNL     1      10.683   8.899  15.813  0.00  0.00    +0.002 A 
ATOM     31  H   UNL     1      13.276   9.808  20.148  0.00  0.00    +0.123 HD
ENDROOT
BRANCH   7  13
ATOM      1  O   UNL     1      15.909   9.587  21.292  0.00  0.00    -0.274 OA
ATOM      4  N   UNL     1      16.495   7.444  20.612  0.00  0.00    -0.300 N 
ATOM     13  C   UNL     1      15.797   8.647  20.502  0.00  0.00    +0.233 C 
ATOM     15  C   UNL     1      16.382   6.308  19.687  0.00  0.00    +0.110 C 
ATOM     16  C   UNL     1      17.395   7.225  21.748  0.00  0.00    +0.110 C 
ATOM     18  C   UNL     1      17.756   5.890  19.174  0.00  0.00    +0.050 C 
ATOM     19  C   UNL     1      18.786   6.824  21.270  0.00  0.00    +0.050 C 
ATOM     20  C   UNL     1      18.723   5.622  20.328  0.00  0.00    +0.118 C 
BRANCH  20   2
ATOM      2  O   UNL     1      20.014   5.359  19.792  0.00  0.00    -0.392 OA
ATOM     32  H   UNL     1      20.271   4.464  20.074  0.00  0.00    +0.210 HD
ENDBRANCH  20   2
ENDBRANCH   7  13
BRANCH   6  12
ATOM     12  C   UNL     1      11.240   8.209  20.055  0.00  0.00    +0.026 C 
BRANCH  12  17
ATOM     17  C   UNL     1      11.526   7.662  21.457  0.00  0.00    -0.015 C 
ATOM     25  C   UNL     1      11.241   6.158  21.480  0.00  0.00    +0.007 C 
ATOM     26  C   UNL     1      10.706   8.360  22.542  0.00  0.00    +0.007 C 
ENDBRANCH  12  17
ENDBRANCH   6  12
BRANCH   5  27
ATOM     27  C   UNL     1      13.697  11.727  14.109  0.00  0.00    +0.210 C 
BRANCH  27  28
ATOM     28  C   UNL     1      15.060  12.032  13.656  0.00  0.00    -0.081 C 
ATOM     29  C   UNL     1      16.174  12.283  13.285  0.00  0.00    -0.104 C 
ATOM     30  C   UNL     1      17.531  12.587  12.834  0.00  0.00    +0.106 C 
ENDBRANCH  27  28
ENDBRANCH   5  27
TORSDOF 6
ENDMDL
MODEL 2
REMARK VINA RESULT:      -6.8      3.310      7.226
REMARK  Name = 51138172
REMARK  9 active torsions:
REMARK  status: ('A' for Active; 'I' for Inactive)
REMARK    1  A    between atoms: O_2  and  C_20
REMARK    2  A    between atoms: N_5  and  C_27
REMARK    3  A    between atoms: C_6  and  C_12
REMARK    4  A    between atoms: C_7  and  C_13
REMARK    5  A    between atoms: C_12  and  C_17
REMARK    6  A    between atoms: C_17  and  C_25
REMARK    7  A    between atoms: C_17  and  C_26
REMARK    8  A    between atoms: C_27  and  C_28
REMARK    9  A    between atoms: C_29  and  C_30
REMARK                            x       y       z     vdW  Elec       q    Type
REMARK                         _______ _______ _______ _____ _____    ______ ____
ROOT
ATOM      3  N   UNL     1      14.354  10.604  19.732  0.00  0.00    -0.299 NA
ATOM      5  N   UNL     1      18.464   8.314  21.565  0.00  0.00    -0.335 N 
ATOM      6  C   UNL     1      14.208   9.185  19.382  0.00  0.00    +0.085 C 
ATOM      7  C   UNL     1      14.530  10.865  21.153  0.00  0.00    +0.145 C 
ATOM      8  C   UNL     1      16.005  11.030  21.514  0.00  0.00    +0.065 C 
ATOM      9  C   UNL     1      15.422   8.297  19.669  0.00  0.00    -0.021 A 
ATOM     10  C   UNL     1      16.507   8.641  20.527  0.00  0.00    +0.008 A 
ATOM     11  C   UNL     1      16.813   9.788  21.340  0.00  0.00    -0.020 A 
ATOM     14  C   UNL     1      17.553   7.731  20.716  0.00  0.00    +0.050 A 
ATOM     21  C   UNL     1      18.027   9.546  21.951  0.00  0.00    +0.091 A 
ATOM     22  C   UNL     1      15.457   6.993  19.111  0.00  0.00    +0.006 A 
ATOM     23  C   UNL     1      17.592   6.470  20.119  0.00  0.00    +0.026 A 
ATOM     24  C   UNL     1      16.514   6.110  19.320  0.00  0.00    +0.002 A 
ATOM     31  H   UNL     1      15.093  11.040  19.182  0.00  0.00    +0.123 HD
ENDROOT
BRANCH   7  13
ATOM      1  O   UNL     1      14.331  13.213  21.036  0.00  0.00    -0.274 OA
ATOM      4  N   UNL     1      12.587  12.073  22.063  0.00  0.00    -0.300 N 
ATOM     13  C   UNL     1      13.815  12.157  21.407  0.00  0.00    +0.233 C 
ATOM     15  C   UNL     1      11.948  10.830  22.515  0.00  0.00    +0.110 C 
ATOM     16  C   UNL     1      11.806  13.289  22.306  0.00  0.00    +0.110 C 
ATOM     18  C   UNL     1      11.587  10.915  23.995  0.00  0.00    +0.050 C 
ATOM     19  C   UNL     1      11.445  13.418  23.781  0.00  0.00    +0.050 C 
ATOM     20  C   UNL     1      10.747  12.157  24.292  0.00  0.00    +0.118 C 
BRANCH  20   2
ATOM      2  O   UNL     1      10.547  12.251  25.697  0.00  0.00    -0.392 OA
ATOM     32  H   UNL     1      10.298  11.366  26.017  0.00  0.00    +0.210 HD
ENDBRANCH  20   2
ENDBRANCH   7  13
BRANCH   6  12
ATOM     12  C   UNL     1      13.819   9.189  17.892  0.00  0.00    +0.026 C 
BRANCH  12  17
ATOM     17  C   UNL     1      12.478   8.501  17.622  0.00  0.00    -0.015 C 
ATOM     25  C   UNL     1      11.802   9.167  16.421  0.00  0.00    +0.007 C 
ATOM     26  C   UNL     1      11.541   8.541  18.830  0.00  0.00    +0.007 C 
ENDBRANCH  12  17
ENDBRANCH   6  12
BRANCH   5  27
ATOM     27  C   UNL     1      19.702   7.713  22.014  0.00  0.00    +0.210 C 
BRANCH  27  28
ATOM     28  C   UNL     1      20.847   8.129  21.195  0.00  0.00    -0.081 C 
ATOM     29  C   UNL     1      21.782   8.469  20.523  0.00  0.00    -0.104 C 
ATOM     30  C   UNL     1      22.922   8.884  19.707  0.00  0.00    +0.106 C 
ENDBRANCH  27  28
ENDBRANCH   5  27
TORSDOF 6
ENDMDL
MODEL 3
REMARK VINA RESULT:      -6.8     26.667     29.215
REMARK  Name = 51138172
REMARK  9 active torsions:
REMARK  status: ('A' for Active; 'I' for Inactive)
REMARK    1  A    between atoms: O_2  and  C_20
REMARK    2  A    between atoms: N_5  and  C_27
REMARK    3  A    between atoms: C_6  and  C_12
REMARK    4  A    between atoms: C_7  and  C_13
REMARK    5  A    between atoms: C_12  and  C_17
REMARK    6  A    between atoms: C_17  and  C_25
REMARK    7  A    between atoms: C_17  and  C_26
REMARK    8  A    between atoms: C_27  and  C_28
REMARK    9  A    between atoms: C_29  and  C_30
REMARK                            x       y       z     vdW  Elec       q    Type
REMARK                         _______ _______ _______ _____ _____    ______ ____
ROOT
ATOM      3  N   UNL     1      -6.897 -11.757  15.992  0.00  0.00    -0.299 NA
ATOM      5  N   UNL     1      -4.017 -10.224  12.138  0.00  0.00    -0.335 N 
ATOM      6  C   UNL     1      -5.614 -11.361  16.587  0.00  0.00    +0.085 C 
ATOM      7  C   UNL     1      -7.549 -10.718  15.209  0.00  0.00    +0.145 C 
ATOM      8  C   UNL     1      -7.258 -10.875  13.717  0.00  0.00    +0.065 C 
ATOM      9  C   UNL     1      -4.492 -11.027  15.598  0.00  0.00    -0.021 A 
ATOM     10  C   UNL     1      -4.676 -10.742  14.214  0.00  0.00    +0.008 A 
ATOM     11  C   UNL     1      -5.827 -10.662  13.355  0.00  0.00    -0.020 A 
ATOM     14  C   UNL     1      -3.566 -10.437  13.419  0.00  0.00    +0.050 A 
ATOM     21  C   UNL     1      -5.373 -10.350  12.089  0.00  0.00    +0.091 A 
ATOM     22  C   UNL     1      -3.166 -10.908  16.089  0.00  0.00    +0.006 A 
ATOM     23  C   UNL     1      -2.262 -10.372  13.912  0.00  0.00    +0.026 A 
ATOM     24  C   UNL     1      -2.082 -10.601  15.271  0.00  0.00    +0.002 A 
ATOM     31  H   UNL     1      -6.799 -12.617  15.455  0.00  0.00    +0.123 HD
ENDROOT
BRANCH   7  13
ATOM      1  O   UNL     1      -9.579 -11.898  14.967  0.00  0.00    -0.274 OA
ATOM      4  N   UNL     1      -9.660  -9.935  16.206  0.00  0.00    -0.300 N 
ATOM     13  C   UNL     1      -9.016 -10.910  15.445  0.00  0.00    +0.233 C 
ATOM     15  C   UNL     1      -9.016  -8.749  16.788  0.00  0.00    +0.110 C 
ATOM     16  C   UNL     1     -11.084 -10.077  16.520  0.00  0.00    +0.110 C 
ATOM     18  C   UNL     1      -9.756  -7.479  16.382  0.00  0.00    +0.050 C 
ATOM     19  C   UNL     1     -11.859  -8.831  16.107  0.00  0.00    +0.050 C 
ATOM     20  C   UNL     1     -11.244  -7.570  16.716  0.00  0.00    +0.118 C 
BRANCH  20   2
ATOM      2  O   UNL     1     -11.901  -6.417  16.206  0.00  0.00    -0.392 OA
ATOM     32  H   UNL     1     -12.834  -6.465  16.480  0.00  0.00    +0.210 HD
ENDBRANCH  20   2
ENDBRANCH   7  13
BRANCH   6  12
ATOM     12  C   UNL     1      -5.244 -12.524  17.526  0.00  0.00    +0.026 C 
BRANCH  12  17
ATOM     17  C   UNL     1      -5.106 -12.091  18.988  0.00  0.00    -0.015 C 
ATOM     25  C   UNL     1      -5.656 -10.672  19.150  0.00  0.00    +0.007 C 
ATOM     26  C   UNL     1      -3.661 -12.145  19.485  0.00  0.00    +0.007 C 
ENDBRANCH  12  17
ENDBRANCH   6  12
BRANCH   5  27
ATOM     27  C   UNL     1      -3.189  -9.891  10.998  0.00  0.00    +0.210 C 
BRANCH  27  28
ATOM     28  C   UNL     1      -3.946  -9.915   9.740  0.00  0.00    -0.081 C 
ATOM     29  C   UNL     1      -4.564  -9.936   8.711  0.00  0.00    -0.104 C 
ATOM     30  C   UNL     1      -5.318  -9.960   7.458  0.00  0.00    +0.106 C 
ENDBRANCH  27  28
ENDBRANCH   5  27
TORSDOF 6
ENDMDL
MODEL 4
REMARK VINA RESULT:      -6.6     26.933     30.146
REMARK  Name = 51138172
REMARK  9 active torsions:
REMARK  status: ('A' for Active; 'I' for Inactive)
REMARK    1  A    between atoms: O_2  and  C_20
REMARK    2  A    between atoms: N_5  and  C_27
REMARK    3  A    between atoms: C_6  and  C_12
REMARK    4  A    between atoms: C_7  and  C_13
REMARK    5  A    between atoms: C_12  and  C_17
REMARK    6  A    between atoms: C_17  and  C_25
REMARK    7  A    between atoms: C_17  and  C_26
REMARK    8  A    between atoms: C_27  and  C_28
REMARK    9  A    between atoms: C_29  and  C_30
REMARK                            x       y       z     vdW  Elec       q    Type
REMARK                         _______ _______ _______ _____ _____    ______ ____
ROOT
ATOM      3  N   UNL     1      -9.561 -10.949  16.587  0.00  0.00    -0.299 NA
ATOM      5  N   UNL     1      -4.541 -10.646  16.130  0.00  0.00    -0.335 N 
ATOM      6  C   UNL     1      -9.045 -10.814  17.955  0.00  0.00    +0.085 C 
ATOM      7  C   UNL     1      -9.164  -9.883  15.680  0.00  0.00    +0.145 C 
ATOM      8  C   UNL     1      -7.952 -10.284  14.841  0.00  0.00    +0.065 C 
ATOM      9  C   UNL     1      -7.522 -10.887  18.106  0.00  0.00    -0.021 A 
ATOM     10  C   UNL     1      -6.584 -10.733  17.044  0.00  0.00    +0.008 A 
ATOM     11  C   UNL     1      -6.703 -10.475  15.635  0.00  0.00    -0.020 A 
ATOM     14  C   UNL     1      -5.213 -10.808  17.318  0.00  0.00    +0.050 A 
ATOM     21  C   UNL     1      -5.426 -10.439  15.113  0.00  0.00    +0.091 A 
ATOM     22  C   UNL     1      -6.975 -11.041  19.406  0.00  0.00    +0.006 A 
ATOM     23  C   UNL     1      -4.695 -11.008  18.599  0.00  0.00    +0.026 A 
ATOM     24  C   UNL     1      -5.605 -11.111  19.645  0.00  0.00    +0.002 A 
ATOM     31  H   UNL     1      -9.335 -11.865  16.202  0.00  0.00    +0.123 HD
ENDROOT
BRANCH   7  13
ATOM      1  O   UNL     1     -10.572 -10.507  13.891  0.00  0.00    -0.274 OA
ATOM      4  N   UNL     1     -11.111  -8.537  14.999  0.00  0.00    -0.300 N 
ATOM     13  C   UNL     1     -10.341  -9.678  14.774  0.00  0.00    +0.233 C 
ATOM     15  C   UNL     1     -10.860  -7.535  16.043  0.00  0.00    +0.110 C 
ATOM     16  C   UNL     1     -12.304  -8.292  14.186  0.00  0.00    +0.110 C 
ATOM     18  C   UNL     1     -10.787  -6.135  15.442  0.00  0.00    +0.050 C 
ATOM     19  C   UNL     1     -12.255  -6.906  13.551  0.00  0.00    +0.050 C 
ATOM     20  C   UNL     1     -12.027  -5.823  14.605  0.00  0.00    +0.118 C 
BRANCH  20   2
ATOM      2  O   UNL     1     -11.849  -4.562  13.972  0.00  0.00    -0.392 OA
ATOM     32  H   UNL     1     -11.151  -4.087  14.456  0.00  0.00    +0.210 HD
ENDBRANCH  20   2
ENDBRANCH   7  13
BRANCH   6  12
ATOM     12  C   UNL     1      -9.770 -11.911  18.756  0.00  0.00    +0.026 C 
BRANCH  12  17
ATOM     17  C   UNL     1     -10.478 -11.373  20.002  0.00  0.00    -0.015 C 
ATOM     25  C   UNL     1     -11.488 -12.412  20.498  0.00  0.00    +0.007 C 
ATOM     26  C   UNL     1     -11.188 -10.043  19.750  0.00  0.00    +0.007 C 
ENDBRANCH  12  17
ENDBRANCH   6  12
BRANCH   5  27
ATOM     27  C   UNL     1      -3.104 -10.666  15.966  0.00  0.00    +0.210 C 
BRANCH  27  28
ATOM     28  C   UNL     1      -2.708 -10.621  14.553  0.00  0.00    -0.081 C 
ATOM     29  C   UNL     1      -2.384 -10.583  13.397  0.00  0.00    -0.104 C 
ATOM     30  C   UNL     1      -1.991 -10.538  11.990  0.00  0.00    +0.106 C 
ENDBRANCH  27  28
ENDBRANCH   5  27
TORSDOF 6
ENDMDL
MODEL 5
REMARK VINA RESULT:      -6.5     26.549     28.875
REMARK  Name = 51138172
REMARK  9 active torsions:
REMARK  status: ('A' for Active; 'I' for Inactive)
REMARK    1  A    between atoms: O_2  and  C_20
REMARK    2  A    between atoms: N_5  and  C_27
REMARK    3  A    between atoms: C_6  and  C_12
REMARK    4  A    between atoms: C_7  and  C_13
REMARK    5  A    between atoms: C_12  and  C_17
REMARK    6  A    between atoms: C_17  and  C_25
REMARK    7  A    between atoms: C_17  and  C_26
REMARK    8  A    between atoms: C_27  and  C_28
REMARK    9  A    between atoms: C_29  and  C_30
REMARK                            x       y       z     vdW  Elec       q    Type
REMARK                         _______ _______ _______ _____ _____    ______ ____
ROOT
ATOM      3  N   UNL     1      -4.376 -12.642  14.157  0.00  0.00    -0.299 NA
ATOM      5  N   UNL     1      -5.479  -9.564  10.309  0.00  0.00    -0.335 N 
ATOM      6  C   UNL     1      -3.145 -11.890  13.884  0.00  0.00    +0.085 C 
ATOM      7  C   UNL     1      -5.542 -11.818  14.441  0.00  0.00    +0.145 C 
ATOM      8  C   UNL     1      -6.405 -11.621  13.196  0.00  0.00    +0.065 C 
ATOM      9  C   UNL     1      -3.162 -11.010  12.630  0.00  0.00    -0.021 A 
ATOM     10  C   UNL     1      -4.334 -10.605  11.927  0.00  0.00    +0.008 A 
ATOM     11  C   UNL     1      -5.742 -10.832  12.117  0.00  0.00    -0.020 A 
ATOM     14  C   UNL     1      -4.215  -9.786  10.799  0.00  0.00    +0.050 A 
ATOM     21  C   UNL     1      -6.405 -10.182  11.096  0.00  0.00    +0.091 A 
ATOM     22  C   UNL     1      -1.935 -10.478  12.156  0.00  0.00    +0.006 A 
ATOM     23  C   UNL     1      -2.992  -9.312  10.320  0.00  0.00    +0.026 A 
ATOM     24  C   UNL     1      -1.850  -9.664  11.029  0.00  0.00    +0.002 A 
ATOM     31  H   UNL     1      -4.568 -13.309  13.410  0.00  0.00    +0.123 HD
ENDROOT
BRANCH   7  13
ATOM      1  O   UNL     1      -7.225 -13.338  15.093  0.00  0.00    -0.274 OA
ATOM      4  N   UNL     1      -5.972 -12.380  16.799  0.00  0.00    -0.300 N 
ATOM     13  C   UNL     1      -6.324 -12.582  15.464  0.00  0.00    +0.233 C 
ATOM     15  C   UNL     1      -4.904 -11.487  17.270  0.00  0.00    +0.110 C 
ATOM     16  C   UNL     1      -6.659 -13.127  17.855  0.00  0.00    +0.110 C 
ATOM     18  C   UNL     1      -5.437 -10.514  18.317  0.00  0.00    +0.050 C 
ATOM     19  C   UNL     1      -7.224 -12.182  18.910  0.00  0.00    +0.050 C 
ATOM     20  C   UNL     1      -6.139 -11.252  19.456  0.00  0.00    +0.118 C 
BRANCH  20   2
ATOM      2  O   UNL     1      -6.721 -10.295  20.333  0.00  0.00    -0.392 OA
ATOM     32  H   UNL     1      -7.530  -9.962  19.908  0.00  0.00    +0.210 HD
ENDBRANCH  20   2
ENDBRANCH   7  13
BRANCH   6  12
ATOM     12  C   UNL     1      -2.037 -12.958  13.839  0.00  0.00    +0.026 C 
BRANCH  12  17
ATOM     17  C   UNL     1      -2.560 -14.347  13.465  0.00  0.00    -0.015 C 
ATOM     25  C   UNL     1      -1.742 -15.411  14.201  0.00  0.00    +0.007 C 
ATOM     26  C   UNL     1      -2.513 -14.610  11.959  0.00  0.00    +0.007 C 
ENDBRANCH  12  17
ENDBRANCH   6  12
BRANCH   5  27
ATOM     27  C   UNL     1      -5.803  -8.772   9.141  0.00  0.00    +0.210 C 
BRANCH  27  28
ATOM     28  C   UNL     1      -5.704  -9.552   7.901  0.00  0.00    -0.081 C 
ATOM     29  C   UNL     1      -5.623 -10.191   6.887  0.00  0.00    -0.104 C 
ATOM     30  C   UNL     1      -5.524 -10.968   5.652  0.00  0.00    +0.106 C 
ENDBRANCH  27  28
ENDBRANCH   5  27
TORSDOF 6
ENDMDL
MODEL 6
REMARK VINA RESULT:      -6.2     13.885     17.490
REMARK  Name = 51138172
REMARK  9 active torsions:
REMARK  status: ('A' for Active; 'I' for Inactive)
REMARK    1  A    between atoms: O_2  and  C_20
REMARK    2  A    between atoms: N_5  and  C_27
REMARK    3  A    between atoms: C_6  and  C_12
REMARK    4  A    between atoms: C_7  and  C_13
REMARK    5  A    between atoms: C_12  and  C_17
REMARK    6  A    between atoms: C_17  and  C_25
REMARK    7  A    between atoms: C_17  and  C_26
REMARK    8  A    between atoms: C_27  and  C_28
REMARK    9  A    between atoms: C_29  and  C_30
REMARK                            x       y       z     vdW  Elec       q    Type
REMARK                         _______ _______ _______ _____ _____    ______ ____
ROOT
ATOM      3  N   UNL     1      10.561   5.439   1.218  0.00  0.00    -0.299 NA
ATOM      5  N   UNL     1       9.070   7.021   5.777  0.00  0.00    -0.335 N 
ATOM      6  C   UNL     1      10.016   6.788   1.013  0.00  0.00    +0.085 C 
ATOM      7  C   UNL     1      11.636   5.360   2.196  0.00  0.00    +0.145 C 
ATOM      8  C   UNL     1      11.115   4.932   3.567  0.00  0.00    +0.065 C 
ATOM      9  C   UNL     1       9.324   7.421   2.224  0.00  0.00    -0.021 A 
ATOM     10  C   UNL     1       9.460   6.979   3.572  0.00  0.00    +0.008 A 
ATOM     11  C   UNL     1      10.207   5.927   4.208  0.00  0.00    -0.020 A 
ATOM     14  C   UNL     1       8.782   7.656   4.592  0.00  0.00    +0.050 A 
ATOM     21  C   UNL     1       9.929   5.985   5.559  0.00  0.00    +0.091 A 
ATOM     22  C   UNL     1       8.542   8.588   2.025  0.00  0.00    +0.006 A 
ATOM     23  C   UNL     1       7.978   8.775   4.370  0.00  0.00    +0.026 A 
ATOM     24  C   UNL     1       7.880   9.240   3.064  0.00  0.00    +0.002 A 
ATOM     31  H   UNL     1       9.818   4.775   1.432  0.00  0.00    +0.123 HD
ENDROOT
BRANCH   7  13
ATOM      1  O   UNL     1      12.465   3.153   2.095  0.00  0.00    -0.274 OA
ATOM      4  N   UNL     1      13.505   4.718   0.728  0.00  0.00    -0.300 N 
ATOM     13  C   UNL     1      12.566   4.308   1.674  0.00  0.00    +0.233 C 
ATOM     15  C   UNL     1      13.647   6.085   0.209  0.00  0.00    +0.110 C 
ATOM     16  C   UNL     1      14.418   3.738   0.135  0.00  0.00    +0.110 C 
ATOM     18  C   UNL     1      15.084   6.574   0.360  0.00  0.00    +0.050 C 
ATOM     19  C   UNL     1      15.868   4.185   0.287  0.00  0.00    +0.050 C 
ATOM     20  C   UNL     1      16.074   5.594  -0.269  0.00  0.00    +0.118 C 
BRANCH  20   2
ATOM      2  O   UNL     1      17.397   6.035   0.009  0.00  0.00    -0.392 OA
ATOM     32  H   UNL     1      17.932   5.247   0.212  0.00  0.00    +0.210 HD
ENDBRANCH  20   2
ENDBRANCH   7  13
BRANCH   6  12
ATOM     12  C   UNL     1       9.076   6.648  -0.198  0.00  0.00    +0.026 C 
BRANCH  12  17
ATOM     17  C   UNL     1       9.562   7.422  -1.426  0.00  0.00    -0.015 C 
ATOM     25  C   UNL     1      10.759   8.292  -1.033  0.00  0.00    +0.007 C 
ATOM     26  C   UNL     1       8.470   8.296  -2.044  0.00  0.00    +0.007 C 
ENDBRANCH  12  17
ENDBRANCH   6  12
BRANCH   5  27
ATOM     27  C   UNL     1       8.562   7.396   7.079  0.00  0.00    +0.210 C 
BRANCH  27  28
ATOM     28  C   UNL     1       8.888   6.400   8.107  0.00  0.00    -0.081 C 
ATOM     29  C   UNL     1       9.156   5.584   8.947  0.00  0.00    -0.104 C 
ATOM     30  C   UNL     1       9.480   4.592   9.970  0.00  0.00    +0.106 C 
ENDBRANCH  27  28
ENDBRANCH   5  27
TORSDOF 6
ENDMDL
MODEL 7
REMARK VINA RESULT:      -6.2     23.654     26.866
REMARK  Name = 51138172
REMARK  9 active torsions:
REMARK  status: ('A' for Active; 'I' for Inactive)
REMARK    1  A    between atoms: O_2  and  C_20
REMARK    2  A    between atoms: N_5  and  C_27
REMARK    3  A    between atoms: C_6  and  C_12
REMARK    4  A    between atoms: C_7  and  C_13
REMARK    5  A    between atoms: C_12  and  C_17
REMARK    6  A    between atoms: C_17  and  C_25
REMARK    7  A    between atoms: C_17  and  C_26
REMARK    8  A    between atoms: C_27  and  C_28
REMARK    9  A    between atoms: C_29  and  C_30
REMARK                            x       y       z     vdW  Elec       q    Type
REMARK                         _______ _______ _______ _____ _____    ______ ____
ROOT
ATOM      3  N   UNL     1     -13.630  10.306  20.751  0.00  0.00    -0.299 NA
ATOM      5  N   UNL     1     -10.407  11.849  17.183  0.00  0.00    -0.335 N 
ATOM      6  C   UNL     1     -12.844   9.121  20.387  0.00  0.00    +0.085 C 
ATOM      7  C   UNL     1     -12.841  11.447  21.192  0.00  0.00    +0.145 C 
ATOM      8  C   UNL     1     -12.606  12.439  20.054  0.00  0.00    +0.065 C 
ATOM      9  C   UNL     1     -11.910   9.282  19.183  0.00  0.00    -0.021 A 
ATOM     10  C   UNL     1     -11.497  10.526  18.624  0.00  0.00    +0.008 A 
ATOM     11  C   UNL     1     -11.758  11.903  18.950  0.00  0.00    -0.020 A 
ATOM     14  C   UNL     1     -10.627  10.537  17.529  0.00  0.00    +0.050 A 
ATOM     21  C   UNL     1     -11.077  12.678  18.033  0.00  0.00    +0.091 A 
ATOM     22  C   UNL     1     -11.335   8.119  18.608  0.00  0.00    +0.006 A 
ATOM     23  C   UNL     1     -10.110   9.378  16.947  0.00  0.00    +0.026 A 
ATOM     24  C   UNL     1     -10.471   8.163  17.517  0.00  0.00    +0.002 A 
ATOM     31  H   UNL     1     -14.267  10.566  19.999  0.00  0.00    +0.123 HD
ENDROOT
BRANCH   7  13
ATOM      1  O   UNL     1     -14.433  13.019  21.943  0.00  0.00    -0.274 OA
ATOM      4  N   UNL     1     -13.498  11.634  23.557  0.00  0.00    -0.300 N 
ATOM     13  C   UNL     1     -13.664  12.107  22.256  0.00  0.00    +0.233 C 
ATOM     15  C   UNL     1     -12.591  10.550  23.959  0.00  0.00    +0.110 C 
ATOM     16  C   UNL     1     -14.302  12.197  24.646  0.00  0.00    +0.110 C 
ATOM     18  C   UNL     1     -11.671  11.005  25.088  0.00  0.00    +0.050 C 
ATOM     19  C   UNL     1     -13.412  12.682  25.784  0.00  0.00    +0.050 C 
ATOM     20  C   UNL     1     -12.469  11.576  26.259  0.00  0.00    +0.118 C 
BRANCH  20   2
ATOM      2  O   UNL     1     -11.561  12.096  27.223  0.00  0.00    -0.392 OA
ATOM     32  H   UNL     1     -11.487  13.054  27.069  0.00  0.00    +0.210 HD
ENDBRANCH  20   2
ENDBRANCH   7  13
BRANCH   6  12
ATOM     12  C   UNL     1     -13.888   8.009  20.178  0.00  0.00    +0.026 C 
BRANCH  12  17
ATOM     17  C   UNL     1     -13.914   6.991  21.322  0.00  0.00    -0.015 C 
ATOM     25  C   UNL     1     -12.586   6.231  21.353  0.00  0.00    +0.007 C 
ATOM     26  C   UNL     1     -15.073   6.000  21.204  0.00  0.00    +0.007 C 
ENDBRANCH  12  17
ENDBRANCH   6  12
BRANCH   5  27
ATOM     27  C   UNL     1      -9.571  12.304  16.093  0.00  0.00    +0.210 C 
BRANCH  27  28
ATOM     28  C   UNL     1      -8.417  13.078  16.567  0.00  0.00    -0.081 C 
ATOM     29  C   UNL     1      -7.474  13.710  16.957  0.00  0.00    -0.104 C 
ATOM     30  C   UNL     1      -6.324  14.481  17.430  0.00  0.00    +0.106 C 
ENDBRANCH  27  28
ENDBRANCH   5  27
TORSDOF 6
ENDMDL
MODEL 8
REMARK VINA RESULT:      -6.2     11.355     14.917
REMARK  Name = 51138172
REMARK  9 active torsions:
REMARK  status: ('A' for Active; 'I' for Inactive)
REMARK    1  A    between atoms: O_2  and  C_20
REMARK    2  A    between atoms: N_5  and  C_27
REMARK    3  A    between atoms: C_6  and  C_12
REMARK    4  A    between atoms: C_7  and  C_13
REMARK    5  A    between atoms: C_12  and  C_17
REMARK    6  A    between atoms: C_17  and  C_25
REMARK    7  A    between atoms: C_17  and  C_26
REMARK    8  A    between atoms: C_27  and  C_28
REMARK    9  A    between atoms: C_29  and  C_30
REMARK                            x       y       z     vdW  Elec       q    Type
REMARK                         _______ _______ _______ _____ _____    ______ ____
ROOT
ATOM      3  N   UNL     1      13.554   6.596   3.205  0.00  0.00    -0.299 NA
ATOM      5  N   UNL     1      10.005   7.508   6.680  0.00  0.00    -0.335 N 
ATOM      6  C   UNL     1      12.349   6.970   2.454  0.00  0.00    +0.085 C 
ATOM      7  C   UNL     1      13.993   7.583   4.180  0.00  0.00    +0.145 C 
ATOM      8  C   UNL     1      13.492   7.246   5.584  0.00  0.00    +0.065 C 
ATOM      9  C   UNL     1      11.067   7.121   3.278  0.00  0.00    -0.021 A 
ATOM     10  C   UNL     1      11.014   7.264   4.695  0.00  0.00    +0.008 A 
ATOM     11  C   UNL     1      12.009   7.324   5.731  0.00  0.00    -0.020 A 
ATOM     14  C   UNL     1       9.774   7.408   5.328  0.00  0.00    +0.050 A 
ATOM     21  C   UNL     1      11.344   7.465   6.933  0.00  0.00    +0.091 A 
ATOM     22  C   UNL     1       9.826   7.206   2.595  0.00  0.00    +0.006 A 
ATOM     23  C   UNL     1       8.559   7.441   4.641  0.00  0.00    +0.026 A 
ATOM     24  C   UNL     1       8.608   7.351   3.255  0.00  0.00    +0.002 A 
ATOM     31  H   UNL     1      13.446   5.677   3.633  0.00  0.00    +0.123 HD
ENDROOT
BRANCH   7  13
ATOM      1  O   UNL     1      16.040   6.427   3.966  0.00  0.00    -0.274 OA
ATOM      4  N   UNL     1      16.173   8.709   4.382  0.00  0.00    -0.300 N 
ATOM     13  C   UNL     1      15.490   7.513   4.165  0.00  0.00    +0.233 C 
ATOM     15  C   UNL     1      15.545  10.016   4.621  0.00  0.00    +0.110 C 
ATOM     16  C   UNL     1      17.638   8.731   4.335  0.00  0.00    +0.110 C 
ATOM     18  C   UNL     1      16.086  10.650   5.898  0.00  0.00    +0.050 C 
ATOM     19  C   UNL     1      18.214   9.341   5.609  0.00  0.00    +0.050 C 
ATOM     20  C   UNL     1      17.613  10.719   5.882  0.00  0.00    +0.118 C 
BRANCH  20   2
ATOM      2  O   UNL     1      18.063  11.202   7.142  0.00  0.00    -0.392 OA
ATOM     32  H   UNL     1      18.428  10.444   7.632  0.00  0.00    +0.210 HD
ENDBRANCH  20   2
ENDBRANCH   7  13
BRANCH   6  12
ATOM     12  C   UNL     1      12.223   5.895   1.359  0.00  0.00    +0.026 C 
BRANCH  12  17
ATOM     17  C   UNL     1      12.625   4.499   1.842  0.00  0.00    -0.015 C 
ATOM     25  C   UNL     1      13.305   3.744   0.696  0.00  0.00    +0.007 C 
ATOM     26  C   UNL     1      11.437   3.688   2.360  0.00  0.00    +0.007 C 
ENDBRANCH  12  17
ENDBRANCH   6  12
BRANCH   5  27
ATOM     27  C   UNL     1       8.989   7.660   7.699  0.00  0.00    +0.210 C 
BRANCH  27  28
ATOM     28  C   UNL     1       8.966   6.524   8.629  0.00  0.00    -0.081 C 
ATOM     29  C   UNL     1       8.948   5.594   9.389  0.00  0.00    -0.104 C 
ATOM     30  C   UNL     1       8.925   4.463  10.315  0.00  0.00    +0.106 C 
ENDBRANCH  27  28
ENDBRANCH   5  27
TORSDOF 6
ENDMDL
MODEL 9
REMARK VINA RESULT:      -6.1     27.971     32.195
REMARK  Name = 51138172
REMARK  9 active torsions:
REMARK  status: ('A' for Active; 'I' for Inactive)
REMARK    1  A    between atoms: O_2  and  C_20
REMARK    2  A    between atoms: N_5  and  C_27
REMARK    3  A    between atoms: C_6  and  C_12
REMARK    4  A    between atoms: C_7  and  C_13
REMARK    5  A    between atoms: C_12  and  C_17
REMARK    6  A    between atoms: C_17  and  C_25
REMARK    7  A    between atoms: C_17  and  C_26
REMARK    8  A    between atoms: C_27  and  C_28
REMARK    9  A    between atoms: C_29  and  C_30
REMARK                            x       y       z     vdW  Elec       q    Type
REMARK                         _______ _______ _______ _____ _____    ______ ____
ROOT
ATOM      3  N   UNL     1     -15.610   7.004  33.450  0.00  0.00    -0.299 NA
ATOM      5  N   UNL     1     -12.414  10.149  31.128  0.00  0.00    -0.335 N 
ATOM      6  C   UNL     1     -16.450   7.912  32.659  0.00  0.00    +0.085 C 
ATOM      7  C   UNL     1     -14.604   6.284  32.683  0.00  0.00    +0.145 C 
ATOM      8  C   UNL     1     -13.243   6.973  32.758  0.00  0.00    +0.065 C 
ATOM      9  C   UNL     1     -15.725   9.088  31.997  0.00  0.00    -0.021 A 
ATOM     10  C   UNL     1     -14.316   9.180  31.803  0.00  0.00    +0.008 A 
ATOM     11  C   UNL     1     -13.208   8.314  32.104  0.00  0.00    -0.020 A 
ATOM     14  C   UNL     1     -13.778  10.306  31.170  0.00  0.00    +0.050 A 
ATOM     21  C   UNL     1     -12.060   8.953  31.681  0.00  0.00    +0.091 A 
ATOM     22  C   UNL     1     -16.500  10.146  31.457  0.00  0.00    +0.006 A 
ATOM     23  C   UNL     1     -14.555  11.360  30.687  0.00  0.00    +0.026 A 
ATOM     24  C   UNL     1     -15.934  11.254  30.830  0.00  0.00    +0.002 A 
ATOM     31  H   UNL     1     -15.192   7.491  34.242  0.00  0.00    +0.123 HD
ENDROOT
BRANCH   7  13
ATOM      1  O   UNL     1     -14.202   4.861  34.523  0.00  0.00    -0.274 OA
ATOM      4  N   UNL     1     -14.772   3.833  32.519  0.00  0.00    -0.300 N 
ATOM     13  C   UNL     1     -14.507   4.936  33.330  0.00  0.00    +0.233 C 
ATOM     15  C   UNL     1     -15.137   3.892  31.097  0.00  0.00    +0.110 C 
ATOM     16  C   UNL     1     -14.743   2.484  33.090  0.00  0.00    +0.110 C 
ATOM     18  C   UNL     1     -14.214   3.007  30.265  0.00  0.00    +0.050 C 
ATOM     19  C   UNL     1     -13.812   1.576  32.294  0.00  0.00    +0.050 C 
ATOM     20  C   UNL     1     -14.174   1.579  30.808  0.00  0.00    +0.118 C 
BRANCH  20   2
ATOM      2  O   UNL     1     -13.209   0.836  30.074  0.00  0.00    -0.392 OA
ATOM     32  H   UNL     1     -13.687   0.167  29.555  0.00  0.00    +0.210 HD
ENDBRANCH  20   2
ENDBRANCH   7  13
BRANCH   6  12
ATOM     12  C   UNL     1     -17.552   8.371  33.632  0.00  0.00    +0.026 C 
BRANCH  12  17
ATOM     17  C   UNL     1     -18.913   7.732  33.339  0.00  0.00    -0.015 C 
ATOM     25  C   UNL     1     -19.116   6.529  34.263  0.00  0.00    +0.007 C 
ATOM     26  C   UNL     1     -19.058   7.294  31.881  0.00  0.00    +0.007 C 
ENDBRANCH  12  17
ENDBRANCH   6  12
BRANCH   5  27
ATOM     27  C   UNL     1     -11.474  11.093  30.563  0.00  0.00    +0.210 C 
BRANCH  27  28
ATOM     28  C   UNL     1     -11.241  10.852  29.134  0.00  0.00    -0.081 C 
ATOM     29  C   UNL     1     -11.051  10.654  27.965  0.00  0.00    -0.104 C 
ATOM     30  C   UNL     1     -10.819  10.414  26.541  0.00  0.00    +0.106 C 
ENDBRANCH  27  28
ENDBRANCH   5  27
TORSDOF 6
ENDMDL
MODEL 10
REMARK VINA RESULT:      -6.0      3.849      7.502
REMARK  Name = 51138172
REMARK  9 active torsions:
REMARK  status: ('A' for Active; 'I' for Inactive)
REMARK    1  A    between atoms: O_2  and  C_20
REMARK    2  A    between atoms: N_5  and  C_27
REMARK    3  A    between atoms: C_6  and  C_12
REMARK    4  A    between atoms: C_7  and  C_13
REMARK    5  A    between atoms: C_12  and  C_17
REMARK    6  A    between atoms: C_17  and  C_25
REMARK    7  A    between atoms: C_17  and  C_26
REMARK    8  A    between atoms: C_27  and  C_28
REMARK    9  A    between atoms: C_29  and  C_30
REMARK                            x       y       z     vdW  Elec       q    Type
REMARK                         _______ _______ _______ _____ _____    ______ ____
ROOT
ATOM      3  N   UNL     1      19.117   8.791  22.409  0.00  0.00    -0.299 NA
ATOM      5  N   UNL     1      14.720   8.799  19.926  0.00  0.00    -0.335 N 
ATOM      6  C   UNL     1      19.237   7.745  21.385  0.00  0.00    +0.085 C 
ATOM      7  C   UNL     1      18.790  10.111  21.893  0.00  0.00    +0.145 C 
ATOM      8  C   UNL     1      17.292  10.396  21.991  0.00  0.00    +0.065 C 
ATOM      9  C   UNL     1      17.957   7.419  20.608  0.00  0.00    -0.021 A 
ATOM     10  C   UNL     1      16.797   8.246  20.553  0.00  0.00    +0.008 A 
ATOM     11  C   UNL     1      16.453   9.523  21.119  0.00  0.00    -0.020 A 
ATOM     14  C   UNL     1      15.695   7.840  19.793  0.00  0.00    +0.050 A 
ATOM     21  C   UNL     1      15.166   9.818  20.715  0.00  0.00    +0.091 A 
ATOM     22  C   UNL     1      17.927   6.247  19.810  0.00  0.00    +0.006 A 
ATOM     23  C   UNL     1      15.667   6.657  19.051  0.00  0.00    +0.026 A 
ATOM     24  C   UNL     1      16.813   5.871  19.063  0.00  0.00    +0.002 A 
ATOM     31  H   UNL     1      18.467   8.509  23.143  0.00  0.00    +0.123 HD
ENDROOT
BRANCH   7  13
ATOM      1  O   UNL     1      19.022  11.421  23.843  0.00  0.00    -0.274 OA
ATOM      4  N   UNL     1      20.768  11.516  22.313  0.00  0.00    -0.300 N 
ATOM     13  C   UNL     1      19.529  11.072  22.774  0.00  0.00    +0.233 C 
ATOM     15  C   UNL     1      21.396  11.117  21.046  0.00  0.00    +0.110 C 
ATOM     16  C   UNL     1      21.572  12.420  23.139  0.00  0.00    +0.110 C 
ATOM     18  C   UNL     1      21.786  12.343  20.227  0.00  0.00    +0.050 C 
ATOM     19  C   UNL     1      21.963  13.669  22.357  0.00  0.00    +0.050 C 
ATOM     20  C   UNL     1      22.651  13.304  21.041  0.00  0.00    +0.118 C 
BRANCH  20   2
ATOM      2  O   UNL     1      22.880  14.480  20.274  0.00  0.00    -0.392 OA
ATOM     32  H   UNL     1      23.488  14.245  19.552  0.00  0.00    +0.210 HD
ENDBRANCH  20   2
ENDBRANCH   7  13
BRANCH   6  12
ATOM     12  C   UNL     1      19.795   6.524  22.139  0.00  0.00    +0.026 C 
BRANCH  12  17
ATOM     17  C   UNL     1      21.152   6.060  21.602  0.00  0.00    -0.015 C 
ATOM     25  C   UNL     1      21.655   7.064  20.562  0.00  0.00    +0.007 C 
ATOM     26  C   UNL     1      21.097   4.662  20.986  0.00  0.00    +0.007 C 
ENDBRANCH  12  17
ENDBRANCH   6  12
BRANCH   5  27
ATOM     27  C   UNL     1      13.412   8.762  19.307  0.00  0.00    +0.210 C 
BRANCH  27  28
ATOM     28  C   UNL     1      12.382   8.259  20.224  0.00  0.00    -0.081 C 
ATOM     29  C   UNL     1      11.538   7.848  20.973  0.00  0.00    -0.104 C 
ATOM     30  C   UNL     1      10.512   7.346  21.886  0.00  0.00    +0.106 C 
ENDBRANCH  27  28
ENDBRANCH   5  27
TORSDOF 6
ENDMDL
