MODEL 1
REMARK VINA RESULT:      -6.8      0.000      0.000
REMARK  Name = 38026990
REMARK  13 active torsions:
REMARK  status: ('A' for Active; 'I' for Inactive)
REMARK    1  A    between atoms: S_1  and  N_7
REMARK    2  A    between atoms: S_1  and  C_25
REMARK    3  A    between atoms: N_7  and  C_17
REMARK    4  A    between atoms: N_8  and  C_23
REMARK    5  A    between atoms: N_9  and  C_24
REMARK    6  A    between atoms: C_10  and  C_14
REMARK    7  A    between atoms: C_11  and  C_17
REMARK    8  A    between atoms: C_13  and  C_18
REMARK    9  A    between atoms: C_14  and  C_19
REMARK   10  A    between atoms: C_14  and  C_20
REMARK   11  A    between atoms: C_15  and  C_21
REMARK   12  A    between atoms: C_18  and  C_22
REMARK   13  A    between atoms: C_23  and  C_24
REMARK                            x       y       z     vdW  Elec       q    Type
REMARK                         _______ _______ _______ _____ _____    ______ ____
ROOT
ATOM     10  C   UNL     1      16.754   8.462  21.202  0.00  0.00    +0.000 C 
ATOM     11  C   UNL     1      16.168   7.503  20.134  0.00  0.00    +0.030 C 
ATOM     12  C   UNL     1      18.261   8.655  20.979  0.00  0.00    +0.012 C 
ATOM     13  C   UNL     1      19.035   7.325  21.041  0.00  0.00    +0.023 C 
ATOM     15  C   UNL     1      18.363   6.244  20.219  0.00  0.00    -0.073 C 
ATOM     16  C   UNL     1      17.086   6.348  19.812  0.00  0.00    -0.023 C 
ATOM     21  C   UNL     1      19.208   5.060  19.837  0.00  0.00    +0.039 C 
ENDROOT
BRANCH  10  14
ATOM     14  C   UNL     1      16.050   9.822  21.192  0.00  0.00    -0.013 C 
ATOM     19  C   UNL     1      17.040  10.933  20.855  0.00  0.00    +0.007 C 
ATOM     20  C   UNL     1      15.380  10.085  22.536  0.00  0.00    +0.007 C 
ENDBRANCH  10  14
BRANCH  11  17
ATOM     17  C   UNL     1      14.800   6.965  20.566  0.00  0.00    +0.113 C 
BRANCH  17   7
ATOM      7  N   UNL     1      14.021   6.616  19.369  0.00  0.00    -0.189 NA
ATOM     35  H   UNL     1      14.552   6.335  18.535  0.00  0.00    +0.148 HD
BRANCH   7   1
ATOM      1  S   UNL     1      12.469   7.279  19.132  0.00  0.00    +0.058 S 
ATOM      4  O   UNL     1      11.601   6.866  20.219  0.00  0.00    -0.153 OA
ATOM      5  O   UNL     1      12.066   7.065  17.755  0.00  0.00    -0.153 OA
BRANCH   1  25
ATOM      2  F   UNL     1      13.521  13.049  19.742  0.00  0.00    -0.205 F 
ATOM     25  C   UNL     1      12.785   9.009  19.314  0.00  0.00    +0.105 A 
ATOM     30  C   UNL     1      12.258   9.702  20.404  0.00  0.00    +0.031 A 
ATOM     31  C   UNL     1      13.558   9.680  18.368  0.00  0.00    +0.031 A 
ATOM     32  C   UNL     1      12.508  11.067  20.549  0.00  0.00    +0.040 A 
ATOM     33  C   UNL     1      13.807  11.046  18.512  0.00  0.00    +0.040 A 
ATOM     34  C   UNL     1      13.282  11.739  19.603  0.00  0.00    +0.124 A 
ENDBRANCH   1  25
ENDBRANCH   7   1
ENDBRANCH  17   7
ENDBRANCH  11  17
BRANCH  13  18
ATOM     18  C   UNL     1      19.232   6.868  22.491  0.00  0.00    +0.103 C 
BRANCH  18  22
ATOM      3  O   UNL     1      21.008   5.750  23.698  0.00  0.00    -0.276 OA
ATOM      8  N   UNL     1      21.532   7.093  21.873  0.00  0.00    -0.314 N 
ATOM     22  C   UNL     1      20.668   6.491  22.778  0.00  0.00    +0.214 C 
ATOM     36  H   UNL     1      21.156   7.691  21.144  0.00  0.00    +0.149 HD
BRANCH   8  23
ATOM     23  C   UNL     1      22.964   6.912  21.909  0.00  0.00    +0.119 C 
BRANCH  23  24
ATOM     24  C   UNL     1      23.467   6.242  20.639  0.00  0.00    +0.103 C 
BRANCH  24   9
ATOM      6  O   UNL     1      24.368   2.158  20.284  0.00  0.00    -0.377 OA
ATOM      9  N   UNL     1      23.962   4.899  20.935  0.00  0.00    -0.297 NA
ATOM     26  C   UNL     1      24.969   4.484  19.949  0.00  0.00    +0.112 C 
ATOM     27  C   UNL     1      22.857   3.930  20.964  0.00  0.00    +0.112 C 
ATOM     28  C   UNL     1      25.461   3.076  20.271  0.00  0.00    +0.175 C 
ATOM     29  C   UNL     1      23.399   2.535  21.263  0.00  0.00    +0.175 C 
ENDBRANCH  24   9
ENDBRANCH  23  24
ENDBRANCH   8  23
ENDBRANCH  18  22
ENDBRANCH  13  18
TORSDOF 10
ENDMDL
MODEL 2
REMARK VINA RESULT:      -6.8      2.677      4.705
REMARK  Name = 38026990
REMARK  13 active torsions:
REMARK  status: ('A' for Active; 'I' for Inactive)
REMARK    1  A    between atoms: S_1  and  N_7
REMARK    2  A    between atoms: S_1  and  C_25
REMARK    3  A    between atoms: N_7  and  C_17
REMARK    4  A    between atoms: N_8  and  C_23
REMARK    5  A    between atoms: N_9  and  C_24
REMARK    6  A    between atoms: C_10  and  C_14
REMARK    7  A    between atoms: C_11  and  C_17
REMARK    8  A    between atoms: C_13  and  C_18
REMARK    9  A    between atoms: C_14  and  C_19
REMARK   10  A    between atoms: C_14  and  C_20
REMARK   11  A    between atoms: C_15  and  C_21
REMARK   12  A    between atoms: C_18  and  C_22
REMARK   13  A    between atoms: C_23  and  C_24
REMARK                            x       y       z     vdW  Elec       q    Type
REMARK                         _______ _______ _______ _____ _____    ______ ____
ROOT
ATOM     10  C   UNL     1      13.280  11.182  22.965  0.00  0.00    +0.000 C 
ATOM     11  C   UNL     1      12.388  11.305  21.704  0.00  0.00    +0.030 C 
ATOM     12  C   UNL     1      14.662  11.801  22.706  0.00  0.00    +0.012 C 
ATOM     13  C   UNL     1      15.389  11.130  21.526  0.00  0.00    +0.023 C 
ATOM     15  C   UNL     1      14.483  10.971  20.323  0.00  0.00    -0.073 C 
ATOM     16  C   UNL     1      13.145  11.066  20.419  0.00  0.00    -0.023 C 
ATOM     21  C   UNL     1      15.153  10.745  18.996  0.00  0.00    +0.039 C 
ENDROOT
BRANCH  10  14
ATOM     14  C   UNL     1      12.635  11.847  24.185  0.00  0.00    -0.013 C 
ATOM     19  C   UNL     1      12.142  13.247  23.831  0.00  0.00    +0.007 C 
ATOM     20  C   UNL     1      13.621  11.899  25.347  0.00  0.00    +0.007 C 
ENDBRANCH  10  14
BRANCH  11  17
ATOM     17  C   UNL     1      11.192  10.349  21.778  0.00  0.00    +0.113 C 
BRANCH  17   7
ATOM      7  N   UNL     1      11.686   8.971  21.918  0.00  0.00    -0.189 NA
ATOM     35  H   UNL     1      12.529   8.836  22.489  0.00  0.00    +0.148 HD
BRANCH   7   1
ATOM      1  S   UNL     1      11.352   7.814  20.712  0.00  0.00    +0.058 S 
ATOM      4  O   UNL     1      10.649   8.454  19.616  0.00  0.00    -0.153 OA
ATOM      5  O   UNL     1      10.804   6.623  21.335  0.00  0.00    -0.153 OA
BRANCH   1  25
ATOM      2  F   UNL     1      16.770   6.437  18.834  0.00  0.00    -0.205 F 
ATOM     25  C   UNL     1      12.977   7.401  20.150  0.00  0.00    +0.105 A 
ATOM     30  C   UNL     1      13.320   7.594  18.812  0.00  0.00    +0.031 A 
ATOM     31  C   UNL     1      13.913   6.881  21.043  0.00  0.00    +0.031 A 
ATOM     32  C   UNL     1      14.602   7.269  18.368  0.00  0.00    +0.040 A 
ATOM     33  C   UNL     1      15.195   6.556  20.598  0.00  0.00    +0.040 A 
ATOM     34  C   UNL     1      15.539   6.750  19.260  0.00  0.00    +0.124 A 
ENDBRANCH   1  25
ENDBRANCH   7   1
ENDBRANCH  17   7
ENDBRANCH  11  17
BRANCH  13  18
ATOM     18  C   UNL     1      15.990   9.782  21.943  0.00  0.00    +0.103 C 
BRANCH  18  22
ATOM      3  O   UNL     1      18.078  10.558  20.997  0.00  0.00    -0.276 OA
ATOM      8  N   UNL     1      17.995   8.483  22.041  0.00  0.00    -0.314 N 
ATOM     22  C   UNL     1      17.458   9.683  21.596  0.00  0.00    +0.214 C 
ATOM     36  H   UNL     1      17.402   7.819  22.529  0.00  0.00    +0.149 HD
BRANCH   8  23
ATOM     23  C   UNL     1      19.379   8.117  21.846  0.00  0.00    +0.119 C 
BRANCH  23  24
ATOM     24  C   UNL     1      19.883   7.244  22.985  0.00  0.00    +0.103 C 
BRANCH  24   9
ATOM      6  O   UNL     1      22.149   4.331  20.988  0.00  0.00    -0.377 OA
ATOM      9  N   UNL     1      20.345   5.956  22.472  0.00  0.00    -0.297 NA
ATOM     26  C   UNL     1      21.692   5.647  22.974  0.00  0.00    +0.112 C 
ATOM     27  C   UNL     1      20.341   5.948  21.002  0.00  0.00    +0.112 C 
ATOM     28  C   UNL     1      22.157   4.305  22.415  0.00  0.00    +0.175 C 
ATOM     29  C   UNL     1      20.838   4.598  20.492  0.00  0.00    +0.175 C 
ENDBRANCH  24   9
ENDBRANCH  23  24
ENDBRANCH   8  23
ENDBRANCH  18  22
ENDBRANCH  13  18
TORSDOF 10
ENDMDL
MODEL 3
REMARK VINA RESULT:      -6.6      1.572      2.151
REMARK  Name = 38026990
REMARK  13 active torsions:
REMARK  status: ('A' for Active; 'I' for Inactive)
REMARK    1  A    between atoms: S_1  and  N_7
REMARK    2  A    between atoms: S_1  and  C_25
REMARK    3  A    between atoms: N_7  and  C_17
REMARK    4  A    between atoms: N_8  and  C_23
REMARK    5  A    between atoms: N_9  and  C_24
REMARK    6  A    between atoms: C_10  and  C_14
REMARK    7  A    between atoms: C_11  and  C_17
REMARK    8  A    between atoms: C_13  and  C_18
REMARK    9  A    between atoms: C_14  and  C_19
REMARK   10  A    between atoms: C_14  and  C_20
REMARK   11  A    between atoms: C_15  and  C_21
REMARK   12  A    between atoms: C_18  and  C_22
REMARK   13  A    between atoms: C_23  and  C_24
REMARK                            x       y       z     vdW  Elec       q    Type
REMARK                         _______ _______ _______ _____ _____    ______ ____
ROOT
ATOM     10  C   UNL     1      16.283   9.139  21.621  0.00  0.00    +0.000 C 
ATOM     11  C   UNL     1      15.458   8.033  20.915  0.00  0.00    +0.030 C 
ATOM     12  C   UNL     1      17.614   9.364  20.888  0.00  0.00    +0.012 C 
ATOM     13  C   UNL     1      18.468   8.085  20.823  0.00  0.00    +0.023 C 
ATOM     15  C   UNL     1      17.652   6.885  20.388  0.00  0.00    -0.073 C 
ATOM     16  C   UNL     1      16.308   6.885  20.423  0.00  0.00    -0.023 C 
ATOM     21  C   UNL     1      18.416   5.699  19.868  0.00  0.00    +0.039 C 
ENDROOT
BRANCH  10  14
ATOM     14  C   UNL     1      15.509  10.457  21.709  0.00  0.00    -0.013 C 
ATOM     19  C   UNL     1      16.398  11.626  21.295  0.00  0.00    +0.007 C 
ATOM     20  C   UNL     1      14.967  10.664  23.119  0.00  0.00    +0.007 C 
ENDBRANCH  10  14
BRANCH  11  17
ATOM     17  C   UNL     1      14.354   7.496  21.832  0.00  0.00    +0.113 C 
BRANCH  17   7
ATOM      7  N   UNL     1      13.605   6.449  21.121  0.00  0.00    -0.189 NA
ATOM     35  H   UNL     1      14.157   5.733  20.634  0.00  0.00    +0.148 HD
BRANCH   7   1
ATOM      1  S   UNL     1      12.031   6.761  20.547  0.00  0.00    +0.058 S 
ATOM      4  O   UNL     1      11.094   5.878  21.216  0.00  0.00    -0.153 OA
ATOM      5  O   UNL     1      12.059   6.833  19.098  0.00  0.00    -0.153 OA
BRANCH   1  25
ATOM      2  F   UNL     1      11.094  12.237  22.524  0.00  0.00    -0.205 F 
ATOM     25  C   UNL     1      11.750   8.403  21.140  0.00  0.00    +0.105 A 
ATOM     30  C   UNL     1      12.144   9.498  20.372  0.00  0.00    +0.031 A 
ATOM     31  C   UNL     1      11.135   8.602  22.376  0.00  0.00    +0.031 A 
ATOM     32  C   UNL     1      11.922  10.794  20.839  0.00  0.00    +0.040 A 
ATOM     33  C   UNL     1      10.913   9.898  22.844  0.00  0.00    +0.040 A 
ATOM     34  C   UNL     1      11.307  10.994  22.075  0.00  0.00    +0.124 A 
ENDBRANCH   1  25
ENDBRANCH   7   1
ENDBRANCH  17   7
ENDBRANCH  11  17
BRANCH  13  18
ATOM     18  C   UNL     1      19.166   7.818  22.161  0.00  0.00    +0.103 C 
BRANCH  18  22
ATOM      3  O   UNL     1      21.410   7.739  21.260  0.00  0.00    -0.276 OA
ATOM      8  N   UNL     1      20.700   6.067  22.711  0.00  0.00    -0.314 N 
ATOM     22  C   UNL     1      20.548   7.234  21.975  0.00  0.00    +0.214 C 
ATOM     36  H   UNL     1      19.928   5.727  23.276  0.00  0.00    +0.149 HD
BRANCH   8  23
ATOM     23  C   UNL     1      21.920   5.294  22.722  0.00  0.00    +0.119 C 
BRANCH  23  24
ATOM     24  C   UNL     1      21.792   4.052  21.853  0.00  0.00    +0.103 C 
BRANCH  24   9
ATOM      6  O   UNL     1      25.681   3.736  20.307  0.00  0.00    -0.377 OA
ATOM      9  N   UNL     1      22.911   3.971  20.916  0.00  0.00    -0.297 NA
ATOM     26  C   UNL     1      23.625   2.695  21.065  0.00  0.00    +0.112 C 
ATOM     27  C   UNL     1      23.839   5.093  21.112  0.00  0.00    +0.112 C 
ATOM     28  C   UNL     1      24.795   2.639  20.086  0.00  0.00    +0.175 C 
ATOM     29  C   UNL     1      25.003   4.980  20.132  0.00  0.00    +0.175 C 
ENDBRANCH  24   9
ENDBRANCH  23  24
ENDBRANCH   8  23
ENDBRANCH  18  22
ENDBRANCH  13  18
TORSDOF 10
ENDMDL
MODEL 4
REMARK VINA RESULT:      -6.5     30.394     34.659
REMARK  Name = 38026990
REMARK  13 active torsions:
REMARK  status: ('A' for Active; 'I' for Inactive)
REMARK    1  A    between atoms: S_1  and  N_7
REMARK    2  A    between atoms: S_1  and  C_25
REMARK    3  A    between atoms: N_7  and  C_17
REMARK    4  A    between atoms: N_8  and  C_23
REMARK    5  A    between atoms: N_9  and  C_24
REMARK    6  A    between atoms: C_10  and  C_14
REMARK    7  A    between atoms: C_11  and  C_17
REMARK    8  A    between atoms: C_13  and  C_18
REMARK    9  A    between atoms: C_14  and  C_19
REMARK   10  A    between atoms: C_14  and  C_20
REMARK   11  A    between atoms: C_15  and  C_21
REMARK   12  A    between atoms: C_18  and  C_22
REMARK   13  A    between atoms: C_23  and  C_24
REMARK                            x       y       z     vdW  Elec       q    Type
REMARK                         _______ _______ _______ _____ _____    ______ ____
ROOT
ATOM     10  C   UNL     1     -17.039   2.993  28.147  0.00  0.00    +0.000 C 
ATOM     11  C   UNL     1     -17.839   1.666  28.146  0.00  0.00    +0.030 C 
ATOM     12  C   UNL     1     -17.418   3.848  26.929  0.00  0.00    +0.012 C 
ATOM     13  C   UNL     1     -17.152   3.119  25.599  0.00  0.00    +0.023 C 
ATOM     15  C   UNL     1     -17.682   1.700  25.620  0.00  0.00    -0.073 C 
ATOM     16  C   UNL     1     -17.996   1.072  26.766  0.00  0.00    -0.023 C 
ATOM     21  C   UNL     1     -17.884   1.033  24.287  0.00  0.00    +0.039 C 
ENDROOT
BRANCH  10  14
ATOM     14  C   UNL     1     -17.265   3.793  29.434  0.00  0.00    -0.013 C 
ATOM     19  C   UNL     1     -18.606   4.518  29.381  0.00  0.00    +0.007 C 
ATOM     20  C   UNL     1     -16.125   4.781  29.654  0.00  0.00    +0.007 C 
ENDBRANCH  10  14
BRANCH  11  17
ATOM     17  C   UNL     1     -17.197   0.632  29.078  0.00  0.00    +0.113 C 
BRANCH  17   7
ATOM      7  N   UNL     1     -15.754   0.569  28.805  0.00  0.00    -0.189 NA
ATOM     35  H   UNL     1     -15.469   0.544  27.818  0.00  0.00    +0.148 HD
BRANCH   7   1
ATOM      1  S   UNL     1     -14.693  -0.110  29.953  0.00  0.00    +0.058 S 
ATOM      4  O   UNL     1     -13.453  -0.481  29.297  0.00  0.00    -0.153 OA
ATOM      5  O   UNL     1     -15.416  -1.083  30.751  0.00  0.00    -0.153 OA
BRANCH   1  25
ATOM      2  F   UNL     1     -13.585   4.507  33.448  0.00  0.00    -0.205 F 
ATOM     25  C   UNL     1     -14.361   1.274  31.001  0.00  0.00    +0.105 A 
ATOM     30  C   UNL     1     -13.497   2.281  30.572  0.00  0.00    +0.031 A 
ATOM     31  C   UNL     1     -14.962   1.358  32.256  0.00  0.00    +0.031 A 
ATOM     32  C   UNL     1     -13.235   3.373  31.399  0.00  0.00    +0.040 A 
ATOM     33  C   UNL     1     -14.701   2.451  33.084  0.00  0.00    +0.040 A 
ATOM     34  C   UNL     1     -13.837   3.459  32.655  0.00  0.00    +0.124 A 
ENDBRANCH   1  25
ENDBRANCH   7   1
ENDBRANCH  17   7
ENDBRANCH  11  17
BRANCH  13  18
ATOM     18  C   UNL     1     -15.661   3.143  25.244  0.00  0.00    +0.103 C 
BRANCH  18  22
ATOM      3  O   UNL     1     -16.176   3.512  22.908  0.00  0.00    -0.276 OA
ATOM      8  N   UNL     1     -14.231   4.414  23.808  0.00  0.00    -0.314 N 
ATOM     22  C   UNL     1     -15.416   3.693  23.857  0.00  0.00    +0.214 C 
ATOM     36  H   UNL     1     -13.668   4.509  24.648  0.00  0.00    +0.149 HD
BRANCH   8  23
ATOM     23  C   UNL     1     -13.744   5.051  22.607  0.00  0.00    +0.119 C 
BRANCH  23  24
ATOM     24  C   UNL     1     -14.308   6.456  22.462  0.00  0.00    +0.103 C 
BRANCH  24   9
ATOM      6  O   UNL     1     -12.359   7.430  18.875  0.00  0.00    -0.377 OA
ATOM      9  N   UNL     1     -13.571   7.196  21.439  0.00  0.00    -0.297 NA
ATOM     26  C   UNL     1     -14.377   7.343  20.219  0.00  0.00    +0.112 C 
ATOM     27  C   UNL     1     -12.300   6.528  21.125  0.00  0.00    +0.112 C 
ATOM     28  C   UNL     1     -13.582   8.106  19.162  0.00  0.00    +0.175 C 
ATOM     29  C   UNL     1     -11.556   7.311  20.049  0.00  0.00    +0.175 C 
ENDBRANCH  24   9
ENDBRANCH  23  24
ENDBRANCH   8  23
ENDBRANCH  18  22
ENDBRANCH  13  18
TORSDOF 10
ENDMDL
MODEL 5
REMARK VINA RESULT:      -6.4      3.689      5.310
REMARK  Name = 38026990
REMARK  13 active torsions:
REMARK  status: ('A' for Active; 'I' for Inactive)
REMARK    1  A    between atoms: S_1  and  N_7
REMARK    2  A    between atoms: S_1  and  C_25
REMARK    3  A    between atoms: N_7  and  C_17
REMARK    4  A    between atoms: N_8  and  C_23
REMARK    5  A    between atoms: N_9  and  C_24
REMARK    6  A    between atoms: C_10  and  C_14
REMARK    7  A    between atoms: C_11  and  C_17
REMARK    8  A    between atoms: C_13  and  C_18
REMARK    9  A    between atoms: C_14  and  C_19
REMARK   10  A    between atoms: C_14  and  C_20
REMARK   11  A    between atoms: C_15  and  C_21
REMARK   12  A    between atoms: C_18  and  C_22
REMARK   13  A    between atoms: C_23  and  C_24
REMARK                            x       y       z     vdW  Elec       q    Type
REMARK                         _______ _______ _______ _____ _____    ______ ____
ROOT
ATOM     10  C   UNL     1      17.067   7.640  20.722  0.00  0.00    +0.000 C 
ATOM     11  C   UNL     1      15.713   7.383  21.430  0.00  0.00    +0.030 C 
ATOM     12  C   UNL     1      17.918   8.627  21.534  0.00  0.00    +0.012 C 
ATOM     13  C   UNL     1      17.209   9.979  21.736  0.00  0.00    +0.023 C 
ATOM     15  C   UNL     1      15.772   9.800  22.180  0.00  0.00    -0.073 C 
ATOM     16  C   UNL     1      15.124   8.630  22.048  0.00  0.00    -0.023 C 
ATOM     21  C   UNL     1      15.109  10.988  22.822  0.00  0.00    +0.039 C 
ENDROOT
BRANCH  10  14
ATOM     14  C   UNL     1      17.849   6.341  20.502  0.00  0.00    -0.013 C 
ATOM     19  C   UNL     1      19.330   6.552  20.802  0.00  0.00    +0.007 C 
ATOM     20  C   UNL     1      17.654   5.837  19.076  0.00  0.00    +0.007 C 
ENDBRANCH  10  14
BRANCH  11  17
ATOM     17  C   UNL     1      14.696   6.760  20.468  0.00  0.00    +0.113 C 
BRANCH  17   7
ATOM      7  N   UNL     1      13.495   6.373  21.223  0.00  0.00    -0.189 NA
ATOM     35  H   UNL     1      13.583   5.568  21.855  0.00  0.00    +0.148 HD
BRANCH   7   1
ATOM      1  S   UNL     1      11.945   6.732  20.612  0.00  0.00    +0.058 S 
ATOM      4  O   UNL     1      10.967   5.876  21.255  0.00  0.00    -0.153 OA
ATOM      5  O   UNL     1      12.011   6.806  19.164  0.00  0.00    -0.153 OA
BRANCH   1  25
ATOM      2  F   UNL     1      11.121  12.229  22.582  0.00  0.00    -0.205 F 
ATOM     25  C   UNL     1      11.698   8.380  21.202  0.00  0.00    +0.105 A 
ATOM     30  C   UNL     1      11.128   8.593  22.457  0.00  0.00    +0.031 A 
ATOM     31  C   UNL     1      12.072   9.467  20.412  0.00  0.00    +0.031 A 
ATOM     32  C   UNL     1      10.934   9.893  22.923  0.00  0.00    +0.040 A 
ATOM     33  C   UNL     1      11.877  10.768  20.879  0.00  0.00    +0.040 A 
ATOM     34  C   UNL     1      11.308  10.980  22.134  0.00  0.00    +0.124 A 
ENDBRANCH   1  25
ENDBRANCH   7   1
ENDBRANCH  17   7
ENDBRANCH  11  17
BRANCH  13  18
ATOM     18  C   UNL     1      17.289  10.839  20.469  0.00  0.00    +0.103 C 
BRANCH  18  22
ATOM      3  O   UNL     1      19.499  11.503  21.197  0.00  0.00    -0.276 OA
ATOM      8  N   UNL     1      18.744  12.150  19.096  0.00  0.00    -0.314 N 
ATOM     22  C   UNL     1      18.633  11.517  20.326  0.00  0.00    +0.214 C 
ATOM     36  H   UNL     1      17.972  12.106  18.439  0.00  0.00    +0.149 HD
BRANCH   8  23
ATOM     23  C   UNL     1      19.921  12.880  18.688  0.00  0.00    +0.119 C 
BRANCH  23  24
ATOM     24  C   UNL     1      20.269  12.597  17.234  0.00  0.00    +0.103 C 
BRANCH  24   9
ATOM      6  O   UNL     1      23.503   9.937  16.950  0.00  0.00    -0.377 OA
ATOM      9  N   UNL     1      21.629  12.072  17.130  0.00  0.00    -0.297 NA
ATOM     26  C   UNL     1      21.796  11.299  15.891  0.00  0.00    +0.112 C 
ATOM     27  C   UNL     1      21.955  11.235  18.294  0.00  0.00    +0.112 C 
ATOM     28  C   UNL     1      23.218  10.750  15.812  0.00  0.00    +0.175 C 
ATOM     29  C   UNL     1      23.374  10.690  18.156  0.00  0.00    +0.175 C 
ENDBRANCH  24   9
ENDBRANCH  23  24
ENDBRANCH   8  23
ENDBRANCH  18  22
ENDBRANCH  13  18
TORSDOF 10
ENDMDL
MODEL 6
REMARK VINA RESULT:      -6.4      4.063      6.419
REMARK  Name = 38026990
REMARK  13 active torsions:
REMARK  status: ('A' for Active; 'I' for Inactive)
REMARK    1  A    between atoms: S_1  and  N_7
REMARK    2  A    between atoms: S_1  and  C_25
REMARK    3  A    between atoms: N_7  and  C_17
REMARK    4  A    between atoms: N_8  and  C_23
REMARK    5  A    between atoms: N_9  and  C_24
REMARK    6  A    between atoms: C_10  and  C_14
REMARK    7  A    between atoms: C_11  and  C_17
REMARK    8  A    between atoms: C_13  and  C_18
REMARK    9  A    between atoms: C_14  and  C_19
REMARK   10  A    between atoms: C_14  and  C_20
REMARK   11  A    between atoms: C_15  and  C_21
REMARK   12  A    between atoms: C_18  and  C_22
REMARK   13  A    between atoms: C_23  and  C_24
REMARK                            x       y       z     vdW  Elec       q    Type
REMARK                         _______ _______ _______ _____ _____    ______ ____
ROOT
ATOM     10  C   UNL     1      17.057   7.582  20.643  0.00  0.00    +0.000 C 
ATOM     11  C   UNL     1      15.742   7.298  21.411  0.00  0.00    +0.030 C 
ATOM     12  C   UNL     1      17.914   8.603  21.406  0.00  0.00    +0.012 C 
ATOM     13  C   UNL     1      17.177   9.938  21.621  0.00  0.00    +0.023 C 
ATOM     15  C   UNL     1      15.765   9.726  22.128  0.00  0.00    -0.073 C 
ATOM     16  C   UNL     1      15.145   8.537  22.038  0.00  0.00    -0.023 C 
ATOM     21  C   UNL     1      15.098  10.904  22.783  0.00  0.00    +0.039 C 
ENDROOT
BRANCH  10  14
ATOM     14  C   UNL     1      17.864   6.302  20.406  0.00  0.00    -0.013 C 
ATOM     19  C   UNL     1      19.344   6.546  20.684  0.00  0.00    +0.007 C 
ATOM     20  C   UNL     1      17.658   5.798  18.982  0.00  0.00    +0.007 C 
ENDBRANCH  10  14
BRANCH  11  17
ATOM     17  C   UNL     1      14.702   6.634  20.501  0.00  0.00    +0.113 C 
BRANCH  17   7
ATOM      7  N   UNL     1      13.477   6.382  21.275  0.00  0.00    -0.189 NA
ATOM     35  H   UNL     1      13.522   5.642  21.986  0.00  0.00    +0.148 HD
BRANCH   7   1
ATOM      1  S   UNL     1      11.952   6.749  20.609  0.00  0.00    +0.058 S 
ATOM      4  O   UNL     1      10.945   5.910  21.230  0.00  0.00    -0.153 OA
ATOM      5  O   UNL     1      12.066   6.806  19.164  0.00  0.00    -0.153 OA
BRANCH   1  25
ATOM      2  F   UNL     1      11.122  12.276  22.489  0.00  0.00    -0.205 F 
ATOM     25  C   UNL     1      11.703   8.406  21.173  0.00  0.00    +0.105 A 
ATOM     30  C   UNL     1      12.130   9.480  20.392  0.00  0.00    +0.031 A 
ATOM     31  C   UNL     1      11.081   8.639  22.399  0.00  0.00    +0.031 A 
ATOM     32  C   UNL     1      11.934  10.787  20.836  0.00  0.00    +0.040 A 
ATOM     33  C   UNL     1      10.884   9.948  22.844  0.00  0.00    +0.040 A 
ATOM     34  C   UNL     1      11.311  11.021  22.062  0.00  0.00    +0.124 A 
ENDBRANCH   1  25
ENDBRANCH   7   1
ENDBRANCH  17   7
ENDBRANCH  11  17
BRANCH  13  18
ATOM     18  C   UNL     1      17.180  10.782  20.341  0.00  0.00    +0.103 C 
BRANCH  18  22
ATOM      3  O   UNL     1      18.591  12.393  21.468  0.00  0.00    -0.276 OA
ATOM      8  N   UNL     1      18.529  12.353  19.145  0.00  0.00    -0.314 N 
ATOM     22  C   UNL     1      18.171  11.922  20.414  0.00  0.00    +0.214 C 
ATOM     36  H   UNL     1      18.128  11.899  18.329  0.00  0.00    +0.149 HD
BRANCH   8  23
ATOM     23  C   UNL     1      19.460  13.431  18.911  0.00  0.00    +0.119 C 
BRANCH  23  24
ATOM     24  C   UNL     1      20.369  13.128  17.729  0.00  0.00    +0.103 C 
BRANCH  24   9
ATOM      6  O   UNL     1      19.027  12.462  13.809  0.00  0.00    -0.377 OA
ATOM      9  N   UNL     1      19.584  12.649  16.594  0.00  0.00    -0.297 NA
ATOM     26  C   UNL     1      20.408  11.825  15.699  0.00  0.00    +0.112 C 
ATOM     27  C   UNL     1      19.003  13.775  15.849  0.00  0.00    +0.112 C 
ATOM     28  C   UNL     1      19.570  11.347  14.516  0.00  0.00    +0.175 C 
ATOM     29  C   UNL     1      18.198  13.250  14.663  0.00  0.00    +0.175 C 
ENDBRANCH  24   9
ENDBRANCH  23  24
ENDBRANCH   8  23
ENDBRANCH  18  22
ENDBRANCH  13  18
TORSDOF 10
ENDMDL
MODEL 7
REMARK VINA RESULT:      -6.3      3.025      4.909
REMARK  Name = 38026990
REMARK  13 active torsions:
REMARK  status: ('A' for Active; 'I' for Inactive)
REMARK    1  A    between atoms: S_1  and  N_7
REMARK    2  A    between atoms: S_1  and  C_25
REMARK    3  A    between atoms: N_7  and  C_17
REMARK    4  A    between atoms: N_8  and  C_23
REMARK    5  A    between atoms: N_9  and  C_24
REMARK    6  A    between atoms: C_10  and  C_14
REMARK    7  A    between atoms: C_11  and  C_17
REMARK    8  A    between atoms: C_13  and  C_18
REMARK    9  A    between atoms: C_14  and  C_19
REMARK   10  A    between atoms: C_14  and  C_20
REMARK   11  A    between atoms: C_15  and  C_21
REMARK   12  A    between atoms: C_18  and  C_22
REMARK   13  A    between atoms: C_23  and  C_24
REMARK                            x       y       z     vdW  Elec       q    Type
REMARK                         _______ _______ _______ _____ _____    ______ ____
ROOT
ATOM     10  C   UNL     1      17.006   7.579  20.673  0.00  0.00    +0.000 C 
ATOM     11  C   UNL     1      15.677   7.299  21.419  0.00  0.00    +0.030 C 
ATOM     12  C   UNL     1      17.861   8.582  21.461  0.00  0.00    +0.012 C 
ATOM     13  C   UNL     1      17.135   9.921  21.683  0.00  0.00    +0.023 C 
ATOM     15  C   UNL     1      15.714   9.716  22.168  0.00  0.00    -0.073 C 
ATOM     16  C   UNL     1      15.084   8.534  22.054  0.00  0.00    -0.023 C 
ATOM     21  C   UNL     1      15.049  10.892  22.829  0.00  0.00    +0.039 C 
ENDROOT
BRANCH  10  14
ATOM     14  C   UNL     1      17.803   6.294  20.430  0.00  0.00    -0.013 C 
ATOM     19  C   UNL     1      19.278   6.513  20.755  0.00  0.00    +0.007 C 
ATOM     20  C   UNL     1      17.632   5.825  18.989  0.00  0.00    +0.007 C 
ENDBRANCH  10  14
BRANCH  11  17
ATOM     17  C   UNL     1      14.643   6.657  20.487  0.00  0.00    +0.113 C 
BRANCH  17   7
ATOM      7  N   UNL     1      13.430   6.344  21.256  0.00  0.00    -0.189 NA
ATOM     35  H   UNL     1      13.493   5.567  21.925  0.00  0.00    +0.148 HD
BRANCH   7   1
ATOM      1  S   UNL     1      11.893   6.724  20.626  0.00  0.00    +0.058 S 
ATOM      4  O   UNL     1      10.892   5.899  21.276  0.00  0.00    -0.153 OA
ATOM      5  O   UNL     1      11.972   6.770  19.178  0.00  0.00    -0.153 OA
BRANCH   1  25
ATOM      2  F   UNL     1      11.169  12.271  22.488  0.00  0.00    -0.205 F 
ATOM     25  C   UNL     1      11.676   8.387  21.185  0.00  0.00    +0.105 A 
ATOM     30  C   UNL     1      12.086   9.451  20.381  0.00  0.00    +0.031 A 
ATOM     31  C   UNL     1      11.096   8.634  22.428  0.00  0.00    +0.031 A 
ATOM     32  C   UNL     1      11.914  10.763  20.822  0.00  0.00    +0.040 A 
ATOM     33  C   UNL     1      10.924   9.947  22.869  0.00  0.00    +0.040 A 
ATOM     34  C   UNL     1      11.333  11.011  22.065  0.00  0.00    +0.124 A 
ENDBRANCH   1  25
ENDBRANCH   7   1
ENDBRANCH  17   7
ENDBRANCH  11  17
BRANCH  13  18
ATOM     18  C   UNL     1      17.163  10.782  20.415  0.00  0.00    +0.103 C 
BRANCH  18  22
ATOM      3  O   UNL     1      17.889  13.036  20.910  0.00  0.00    -0.276 OA
ATOM      8  N   UNL     1      19.425  11.491  20.098  0.00  0.00    -0.314 N 
ATOM     22  C   UNL     1      18.168  11.907  20.513  0.00  0.00    +0.214 C 
ATOM     36  H   UNL     1      19.558  10.533  19.787  0.00  0.00    +0.149 HD
BRANCH   8  23
ATOM     23  C   UNL     1      20.579  12.359  20.084  0.00  0.00    +0.119 C 
BRANCH  23  24
ATOM     24  C   UNL     1      21.493  12.079  21.267  0.00  0.00    +0.103 C 
BRANCH  24   9
ATOM      6  O   UNL     1      22.125   8.446  23.270  0.00  0.00    -0.377 OA
ATOM      9  N   UNL     1      21.351  10.691  21.702  0.00  0.00    -0.297 NA
ATOM     26  C   UNL     1      21.060  10.622  23.140  0.00  0.00    +0.112 C 
ATOM     27  C   UNL     1      22.565   9.921  21.396  0.00  0.00    +0.112 C 
ATOM     28  C   UNL     1      20.929   9.164  23.573  0.00  0.00    +0.175 C 
ATOM     29  C   UNL     1      22.397   8.481  21.869  0.00  0.00    +0.175 C 
ENDBRANCH  24   9
ENDBRANCH  23  24
ENDBRANCH   8  23
ENDBRANCH  18  22
ENDBRANCH  13  18
TORSDOF 10
ENDMDL
MODEL 8
REMARK VINA RESULT:      -6.2     28.300     32.036
REMARK  Name = 38026990
REMARK  13 active torsions:
REMARK  status: ('A' for Active; 'I' for Inactive)
REMARK    1  A    between atoms: S_1  and  N_7
REMARK    2  A    between atoms: S_1  and  C_25
REMARK    3  A    between atoms: N_7  and  C_17
REMARK    4  A    between atoms: N_8  and  C_23
REMARK    5  A    between atoms: N_9  and  C_24
REMARK    6  A    between atoms: C_10  and  C_14
REMARK    7  A    between atoms: C_11  and  C_17
REMARK    8  A    between atoms: C_13  and  C_18
REMARK    9  A    between atoms: C_14  and  C_19
REMARK   10  A    between atoms: C_14  and  C_20
REMARK   11  A    between atoms: C_15  and  C_21
REMARK   12  A    between atoms: C_18  and  C_22
REMARK   13  A    between atoms: C_23  and  C_24
REMARK                            x       y       z     vdW  Elec       q    Type
REMARK                         _______ _______ _______ _____ _____    ______ ____
ROOT
ATOM     10  C   UNL     1      -6.769 -10.856  17.959  0.00  0.00    +0.000 C 
ATOM     11  C   UNL     1      -5.950 -11.247  16.702  0.00  0.00    +0.030 C 
ATOM     12  C   UNL     1      -8.274 -10.896  17.651  0.00  0.00    +0.012 C 
ATOM     13  C   UNL     1      -8.659  -9.946  16.502  0.00  0.00    +0.023 C 
ATOM     15  C   UNL     1      -7.723 -10.084  15.319  0.00  0.00    -0.073 C 
ATOM     16  C   UNL     1      -6.523 -10.681  15.424  0.00  0.00    -0.023 C 
ATOM     21  C   UNL     1      -8.218  -9.561  13.999  0.00  0.00    +0.039 C 
ENDROOT
BRANCH  10  14
ATOM     14  C   UNL     1      -6.459 -11.771  19.147  0.00  0.00    -0.013 C 
ATOM     19  C   UNL     1      -7.726 -12.475  19.623  0.00  0.00    +0.007 C 
ATOM     20  C   UNL     1      -5.825 -10.974  20.282  0.00  0.00    +0.007 C 
ENDBRANCH  10  14
BRANCH  11  17
ATOM     17  C   UNL     1      -4.486 -10.817  16.842  0.00  0.00    +0.113 C 
BRANCH  17   7
ATOM      7  N   UNL     1      -4.002 -10.329  15.542  0.00  0.00    -0.189 NA
ATOM     35  H   UNL     1      -4.606  -9.667  15.041  0.00  0.00    +0.148 HD
BRANCH   7   1
ATOM      1  S   UNL     1      -2.926 -11.274  14.618  0.00  0.00    +0.058 S 
ATOM      4  O   UNL     1      -3.412 -12.640  14.566  0.00  0.00    -0.153 OA
ATOM      5  O   UNL     1      -1.567 -10.998  15.043  0.00  0.00    -0.153 OA
BRANCH   1  25
ATOM      2  F   UNL     1      -3.561  -8.916   9.250  0.00  0.00    -0.205 F 
ATOM     25  C   UNL     1      -3.117 -10.567  13.008  0.00  0.00    +0.105 A 
ATOM     30  C   UNL     1      -1.991 -10.274  12.238  0.00  0.00    +0.031 A 
ATOM     31  C   UNL     1      -4.391 -10.301  12.510  0.00  0.00    +0.031 A 
ATOM     32  C   UNL     1      -2.142  -9.717  10.968  0.00  0.00    +0.040 A 
ATOM     33  C   UNL     1      -4.542  -9.744  11.240  0.00  0.00    +0.040 A 
ATOM     34  C   UNL     1      -3.416  -9.452  10.469  0.00  0.00    +0.124 A 
ENDBRANCH   1  25
ENDBRANCH   7   1
ENDBRANCH  17   7
ENDBRANCH  11  17
BRANCH  13  18
ATOM     18  C   UNL     1      -8.721  -8.492  16.985  0.00  0.00    +0.103 C 
BRANCH  18  22
ATOM      3  O   UNL     1     -11.027  -8.505  17.719  0.00  0.00    -0.276 OA
ATOM      8  N   UNL     1     -10.297  -6.843  16.267  0.00  0.00    -0.314 N 
ATOM     22  C   UNL     1     -10.141  -7.976  17.052  0.00  0.00    +0.214 C 
ATOM     36  H   UNL     1      -9.503  -6.478  15.750  0.00  0.00    +0.149 HD
BRANCH   8  23
ATOM     23  C   UNL     1     -11.551  -6.137  16.140  0.00  0.00    +0.119 C 
BRANCH  23  24
ATOM     24  C   UNL     1     -12.412  -6.737  15.038  0.00  0.00    +0.103 C 
BRANCH  24   9
ATOM      6  O   UNL     1     -12.916  -4.816  11.341  0.00  0.00    -0.377 OA
ATOM      9  N   UNL     1     -12.124  -6.090  13.760  0.00  0.00    -0.297 NA
ATOM     26  C   UNL     1     -12.629  -4.710  13.748  0.00  0.00    +0.112 C 
ATOM     27  C   UNL     1     -12.710  -6.850  12.646  0.00  0.00    +0.112 C 
ATOM     28  C   UNL     1     -12.329  -4.060  12.400  0.00  0.00    +0.175 C 
ATOM     29  C   UNL     1     -12.406  -6.149  11.325  0.00  0.00    +0.175 C 
ENDBRANCH  24   9
ENDBRANCH  23  24
ENDBRANCH   8  23
ENDBRANCH  18  22
ENDBRANCH  13  18
TORSDOF 10
ENDMDL
MODEL 9
REMARK VINA RESULT:      -6.1     15.852     19.124
REMARK  Name = 38026990
REMARK  13 active torsions:
REMARK  status: ('A' for Active; 'I' for Inactive)
REMARK    1  A    between atoms: S_1  and  N_7
REMARK    2  A    between atoms: S_1  and  C_25
REMARK    3  A    between atoms: N_7  and  C_17
REMARK    4  A    between atoms: N_8  and  C_23
REMARK    5  A    between atoms: N_9  and  C_24
REMARK    6  A    between atoms: C_10  and  C_14
REMARK    7  A    between atoms: C_11  and  C_17
REMARK    8  A    between atoms: C_13  and  C_18
REMARK    9  A    between atoms: C_14  and  C_19
REMARK   10  A    between atoms: C_14  and  C_20
REMARK   11  A    between atoms: C_15  and  C_21
REMARK   12  A    between atoms: C_18  and  C_22
REMARK   13  A    between atoms: C_23  and  C_24
REMARK                            x       y       z     vdW  Elec       q    Type
REMARK                         _______ _______ _______ _____ _____    ______ ____
ROOT
ATOM     10  C   UNL     1       8.993   8.519   3.262  0.00  0.00    +0.000 C 
ATOM     11  C   UNL     1       8.031   7.811   4.250  0.00  0.00    +0.030 C 
ATOM     12  C   UNL     1       9.701   7.487   2.372  0.00  0.00    +0.012 C 
ATOM     13  C   UNL     1      10.510   6.466   3.194  0.00  0.00    +0.023 C 
ATOM     15  C   UNL     1       9.708   5.919   4.357  0.00  0.00    -0.073 C 
ATOM     16  C   UNL     1       8.596   6.526   4.806  0.00  0.00    -0.023 C 
ATOM     21  C   UNL     1      10.191   4.630   4.965  0.00  0.00    +0.039 C 
ENDROOT
BRANCH  10  14
ATOM     14  C   UNL     1       8.260   9.541   2.388  0.00  0.00    -0.013 C 
ATOM     19  C   UNL     1       8.305   9.119   0.923  0.00  0.00    +0.007 C 
ATOM     20  C   UNL     1       8.865  10.929   2.569  0.00  0.00    +0.007 C 
ENDBRANCH  10  14
BRANCH  11  17
ATOM     17  C   UNL     1       7.641   8.741   5.404  0.00  0.00    +0.113 C 
BRANCH  17   7
ATOM      7  N   UNL     1       8.860   9.325   5.983  0.00  0.00    -0.189 NA
ATOM     35  H   UNL     1       9.589   9.625   5.325  0.00  0.00    +0.148 HD
BRANCH   7   1
ATOM      1  S   UNL     1       9.344   8.908   7.563  0.00  0.00    +0.058 S 
ATOM      4  O   UNL     1       8.554   7.781   8.024  0.00  0.00    -0.153 OA
ATOM      5  O   UNL     1       9.432  10.114   8.366  0.00  0.00    -0.153 OA
BRANCH   1  25
ATOM      2  F   UNL     1      14.858   7.019   6.676  0.00  0.00    -0.205 F 
ATOM     25  C   UNL     1      10.997   8.342   7.297  0.00  0.00    +0.105 A 
ATOM     30  C   UNL     1      11.301   6.988   7.437  0.00  0.00    +0.031 A 
ATOM     31  C   UNL     1      11.997   9.249   6.949  0.00  0.00    +0.031 A 
ATOM     32  C   UNL     1      12.605   6.541   7.226  0.00  0.00    +0.040 A 
ATOM     33  C   UNL     1      13.302   8.802   6.739  0.00  0.00    +0.040 A 
ATOM     34  C   UNL     1      13.606   7.448   6.877  0.00  0.00    +0.124 A 
ENDBRANCH   1  25
ENDBRANCH   7   1
ENDBRANCH  17   7
ENDBRANCH  11  17
BRANCH  13  18
ATOM     18  C   UNL     1      11.834   7.069   3.675  0.00  0.00    +0.103 C 
BRANCH  18  22
ATOM      3  O   UNL     1      14.096   7.089   2.814  0.00  0.00    -0.276 OA
ATOM      8  N   UNL     1      12.728   5.256   2.398  0.00  0.00    -0.314 N 
ATOM     22  C   UNL     1      13.021   6.504   2.928  0.00  0.00    +0.214 C 
ATOM     36  H   UNL     1      11.808   4.852   2.546  0.00  0.00    +0.149 HD
BRANCH   8  23
ATOM     23  C   UNL     1      13.677   4.481   1.632  0.00  0.00    +0.119 C 
BRANCH  23  24
ATOM     24  C   UNL     1      13.062   3.174   1.154  0.00  0.00    +0.103 C 
BRANCH  24   9
ATOM      6  O   UNL     1      12.435   4.567  -2.754  0.00  0.00    -0.377 OA
ATOM      9  N   UNL     1      12.866   3.204  -0.294  0.00  0.00    -0.297 NA
ATOM     26  C   UNL     1      13.940   3.963  -0.950  0.00  0.00    +0.112 C 
ATOM     27  C   UNL     1      11.559   3.785  -0.632  0.00  0.00    +0.112 C 
ATOM     28  C   UNL     1      13.708   3.991  -2.458  0.00  0.00    +0.175 C 
ATOM     29  C   UNL     1      11.384   3.816  -2.148  0.00  0.00    +0.175 C 
ENDBRANCH  24   9
ENDBRANCH  23  24
ENDBRANCH   8  23
ENDBRANCH  18  22
ENDBRANCH  13  18
TORSDOF 10
ENDMDL
MODEL 10
REMARK VINA RESULT:      -6.1     30.937     34.935
REMARK  Name = 38026990
REMARK  13 active torsions:
REMARK  status: ('A' for Active; 'I' for Inactive)
REMARK    1  A    between atoms: S_1  and  N_7
REMARK    2  A    between atoms: S_1  and  C_25
REMARK    3  A    between atoms: N_7  and  C_17
REMARK    4  A    between atoms: N_8  and  C_23
REMARK    5  A    between atoms: N_9  and  C_24
REMARK    6  A    between atoms: C_10  and  C_14
REMARK    7  A    between atoms: C_11  and  C_17
REMARK    8  A    between atoms: C_13  and  C_18
REMARK    9  A    between atoms: C_14  and  C_19
REMARK   10  A    between atoms: C_14  and  C_20
REMARK   11  A    between atoms: C_15  and  C_21
REMARK   12  A    between atoms: C_18  and  C_22
REMARK   13  A    between atoms: C_23  and  C_24
REMARK                            x       y       z     vdW  Elec       q    Type
REMARK                         _______ _______ _______ _____ _____    ______ ____
ROOT
ATOM     10  C   UNL     1     -17.191   5.542  28.769  0.00  0.00    +0.000 C 
ATOM     11  C   UNL     1     -17.443   4.781  30.095  0.00  0.00    +0.030 C 
ATOM     12  C   UNL     1     -17.815   4.782  27.589  0.00  0.00    +0.012 C 
ATOM     13  C   UNL     1     -17.250   3.356  27.449  0.00  0.00    +0.023 C 
ATOM     15  C   UNL     1     -17.218   2.631  28.779  0.00  0.00    -0.073 C 
ATOM     16  C   UNL     1     -17.319   3.283  29.950  0.00  0.00    -0.023 C 
ATOM     21  C   UNL     1     -17.111   1.132  28.729  0.00  0.00    +0.039 C 
ENDROOT
BRANCH  10  14
ATOM     14  C   UNL     1     -17.744   6.969  28.818  0.00  0.00    -0.013 C 
ATOM     19  C   UNL     1     -18.483   7.299  27.524  0.00  0.00    +0.007 C 
ATOM     20  C   UNL     1     -16.620   7.968  29.068  0.00  0.00    +0.007 C 
ENDBRANCH  10  14
BRANCH  11  17
ATOM     17  C   UNL     1     -16.499   5.268  31.200  0.00  0.00    +0.113 C 
BRANCH  17   7
ATOM      7  N   UNL     1     -16.341   4.204  32.202  0.00  0.00    -0.189 NA
ATOM     35  H   UNL     1     -17.124   4.058  32.851  0.00  0.00    +0.148 HD
BRANCH   7   1
ATOM      1  S   UNL     1     -14.786   3.737  32.720  0.00  0.00    +0.058 S 
ATOM      4  O   UNL     1     -14.845   3.342  34.114  0.00  0.00    -0.153 OA
ATOM      5  O   UNL     1     -13.822   4.729  32.281  0.00  0.00    -0.153 OA
BRANCH   1  25
ATOM      2  F   UNL     1     -13.853  -1.114  29.500  0.00  0.00    -0.205 F 
ATOM     25  C   UNL     1     -14.506   2.283  31.754  0.00  0.00    +0.105 A 
ATOM     30  C   UNL     1     -14.966   1.046  32.207  0.00  0.00    +0.031 A 
ATOM     31  C   UNL     1     -13.825   2.372  30.541  0.00  0.00    +0.031 A 
ATOM     32  C   UNL     1     -14.746  -0.101  31.445  0.00  0.00    +0.040 A 
ATOM     33  C   UNL     1     -13.604   1.224  29.778  0.00  0.00    +0.040 A 
ATOM     34  C   UNL     1     -14.065  -0.013  30.231  0.00  0.00    +0.124 A 
ENDBRANCH   1  25
ENDBRANCH   7   1
ENDBRANCH  17   7
ENDBRANCH  11  17
BRANCH  13  18
ATOM     18  C   UNL     1     -15.862   3.374  26.799  0.00  0.00    +0.103 C 
BRANCH  18  22
ATOM      3  O   UNL     1     -16.204   2.444  24.591  0.00  0.00    -0.276 OA
ATOM      8  N   UNL     1     -15.679   4.698  24.816  0.00  0.00    -0.314 N 
ATOM     22  C   UNL     1     -15.942   3.421  25.290  0.00  0.00    +0.214 C 
ATOM     36  H   UNL     1     -15.472   5.443  25.474  0.00  0.00    +0.149 HD
BRANCH   8  23
ATOM     23  C   UNL     1     -15.684   5.036  23.412  0.00  0.00    +0.119 C 
BRANCH  23  24
ATOM     24  C   UNL     1     -14.329   4.764  22.775  0.00  0.00    +0.103 C 
BRANCH  24   9
ATOM      6  O   UNL     1     -12.607   8.270  21.241  0.00  0.00    -0.377 OA
ATOM      9  N   UNL     1     -13.968   5.850  21.866  0.00  0.00    -0.297 NA
ATOM     26  C   UNL     1     -12.517   5.878  21.638  0.00  0.00    +0.112 C 
ATOM     27  C   UNL     1     -14.420   7.145  22.395  0.00  0.00    +0.112 C 
ATOM     28  C   UNL     1     -12.163   7.027  20.697  0.00  0.00    +0.175 C 
ATOM     29  C   UNL     1     -14.022   8.262  21.435  0.00  0.00    +0.175 C 
ENDBRANCH  24   9
ENDBRANCH  23  24
ENDBRANCH   8  23
ENDBRANCH  18  22
ENDBRANCH  13  18
TORSDOF 10
ENDMDL
