MODEL 1
REMARK VINA RESULT:      -7.2      0.000      0.000
REMARK  Name = 26745297
REMARK  9 active torsions:
REMARK  status: ('A' for Active; 'I' for Inactive)
REMARK    1  A    between atoms: O_2  and  C_30
REMARK    2  A    between atoms: O_2  and  C_31
REMARK    3  A    between atoms: O_3  and  C_27
REMARK    4  A    between atoms: N_5  and  C_14
REMARK    5  A    between atoms: N_8  and  C_18
REMARK    6  A    between atoms: C_9  and  C_15
REMARK    7  A    between atoms: C_14  and  C_16
REMARK    8  A    between atoms: C_18  and  C_21
REMARK    9  A    between atoms: C_24  and  C_27
REMARK                            x       y       z     vdW  Elec       q    Type
REMARK                         _______ _______ _______ _____ _____    ______ ____
ROOT
ATOM      5  N   UNL     1      10.699   7.263   5.751  0.00  0.00    -0.281 NA
ATOM      6  N   UNL     1      10.681   4.678   8.485  0.00  0.00    -0.347 N 
ATOM      7  N   UNL     1       8.776   5.653   9.133  0.00  0.00    -0.240 NA
ATOM      9  C   UNL     1       9.835   8.209   6.508  0.00  0.00    +0.150 C 
ATOM     10  C   UNL     1       8.794   7.573   7.471  0.00  0.00    +0.085 C 
ATOM     11  C   UNL     1      11.398   6.270   6.612  0.00  0.00    +0.140 C 
ATOM     12  C   UNL     1      10.515   5.770   7.688  0.00  0.00    +0.053 A 
ATOM     13  C   UNL     1       9.345   6.353   8.107  0.00  0.00    +0.065 A 
ATOM     17  C   UNL     1       9.606   4.649   9.339  0.00  0.00    +0.197 A 
ATOM     32  H   UNL     1      11.446   4.016   8.457  0.00  0.00    +0.167 HD
ENDROOT
BRANCH   9  15
ATOM      1  O   UNL     1      10.487   9.542   8.383  0.00  0.00    -0.274 OA
ATOM      8  N   UNL     1      11.873   9.474   6.514  0.00  0.00    -0.310 N 
ATOM     15  C   UNL     1      10.753   9.138   7.254  0.00  0.00    +0.231 C 
ATOM     33  H   UNL     1      11.996   9.066   5.591  0.00  0.00    +0.149 HD
BRANCH   8  18
ATOM     18  C   UNL     1      12.899  10.370   6.995  0.00  0.00    +0.139 C 
BRANCH  18  21
ATOM     21  C   UNL     1      14.275   9.906   6.614  0.00  0.00    -0.030 A 
ATOM     25  C   UNL     1      14.497   8.567   6.294  0.00  0.00    +0.009 A 
ATOM     26  C   UNL     1      15.332  10.815   6.580  0.00  0.00    +0.009 A 
ATOM     28  C   UNL     1      15.776   8.137   5.940  0.00  0.00    +0.046 A 
ATOM     29  C   UNL     1      16.611  10.385   6.225  0.00  0.00    +0.046 A 
ATOM     30  C   UNL     1      16.833   9.046   5.905  0.00  0.00    +0.120 A 
BRANCH  30   2
ATOM      2  O   UNL     1      18.080   8.627   5.558  0.00  0.00    -0.495 OA
ATOM     31  C   UNL     1      19.088   8.683   6.567  0.00  0.00    +0.277 C 
ENDBRANCH  30   2
ENDBRANCH  18  21
ENDBRANCH   8  18
ENDBRANCH   9  15
BRANCH   5  14
ATOM     14  C   UNL     1       9.938   6.596   4.690  0.00  0.00    +0.120 C 
BRANCH  14  16
ATOM     16  C   UNL     1      10.823   5.785   3.789  0.00  0.00    -0.033 A 
ATOM     19  C   UNL     1      11.949   6.368   3.210  0.00  0.00    +0.006 A 
ATOM     20  C   UNL     1      10.517   4.448   3.531  0.00  0.00    +0.006 A 
ATOM     22  C   UNL     1      12.772   5.614   2.373  0.00  0.00    +0.015 A 
ATOM     23  C   UNL     1      11.339   3.695   2.693  0.00  0.00    +0.015 A 
ATOM     24  C   UNL     1      12.467   4.278   2.114  0.00  0.00    +0.059 A 
BRANCH  24  27
ATOM      4  O   UNL     1      13.076   3.199   0.067  0.00  0.00    -0.245 OA
ATOM     27  C   UNL     1      13.324   3.491   1.241  0.00  0.00    +0.337 C 
BRANCH  27   3
ATOM      3  O   UNL     1      14.469   3.091   1.860  0.00  0.00    -0.477 OA
ATOM     34  H   UNL     1      14.362   2.217   2.294  0.00  0.00    +0.295 HD
ENDBRANCH  27   3
ENDBRANCH  24  27
ENDBRANCH  14  16
ENDBRANCH   5  14
TORSDOF 8
ENDMDL
MODEL 2
REMARK VINA RESULT:      -6.7     24.807     28.228
REMARK  Name = 26745297
REMARK  9 active torsions:
REMARK  status: ('A' for Active; 'I' for Inactive)
REMARK    1  A    between atoms: O_2  and  C_30
REMARK    2  A    between atoms: O_2  and  C_31
REMARK    3  A    between atoms: O_3  and  C_27
REMARK    4  A    between atoms: N_5  and  C_14
REMARK    5  A    between atoms: N_8  and  C_18
REMARK    6  A    between atoms: C_9  and  C_15
REMARK    7  A    between atoms: C_14  and  C_16
REMARK    8  A    between atoms: C_18  and  C_21
REMARK    9  A    between atoms: C_24  and  C_27
REMARK                            x       y       z     vdW  Elec       q    Type
REMARK                         _______ _______ _______ _____ _____    ______ ____
ROOT
ATOM      5  N   UNL     1      -9.028  -8.945  16.160  0.00  0.00    -0.281 NA
ATOM      6  N   UNL     1     -12.073  -6.736  16.166  0.00  0.00    -0.347 N 
ATOM      7  N   UNL     1     -13.195  -8.605  15.669  0.00  0.00    -0.240 NA
ATOM      9  C   UNL     1      -9.656  -9.971  15.286  0.00  0.00    +0.150 C 
ATOM     10  C   UNL     1     -11.194 -10.148  15.423  0.00  0.00    +0.085 C 
ATOM     11  C   UNL     1      -9.666  -7.604  16.064  0.00  0.00    +0.140 C 
ATOM     12  C   UNL     1     -11.140  -7.711  15.985  0.00  0.00    +0.053 A 
ATOM     13  C   UNL     1     -11.850  -8.844  15.676  0.00  0.00    +0.065 A 
ATOM     17  C   UNL     1     -13.298  -7.325  15.966  0.00  0.00    +0.197 A 
ATOM     32  H   UNL     1     -11.903  -5.767  16.401  0.00  0.00    +0.167 HD
ENDROOT
BRANCH   9  15
ATOM      1  O   UNL     1     -10.129  -9.522  12.986  0.00  0.00    -0.274 OA
ATOM      8  N   UNL     1      -7.917  -9.473  13.710  0.00  0.00    -0.310 N 
ATOM     15  C   UNL     1      -9.283  -9.626  13.870  0.00  0.00    +0.231 C 
ATOM     33  H   UNL     1      -7.311  -9.570  14.520  0.00  0.00    +0.149 HD
BRANCH   8  18
ATOM     18  C   UNL     1      -7.300  -9.162  12.441  0.00  0.00    +0.139 C 
BRANCH  18  21
ATOM     21  C   UNL     1      -5.878  -9.638  12.375  0.00  0.00    -0.030 A 
ATOM     25  C   UNL     1      -5.128  -9.438  11.216  0.00  0.00    +0.009 A 
ATOM     26  C   UNL     1      -5.307 -10.280  13.473  0.00  0.00    +0.009 A 
ATOM     28  C   UNL     1      -3.807  -9.880  11.156  0.00  0.00    +0.046 A 
ATOM     29  C   UNL     1      -3.985 -10.722  13.412  0.00  0.00    +0.046 A 
ATOM     30  C   UNL     1      -3.235 -10.523  12.254  0.00  0.00    +0.120 A 
BRANCH  30   2
ATOM      2  O   UNL     1      -1.946 -10.953  12.195  0.00  0.00    -0.495 OA
ATOM     31  C   UNL     1      -1.626 -12.146  12.912  0.00  0.00    +0.277 C 
ENDBRANCH  30   2
ENDBRANCH  18  21
ENDBRANCH   8  18
ENDBRANCH   9  15
BRANCH   5  14
ATOM     14  C   UNL     1      -8.977  -9.405  17.551  0.00  0.00    +0.120 C 
BRANCH  14  16
ATOM     16  C   UNL     1      -7.647 -10.010  17.895  0.00  0.00    -0.033 A 
ATOM     19  C   UNL     1      -6.561  -9.836  17.039  0.00  0.00    +0.006 A 
ATOM     20  C   UNL     1      -7.499 -10.747  19.070  0.00  0.00    +0.006 A 
ATOM     22  C   UNL     1      -5.324 -10.397  17.358  0.00  0.00    +0.015 A 
ATOM     23  C   UNL     1      -6.263 -11.310  19.389  0.00  0.00    +0.015 A 
ATOM     24  C   UNL     1      -5.175 -11.135  18.532  0.00  0.00    +0.059 A 
BRANCH  24  27
ATOM      4  O   UNL     1      -3.578 -12.193  19.965  0.00  0.00    -0.245 OA
ATOM     27  C   UNL     1      -3.886 -11.720  18.866  0.00  0.00    +0.337 C 
BRANCH  27   3
ATOM      3  O   UNL     1      -3.018 -11.700  17.818  0.00  0.00    -0.477 OA
ATOM     34  H   UNL     1      -2.889 -10.792  17.469  0.00  0.00    +0.295 HD
ENDBRANCH  27   3
ENDBRANCH  24  27
ENDBRANCH  14  16
ENDBRANCH   5  14
TORSDOF 8
ENDMDL
MODEL 3
REMARK VINA RESULT:      -6.7     35.792     38.405
REMARK  Name = 26745297
REMARK  9 active torsions:
REMARK  status: ('A' for Active; 'I' for Inactive)
REMARK    1  A    between atoms: O_2  and  C_30
REMARK    2  A    between atoms: O_2  and  C_31
REMARK    3  A    between atoms: O_3  and  C_27
REMARK    4  A    between atoms: N_5  and  C_14
REMARK    5  A    between atoms: N_8  and  C_18
REMARK    6  A    between atoms: C_9  and  C_15
REMARK    7  A    between atoms: C_14  and  C_16
REMARK    8  A    between atoms: C_18  and  C_21
REMARK    9  A    between atoms: C_24  and  C_27
REMARK                            x       y       z     vdW  Elec       q    Type
REMARK                         _______ _______ _______ _____ _____    ______ ____
ROOT
ATOM      5  N   UNL     1     -14.671   6.382  32.894  0.00  0.00    -0.281 NA
ATOM      6  N   UNL     1     -18.311   5.750  32.184  0.00  0.00    -0.347 N 
ATOM      7  N   UNL     1     -18.391   4.983  34.282  0.00  0.00    -0.240 NA
ATOM      9  C   UNL     1     -14.609   5.372  33.984  0.00  0.00    +0.150 C 
ATOM     10  C   UNL     1     -15.913   5.160  34.805  0.00  0.00    +0.085 C 
ATOM     11  C   UNL     1     -15.797   6.170  31.943  0.00  0.00    +0.140 C 
ATOM     12  C   UNL     1     -17.032   5.764  32.649  0.00  0.00    +0.053 A 
ATOM     13  C   UNL     1     -17.105   5.285  33.934  0.00  0.00    +0.065 A 
ATOM     17  C   UNL     1     -19.095   5.273  33.205  0.00  0.00    +0.197 A 
ATOM     32  H   UNL     1     -18.627   6.034  31.265  0.00  0.00    +0.167 HD
ENDROOT
BRANCH   9  15
ATOM      1  O   UNL     1     -14.466   2.990  33.832  0.00  0.00    -0.274 OA
ATOM      8  N   UNL     1     -13.368   4.287  32.240  0.00  0.00    -0.310 N 
ATOM     15  C   UNL     1     -14.159   4.081  33.358  0.00  0.00    +0.231 C 
ATOM     33  H   UNL     1     -13.191   5.239  31.931  0.00  0.00    +0.149 HD
BRANCH   8  18
ATOM     18  C   UNL     1     -12.791   3.210  31.471  0.00  0.00    +0.139 C 
BRANCH  18  21
ATOM     21  C   UNL     1     -13.814   2.517  30.618  0.00  0.00    -0.030 A 
ATOM     25  C   UNL     1     -14.651   3.261  29.788  0.00  0.00    +0.009 A 
ATOM     26  C   UNL     1     -13.927   1.127  30.657  0.00  0.00    +0.009 A 
ATOM     28  C   UNL     1     -15.601   2.616  28.996  0.00  0.00    +0.046 A 
ATOM     29  C   UNL     1     -14.877   0.482  29.865  0.00  0.00    +0.046 A 
ATOM     30  C   UNL     1     -15.714   1.227  29.035  0.00  0.00    +0.120 A 
BRANCH  30   2
ATOM      2  O   UNL     1     -16.640   0.598  28.261  0.00  0.00    -0.495 OA
ATOM     31  C   UNL     1     -16.787   1.060  26.918  0.00  0.00    +0.277 C 
ENDBRANCH  30   2
ENDBRANCH  18  21
ENDBRANCH   8  18
ENDBRANCH   9  15
BRANCH   5  14
ATOM     14  C   UNL     1     -14.695   7.741  33.443  0.00  0.00    +0.120 C 
BRANCH  14  16
ATOM     16  C   UNL     1     -13.348   8.401  33.370  0.00  0.00    -0.033 A 
ATOM     19  C   UNL     1     -12.870   9.130  34.458  0.00  0.00    +0.006 A 
ATOM     20  C   UNL     1     -12.577   8.284  32.213  0.00  0.00    +0.006 A 
ATOM     22  C   UNL     1     -11.619   9.742  34.390  0.00  0.00    +0.015 A 
ATOM     23  C   UNL     1     -11.326   8.898  32.145  0.00  0.00    +0.015 A 
ATOM     24  C   UNL     1     -10.847   9.627  33.234  0.00  0.00    +0.059 A 
BRANCH  24  27
ATOM      4  O   UNL     1      -9.242  11.200  32.415  0.00  0.00    -0.245 OA
ATOM     27  C   UNL     1      -9.541  10.265  33.163  0.00  0.00    +0.337 C 
BRANCH  27   3
ATOM      3  O   UNL     1      -8.646   9.717  34.030  0.00  0.00    -0.477 OA
ATOM     34  H   UNL     1      -8.857   8.779  34.227  0.00  0.00    +0.295 HD
ENDBRANCH  27   3
ENDBRANCH  24  27
ENDBRANCH  14  16
ENDBRANCH   5  14
TORSDOF 8
ENDMDL
MODEL 4
REMARK VINA RESULT:      -6.5     23.785     27.225
REMARK  Name = 26745297
REMARK  9 active torsions:
REMARK  status: ('A' for Active; 'I' for Inactive)
REMARK    1  A    between atoms: O_2  and  C_30
REMARK    2  A    between atoms: O_2  and  C_31
REMARK    3  A    between atoms: O_3  and  C_27
REMARK    4  A    between atoms: N_5  and  C_14
REMARK    5  A    between atoms: N_8  and  C_18
REMARK    6  A    between atoms: C_9  and  C_15
REMARK    7  A    between atoms: C_14  and  C_16
REMARK    8  A    between atoms: C_18  and  C_21
REMARK    9  A    between atoms: C_24  and  C_27
REMARK                            x       y       z     vdW  Elec       q    Type
REMARK                         _______ _______ _______ _____ _____    ______ ____
ROOT
ATOM      5  N   UNL     1      -3.305 -11.167  14.369  0.00  0.00    -0.281 NA
ATOM      6  N   UNL     1      -4.074 -14.845  14.550  0.00  0.00    -0.347 N 
ATOM      7  N   UNL     1      -1.886 -15.126  14.183  0.00  0.00    -0.240 NA
ATOM      9  C   UNL     1      -2.068 -11.366  13.568  0.00  0.00    +0.150 C 
ATOM     10  C   UNL     1      -1.285 -12.685  13.824  0.00  0.00    +0.085 C 
ATOM     11  C   UNL     1      -4.261 -12.305  14.289  0.00  0.00    +0.140 C 
ATOM     12  C   UNL     1      -3.558 -13.605  14.323  0.00  0.00    +0.053 A 
ATOM     13  C   UNL     1      -2.218 -13.804  14.095  0.00  0.00    +0.065 A 
ATOM     17  C   UNL     1      -3.027 -15.728  14.456  0.00  0.00    +0.197 A 
ATOM     32  H   UNL     1      -5.039 -15.075  14.748  0.00  0.00    +0.167 HD
ENDROOT
BRANCH   9  15
ATOM      1  O   UNL     1      -2.608 -12.244  11.411  0.00  0.00    -0.274 OA
ATOM      8  N   UNL     1      -2.601  -9.936  11.718  0.00  0.00    -0.310 N 
ATOM     15  C   UNL     1      -2.460 -11.253  12.121  0.00  0.00    +0.231 C 
ATOM     33  H   UNL     1      -2.466  -9.194  12.400  0.00  0.00    +0.149 HD
BRANCH   8  18
ATOM     18  C   UNL     1      -2.951  -9.555  10.369  0.00  0.00    +0.139 C 
BRANCH  18  21
ATOM     21  C   UNL     1      -4.420  -9.280  10.226  0.00  0.00    -0.030 A 
ATOM     25  C   UNL     1      -4.973  -9.086   8.961  0.00  0.00    +0.009 A 
ATOM     26  C   UNL     1      -5.231  -9.218  11.358  0.00  0.00    +0.009 A 
ATOM     28  C   UNL     1      -6.338  -8.831   8.828  0.00  0.00    +0.046 A 
ATOM     29  C   UNL     1      -6.596  -8.962  11.226  0.00  0.00    +0.046 A 
ATOM     30  C   UNL     1      -7.149  -8.769   9.960  0.00  0.00    +0.120 A 
BRANCH  30   2
ATOM      2  O   UNL     1      -8.481  -8.521   9.831  0.00  0.00    -0.495 OA
ATOM     31  C   UNL     1      -8.872  -7.576   8.834  0.00  0.00    +0.277 C 
ENDBRANCH  30   2
ENDBRANCH  18  21
ENDBRANCH   8  18
ENDBRANCH   9  15
BRANCH   5  14
ATOM     14  C   UNL     1      -2.980 -10.850  15.763  0.00  0.00    +0.120 C 
BRANCH  14  16
ATOM     16  C   UNL     1      -4.207 -10.770  16.623  0.00  0.00    -0.033 A 
ATOM     19  C   UNL     1      -5.264  -9.940  16.252  0.00  0.00    +0.006 A 
ATOM     20  C   UNL     1      -4.290 -11.525  17.792  0.00  0.00    +0.006 A 
ATOM     22  C   UNL     1      -6.406  -9.865  17.050  0.00  0.00    +0.015 A 
ATOM     23  C   UNL     1      -5.431 -11.451  18.592  0.00  0.00    +0.015 A 
ATOM     24  C   UNL     1      -6.489 -10.620  18.220  0.00  0.00    +0.059 A 
BRANCH  24  27
ATOM      4  O   UNL     1      -7.871 -11.193  20.086  0.00  0.00    -0.245 OA
ATOM     27  C   UNL     1      -7.679 -10.544  19.054  0.00  0.00    +0.337 C 
BRANCH  27   3
ATOM      3  O   UNL     1      -8.594  -9.659  18.574  0.00  0.00    -0.477 OA
ATOM     34  H   UNL     1      -9.404  -9.636  19.127  0.00  0.00    +0.295 HD
ENDBRANCH  27   3
ENDBRANCH  24  27
ENDBRANCH  14  16
ENDBRANCH   5  14
TORSDOF 8
ENDMDL
MODEL 5
REMARK VINA RESULT:      -6.4     34.621     38.239
REMARK  Name = 26745297
REMARK  9 active torsions:
REMARK  status: ('A' for Active; 'I' for Inactive)
REMARK    1  A    between atoms: O_2  and  C_30
REMARK    2  A    between atoms: O_2  and  C_31
REMARK    3  A    between atoms: O_3  and  C_27
REMARK    4  A    between atoms: N_5  and  C_14
REMARK    5  A    between atoms: N_8  and  C_18
REMARK    6  A    between atoms: C_9  and  C_15
REMARK    7  A    between atoms: C_14  and  C_16
REMARK    8  A    between atoms: C_18  and  C_21
REMARK    9  A    between atoms: C_24  and  C_27
REMARK                            x       y       z     vdW  Elec       q    Type
REMARK                         _______ _______ _______ _____ _____    ______ ____
ROOT
ATOM      5  N   UNL     1     -14.374   6.238  32.619  0.00  0.00    -0.281 NA
ATOM      6  N   UNL     1     -18.011   5.703  31.820  0.00  0.00    -0.347 N 
ATOM      7  N   UNL     1     -18.196   5.099  33.965  0.00  0.00    -0.240 NA
ATOM      9  C   UNL     1     -14.393   5.310  33.782  0.00  0.00    +0.150 C 
ATOM     10  C   UNL     1     -15.732   5.214  34.566  0.00  0.00    +0.085 C 
ATOM     11  C   UNL     1     -15.474   6.002  31.645  0.00  0.00    +0.140 C 
ATOM     12  C   UNL     1     -16.749   5.700  32.331  0.00  0.00    +0.053 A 
ATOM     13  C   UNL     1     -16.887   5.321  33.644  0.00  0.00    +0.065 A 
ATOM     17  C   UNL     1     -18.849   5.335  32.844  0.00  0.00    +0.197 A 
ATOM     32  H   UNL     1     -18.282   5.930  30.872  0.00  0.00    +0.167 HD
ENDROOT
BRANCH   9  15
ATOM      1  O   UNL     1     -13.003   3.817  32.536  0.00  0.00    -0.274 OA
ATOM      8  N   UNL     1     -14.822   2.951  33.704  0.00  0.00    -0.310 N 
ATOM     15  C   UNL     1     -13.978   3.959  33.270  0.00  0.00    +0.231 C 
ATOM     33  H   UNL     1     -15.592   3.186  34.324  0.00  0.00    +0.149 HD
BRANCH   8  18
ATOM     18  C   UNL     1     -14.653   1.565  33.335  0.00  0.00    +0.139 C 
BRANCH  18  21
ATOM     21  C   UNL     1     -15.049   1.310  31.910  0.00  0.00    -0.030 A 
ATOM     25  C   UNL     1     -14.674   0.123  31.282  0.00  0.00    +0.009 A 
ATOM     26  C   UNL     1     -15.793   2.262  31.213  0.00  0.00    +0.009 A 
ATOM     28  C   UNL     1     -15.043  -0.113  29.958  0.00  0.00    +0.046 A 
ATOM     29  C   UNL     1     -16.162   2.026  29.888  0.00  0.00    +0.046 A 
ATOM     30  C   UNL     1     -15.787   0.838  29.261  0.00  0.00    +0.120 A 
BRANCH  30   2
ATOM      2  O   UNL     1     -16.148   0.607  27.969  0.00  0.00    -0.495 OA
ATOM     31  C   UNL     1     -17.465   0.998  27.583  0.00  0.00    +0.277 C 
ENDBRANCH  30   2
ENDBRANCH  18  21
ENDBRANCH   8  18
ENDBRANCH   9  15
BRANCH   5  14
ATOM     14  C   UNL     1     -14.358   7.634  33.066  0.00  0.00    +0.120 C 
BRANCH  14  16
ATOM     16  C   UNL     1     -13.544   8.507  32.155  0.00  0.00    -0.033 A 
ATOM     19  C   UNL     1     -12.153   8.412  32.159  0.00  0.00    +0.006 A 
ATOM     20  C   UNL     1     -14.180   9.413  31.306  0.00  0.00    +0.006 A 
ATOM     22  C   UNL     1     -11.397   9.223  31.312  0.00  0.00    +0.015 A 
ATOM     23  C   UNL     1     -13.425  10.224  30.459  0.00  0.00    +0.015 A 
ATOM     24  C   UNL     1     -12.032  10.129  30.463  0.00  0.00    +0.059 A 
BRANCH  24  27
ATOM      4  O   UNL     1     -11.113  10.809  28.362  0.00  0.00    -0.245 OA
ATOM     27  C   UNL     1     -11.245  10.974  29.578  0.00  0.00    +0.337 C 
BRANCH  27   3
ATOM      3  O   UNL     1     -10.645  12.002  30.239  0.00  0.00    -0.477 OA
ATOM     34  H   UNL     1      -9.767  11.745  30.593  0.00  0.00    +0.295 HD
ENDBRANCH  27   3
ENDBRANCH  24  27
ENDBRANCH  14  16
ENDBRANCH   5  14
TORSDOF 8
ENDMDL
MODEL 6
REMARK VINA RESULT:      -6.4      4.201      6.949
REMARK  Name = 26745297
REMARK  9 active torsions:
REMARK  status: ('A' for Active; 'I' for Inactive)
REMARK    1  A    between atoms: O_2  and  C_30
REMARK    2  A    between atoms: O_2  and  C_31
REMARK    3  A    between atoms: O_3  and  C_27
REMARK    4  A    between atoms: N_5  and  C_14
REMARK    5  A    between atoms: N_8  and  C_18
REMARK    6  A    between atoms: C_9  and  C_15
REMARK    7  A    between atoms: C_14  and  C_16
REMARK    8  A    between atoms: C_18  and  C_21
REMARK    9  A    between atoms: C_24  and  C_27
REMARK                            x       y       z     vdW  Elec       q    Type
REMARK                         _______ _______ _______ _____ _____    ______ ____
ROOT
ATOM      5  N   UNL     1      10.561   5.876   3.852  0.00  0.00    -0.281 NA
ATOM      6  N   UNL     1      11.590   6.102   7.463  0.00  0.00    -0.347 N 
ATOM      7  N   UNL     1       9.432   5.723   7.905  0.00  0.00    -0.240 NA
ATOM      9  C   UNL     1       9.142   6.221   4.135  0.00  0.00    +0.150 C 
ATOM     10  C   UNL     1       8.582   5.766   5.512  0.00  0.00    +0.085 C 
ATOM     11  C   UNL     1      11.508   6.315   4.913  0.00  0.00    +0.140 C 
ATOM     12  C   UNL     1      10.946   6.096   6.264  0.00  0.00    +0.053 A 
ATOM     13  C   UNL     1       9.625   5.867   6.560  0.00  0.00    +0.065 A 
ATOM     17  C   UNL     1      10.635   5.872   8.422  0.00  0.00    +0.197 A 
ATOM     32  H   UNL     1      12.579   6.249   7.622  0.00  0.00    +0.167 HD
ENDROOT
BRANCH   9  15
ATOM      1  O   UNL     1       9.898   8.383   3.450  0.00  0.00    -0.274 OA
ATOM      8  N   UNL     1       7.824   8.193   4.492  0.00  0.00    -0.310 N 
ATOM     15  C   UNL     1       9.013   7.710   3.973  0.00  0.00    +0.231 C 
ATOM     33  H   UNL     1       7.157   7.538   4.890  0.00  0.00    +0.149 HD
BRANCH   8  18
ATOM     18  C   UNL     1       7.468   9.593   4.481  0.00  0.00    +0.139 C 
BRANCH  18  21
ATOM     21  C   UNL     1       6.443   9.904   3.430  0.00  0.00    -0.030 A 
ATOM     25  C   UNL     1       5.263  10.562   3.779  0.00  0.00    +0.009 A 
ATOM     26  C   UNL     1       6.669   9.535   2.104  0.00  0.00    +0.009 A 
ATOM     28  C   UNL     1       4.311  10.851   2.802  0.00  0.00    +0.046 A 
ATOM     29  C   UNL     1       5.717   9.825   1.127  0.00  0.00    +0.046 A 
ATOM     30  C   UNL     1       4.537  10.482   1.476  0.00  0.00    +0.120 A 
BRANCH  30   2
ATOM      2  O   UNL     1       3.608  10.766   0.523  0.00  0.00    -0.495 OA
ATOM     31  C   UNL     1       3.452  12.136   0.156  0.00  0.00    +0.277 C 
ENDBRANCH  30   2
ENDBRANCH  18  21
ENDBRANCH   8  18
ENDBRANCH   9  15
BRANCH   5  14
ATOM     14  C   UNL     1      10.705   4.442   3.579  0.00  0.00    +0.120 C 
BRANCH  14  16
ATOM     16  C   UNL     1      11.210   4.183   2.189  0.00  0.00    -0.033 A 
ATOM     19  C   UNL     1      10.441   4.557   1.088  0.00  0.00    +0.006 A 
ATOM     20  C   UNL     1      12.448   3.567   2.001  0.00  0.00    +0.006 A 
ATOM     22  C   UNL     1      10.911   4.316  -0.204  0.00  0.00    +0.015 A 
ATOM     23  C   UNL     1      12.917   3.326   0.710  0.00  0.00    +0.015 A 
ATOM     24  C   UNL     1      12.148   3.701  -0.393  0.00  0.00    +0.059 A 
BRANCH  24  27
ATOM      4  O   UNL     1      12.322   2.490  -2.449  0.00  0.00    -0.245 OA
ATOM     27  C   UNL     1      12.639   3.450  -1.739  0.00  0.00    +0.337 C 
BRANCH  27   3
ATOM      3  O   UNL     1      13.511   4.406  -2.162  0.00  0.00    -0.477 OA
ATOM     34  H   UNL     1      14.345   4.393  -1.645  0.00  0.00    +0.295 HD
ENDBRANCH  27   3
ENDBRANCH  24  27
ENDBRANCH  14  16
ENDBRANCH   5  14
TORSDOF 8
ENDMDL
MODEL 7
REMARK VINA RESULT:      -6.3     26.935     31.125
REMARK  Name = 26745297
REMARK  9 active torsions:
REMARK  status: ('A' for Active; 'I' for Inactive)
REMARK    1  A    between atoms: O_2  and  C_30
REMARK    2  A    between atoms: O_2  and  C_31
REMARK    3  A    between atoms: O_3  and  C_27
REMARK    4  A    between atoms: N_5  and  C_14
REMARK    5  A    between atoms: N_8  and  C_18
REMARK    6  A    between atoms: C_9  and  C_15
REMARK    7  A    between atoms: C_14  and  C_16
REMARK    8  A    between atoms: C_18  and  C_21
REMARK    9  A    between atoms: C_24  and  C_27
REMARK                            x       y       z     vdW  Elec       q    Type
REMARK                         _______ _______ _______ _____ _____    ______ ____
ROOT
ATOM      5  N   UNL     1     -15.360   7.264  21.486  0.00  0.00    -0.281 NA
ATOM      6  N   UNL     1     -16.838   6.080  24.737  0.00  0.00    -0.347 N 
ATOM      7  N   UNL     1     -15.708   4.192  24.343  0.00  0.00    -0.240 NA
ATOM      9  C   UNL     1     -15.137   5.885  20.975  0.00  0.00    +0.150 C 
ATOM     10  C   UNL     1     -14.828   4.795  22.039  0.00  0.00    +0.085 C 
ATOM     11  C   UNL     1     -16.391   7.347  22.557  0.00  0.00    +0.140 C 
ATOM     12  C   UNL     1     -16.282   6.214  23.501  0.00  0.00    +0.053 A 
ATOM     13  C   UNL     1     -15.599   5.043  23.280  0.00  0.00    +0.065 A 
ATOM     17  C   UNL     1     -16.463   4.845  25.205  0.00  0.00    +0.197 A 
ATOM     32  H   UNL     1     -17.418   6.756  25.219  0.00  0.00    +0.167 HD
ENDROOT
BRANCH   9  15
ATOM      1  O   UNL     1     -16.985   4.486  20.391  0.00  0.00    -0.274 OA
ATOM      8  N   UNL     1     -16.628   6.442  19.180  0.00  0.00    -0.310 N 
ATOM     15  C   UNL     1     -16.352   5.515  20.170  0.00  0.00    +0.231 C 
ATOM     33  H   UNL     1     -16.041   7.267  19.099  0.00  0.00    +0.149 HD
BRANCH   8  18
ATOM     18  C   UNL     1     -17.731   6.307  18.257  0.00  0.00    +0.139 C 
BRANCH  18  21
ATOM     21  C   UNL     1     -17.262   6.166  16.838  0.00  0.00    -0.030 A 
ATOM     25  C   UNL     1     -16.473   7.161  16.260  0.00  0.00    +0.009 A 
ATOM     26  C   UNL     1     -17.615   5.039  16.096  0.00  0.00    +0.009 A 
ATOM     28  C   UNL     1     -16.037   7.029  14.942  0.00  0.00    +0.046 A 
ATOM     29  C   UNL     1     -17.179   4.906  14.778  0.00  0.00    +0.046 A 
ATOM     30  C   UNL     1     -16.391   5.901  14.200  0.00  0.00    +0.120 A 
BRANCH  30   2
ATOM      2  O   UNL     1     -15.965   5.772  12.915  0.00  0.00    -0.495 OA
ATOM     31  C   UNL     1     -14.698   6.344  12.589  0.00  0.00    +0.277 C 
ENDBRANCH  30   2
ENDBRANCH  18  21
ENDBRANCH   8  18
ENDBRANCH   9  15
BRANCH   5  14
ATOM     14  C   UNL     1     -14.098   7.869  21.922  0.00  0.00    +0.120 C 
BRANCH  14  16
ATOM     16  C   UNL     1     -13.141   8.058  20.781  0.00  0.00    -0.033 A 
ATOM     19  C   UNL     1     -11.839   7.568  20.878  0.00  0.00    +0.006 A 
ATOM     20  C   UNL     1     -13.554   8.722  19.627  0.00  0.00    +0.006 A 
ATOM     22  C   UNL     1     -10.949   7.743  19.817  0.00  0.00    +0.015 A 
ATOM     23  C   UNL     1     -12.664   8.897  18.567  0.00  0.00    +0.015 A 
ATOM     24  C   UNL     1     -11.361   8.408  18.663  0.00  0.00    +0.059 A 
BRANCH  24  27
ATOM      4  O   UNL     1     -10.557   8.095  16.432  0.00  0.00    -0.245 OA
ATOM     27  C   UNL     1     -10.434   8.589  17.556  0.00  0.00    +0.337 C 
BRANCH  27   3
ATOM      3  O   UNL     1      -9.380   9.385  17.886  0.00  0.00    -0.477 OA
ATOM     34  H   UNL     1      -8.839   8.994  18.606  0.00  0.00    +0.295 HD
ENDBRANCH  27   3
ENDBRANCH  24  27
ENDBRANCH  14  16
ENDBRANCH   5  14
TORSDOF 8
ENDMDL
MODEL 8
REMARK VINA RESULT:      -6.2     25.585     29.762
REMARK  Name = 26745297
REMARK  9 active torsions:
REMARK  status: ('A' for Active; 'I' for Inactive)
REMARK    1  A    between atoms: O_2  and  C_30
REMARK    2  A    between atoms: O_2  and  C_31
REMARK    3  A    between atoms: O_3  and  C_27
REMARK    4  A    between atoms: N_5  and  C_14
REMARK    5  A    between atoms: N_8  and  C_18
REMARK    6  A    between atoms: C_9  and  C_15
REMARK    7  A    between atoms: C_14  and  C_16
REMARK    8  A    between atoms: C_18  and  C_21
REMARK    9  A    between atoms: C_24  and  C_27
REMARK                            x       y       z     vdW  Elec       q    Type
REMARK                         _______ _______ _______ _____ _____    ______ ____
ROOT
ATOM      5  N   UNL     1      -8.710 -12.131  17.534  0.00  0.00    -0.281 NA
ATOM      6  N   UNL     1      -9.004 -15.510  19.161  0.00  0.00    -0.347 N 
ATOM      7  N   UNL     1      -9.736 -14.377  20.944  0.00  0.00    -0.240 NA
ATOM      9  C   UNL     1      -8.611 -11.408  18.831  0.00  0.00    +0.150 C 
ATOM     10  C   UNL     1      -9.375 -12.035  20.031  0.00  0.00    +0.085 C 
ATOM     11  C   UNL     1      -8.349 -13.572  17.621  0.00  0.00    +0.140 C 
ATOM     12  C   UNL     1      -8.879 -14.189  18.857  0.00  0.00    +0.053 A 
ATOM     13  C   UNL     1      -9.328 -13.515  19.966  0.00  0.00    +0.065 A 
ATOM     17  C   UNL     1      -9.527 -15.573  20.429  0.00  0.00    +0.197 A 
ATOM     32  H   UNL     1      -8.760 -16.295  18.571  0.00  0.00    +0.167 HD
ENDROOT
BRANCH   9  15
ATOM      1  O   UNL     1      -6.701 -11.504  20.266  0.00  0.00    -0.274 OA
ATOM      8  N   UNL     1      -6.413 -10.849  18.050  0.00  0.00    -0.310 N 
ATOM     15  C   UNL     1      -7.147 -11.272  19.145  0.00  0.00    +0.231 C 
ATOM     33  H   UNL     1      -6.889 -10.701  17.164  0.00  0.00    +0.149 HD
BRANCH   8  18
ATOM     18  C   UNL     1      -4.988 -10.620  18.094  0.00  0.00    +0.139 C 
BRANCH  18  21
ATOM     21  C   UNL     1      -4.374 -10.625  16.724  0.00  0.00    -0.030 A 
ATOM     25  C   UNL     1      -5.182 -10.479  15.597  0.00  0.00    +0.009 A 
ATOM     26  C   UNL     1      -2.995 -10.776  16.579  0.00  0.00    +0.009 A 
ATOM     28  C   UNL     1      -4.611 -10.483  14.324  0.00  0.00    +0.046 A 
ATOM     29  C   UNL     1      -2.425 -10.781  15.306  0.00  0.00    +0.046 A 
ATOM     30  C   UNL     1      -3.232 -10.634  14.179  0.00  0.00    +0.120 A 
BRANCH  30   2
ATOM      2  O   UNL     1      -2.676 -10.638  12.937  0.00  0.00    -0.495 OA
ATOM     31  C   UNL     1      -2.153 -11.879  12.463  0.00  0.00    +0.277 C 
ENDBRANCH  30   2
ENDBRANCH  18  21
ENDBRANCH   8  18
ENDBRANCH   9  15
BRANCH   5  14
ATOM     14  C   UNL     1     -10.040 -11.957  16.941  0.00  0.00    +0.120 C 
BRANCH  14  16
ATOM     16  C   UNL     1     -10.337 -10.516  16.640  0.00  0.00    -0.033 A 
ATOM     19  C   UNL     1     -11.443  -9.898  17.221  0.00  0.00    +0.006 A 
ATOM     20  C   UNL     1      -9.507  -9.798  15.779  0.00  0.00    +0.006 A 
ATOM     22  C   UNL     1     -11.719  -8.559  16.942  0.00  0.00    +0.015 A 
ATOM     23  C   UNL     1      -9.783  -8.459  15.500  0.00  0.00    +0.015 A 
ATOM     24  C   UNL     1     -10.890  -7.840  16.081  0.00  0.00    +0.059 A 
BRANCH  24  27
ATOM      4  O   UNL     1     -11.509  -5.996  14.689  0.00  0.00    -0.245 OA
ATOM     27  C   UNL     1     -11.177  -6.444  15.791  0.00  0.00    +0.337 C 
BRANCH  27   3
ATOM      3  O   UNL     1     -11.041  -5.646  16.885  0.00  0.00    -0.477 OA
ATOM     34  H   UNL     1     -10.098  -5.475  17.097  0.00  0.00    +0.295 HD
ENDBRANCH  27   3
ENDBRANCH  24  27
ENDBRANCH  14  16
ENDBRANCH   5  14
TORSDOF 8
ENDMDL
MODEL 9
REMARK VINA RESULT:      -6.2     24.279     27.388
REMARK  Name = 26745297
REMARK  9 active torsions:
REMARK  status: ('A' for Active; 'I' for Inactive)
REMARK    1  A    between atoms: O_2  and  C_30
REMARK    2  A    between atoms: O_2  and  C_31
REMARK    3  A    between atoms: O_3  and  C_27
REMARK    4  A    between atoms: N_5  and  C_14
REMARK    5  A    between atoms: N_8  and  C_18
REMARK    6  A    between atoms: C_9  and  C_15
REMARK    7  A    between atoms: C_14  and  C_16
REMARK    8  A    between atoms: C_18  and  C_21
REMARK    9  A    between atoms: C_24  and  C_27
REMARK                            x       y       z     vdW  Elec       q    Type
REMARK                         _______ _______ _______ _____ _____    ______ ____
ROOT
ATOM      5  N   UNL     1      -2.593 -12.064  12.717  0.00  0.00    -0.281 NA
ATOM      6  N   UNL     1      -1.930 -15.284  14.544  0.00  0.00    -0.347 N 
ATOM      7  N   UNL     1      -4.138 -15.323  14.888  0.00  0.00    -0.240 NA
ATOM      9  C   UNL     1      -3.870 -11.807  13.436  0.00  0.00    +0.150 C 
ATOM     10  C   UNL     1      -4.681 -13.060  13.873  0.00  0.00    +0.085 C 
ATOM     11  C   UNL     1      -1.677 -12.990  13.435  0.00  0.00    +0.140 C 
ATOM     12  C   UNL     1      -2.417 -14.111  14.055  0.00  0.00    +0.053 A 
ATOM     13  C   UNL     1      -3.770 -14.155  14.283  0.00  0.00    +0.065 A 
ATOM     17  C   UNL     1      -3.006 -15.982  15.034  0.00  0.00    +0.197 A 
ATOM     32  H   UNL     1      -0.964 -15.587  14.549  0.00  0.00    +0.167 HD
ENDROOT
BRANCH   9  15
ATOM      1  O   UNL     1      -2.490 -10.309  14.688  0.00  0.00    -0.274 OA
ATOM      8  N   UNL     1      -4.523 -10.992  15.595  0.00  0.00    -0.310 N 
ATOM     15  C   UNL     1      -3.538 -10.947  14.623  0.00  0.00    +0.231 C 
ATOM     33  H   UNL     1      -5.358 -11.545  15.426  0.00  0.00    +0.149 HD
BRANCH   8  18
ATOM     18  C   UNL     1      -4.435 -10.270  16.844  0.00  0.00    +0.139 C 
BRANCH  18  21
ATOM     21  C   UNL     1      -5.651 -10.477  17.700  0.00  0.00    -0.030 A 
ATOM     25  C   UNL     1      -5.555 -11.211  18.882  0.00  0.00    +0.009 A 
ATOM     26  C   UNL     1      -6.876  -9.935  17.313  0.00  0.00    +0.009 A 
ATOM     28  C   UNL     1      -6.685 -11.402  19.677  0.00  0.00    +0.046 A 
ATOM     29  C   UNL     1      -8.006 -10.127  18.108  0.00  0.00    +0.046 A 
ATOM     30  C   UNL     1      -7.911 -10.861  19.290  0.00  0.00    +0.120 A 
BRANCH  30   2
ATOM      2  O   UNL     1      -9.013 -11.046  20.066  0.00  0.00    -0.495 OA
ATOM     31  C   UNL     1      -9.620 -12.338  20.033  0.00  0.00    +0.277 C 
ENDBRANCH  30   2
ENDBRANCH  18  21
ENDBRANCH   8  18
ENDBRANCH   9  15
BRANCH   5  14
ATOM     14  C   UNL     1      -2.849 -12.530  11.351  0.00  0.00    +0.120 C 
BRANCH  14  16
ATOM     16  C   UNL     1      -3.710 -11.571  10.581  0.00  0.00    -0.033 A 
ATOM     19  C   UNL     1      -3.295 -10.252  10.404  0.00  0.00    +0.006 A 
ATOM     20  C   UNL     1      -4.924 -12.000  10.044  0.00  0.00    +0.006 A 
ATOM     22  C   UNL     1      -4.094  -9.360   9.688  0.00  0.00    +0.015 A 
ATOM     23  C   UNL     1      -5.723 -11.109   9.328  0.00  0.00    +0.015 A 
ATOM     24  C   UNL     1      -5.308  -9.788   9.151  0.00  0.00    +0.059 A 
BRANCH  24  27
ATOM      4  O   UNL     1      -6.876  -7.999   8.900  0.00  0.00    -0.245 OA
ATOM     27  C   UNL     1      -6.143  -8.859   8.404  0.00  0.00    +0.337 C 
BRANCH  27   3
ATOM      3  O   UNL     1      -6.035  -9.031   7.058  0.00  0.00    -0.477 OA
ATOM     34  H   UNL     1      -5.694  -8.226   6.613  0.00  0.00    +0.295 HD
ENDBRANCH  27   3
ENDBRANCH  24  27
ENDBRANCH  14  16
ENDBRANCH   5  14
TORSDOF 8
ENDMDL
MODEL 10
REMARK VINA RESULT:      -6.2     27.956     31.445
REMARK  Name = 26745297
REMARK  9 active torsions:
REMARK  status: ('A' for Active; 'I' for Inactive)
REMARK    1  A    between atoms: O_2  and  C_30
REMARK    2  A    between atoms: O_2  and  C_31
REMARK    3  A    between atoms: O_3  and  C_27
REMARK    4  A    between atoms: N_5  and  C_14
REMARK    5  A    between atoms: N_8  and  C_18
REMARK    6  A    between atoms: C_9  and  C_15
REMARK    7  A    between atoms: C_14  and  C_16
REMARK    8  A    between atoms: C_18  and  C_21
REMARK    9  A    between atoms: C_24  and  C_27
REMARK                            x       y       z     vdW  Elec       q    Type
REMARK                         _______ _______ _______ _____ _____    ______ ____
ROOT
ATOM      5  N   UNL     1      -9.427  -9.959  16.597  0.00  0.00    -0.281 NA
ATOM      6  N   UNL     1     -11.554  -8.737  13.745  0.00  0.00    -0.347 N 
ATOM      7  N   UNL     1     -11.633  -6.812  14.879  0.00  0.00    -0.240 NA
ATOM      9  C   UNL     1      -9.967  -8.957  17.555  0.00  0.00    +0.150 C 
ATOM     10  C   UNL     1     -10.395  -7.588  16.955  0.00  0.00    +0.085 C 
ATOM     11  C   UNL     1     -10.317 -10.214  15.431  0.00  0.00    +0.140 C 
ATOM     12  C   UNL     1     -10.925  -8.961  14.931  0.00  0.00    +0.053 A 
ATOM     13  C   UNL     1     -10.991  -7.770  15.610  0.00  0.00    +0.065 A 
ATOM     17  C   UNL     1     -11.963  -7.426  13.759  0.00  0.00    +0.197 A 
ATOM     32  H   UNL     1     -11.697  -9.403  12.997  0.00  0.00    +0.167 HD
ENDROOT
BRANCH   9  15
ATOM      1  O   UNL     1     -12.271  -9.201  18.146  0.00  0.00    -0.274 OA
ATOM      8  N   UNL     1     -10.713 -10.672  19.058  0.00  0.00    -0.310 N 
ATOM     15  C   UNL     1     -11.119  -9.610  18.268  0.00  0.00    +0.231 C 
ATOM     33  H   UNL     1      -9.730 -10.930  19.070  0.00  0.00    +0.149 HD
BRANCH   8  18
ATOM     18  C   UNL     1     -11.624 -11.452  19.862  0.00  0.00    +0.139 C 
BRANCH  18  21
ATOM     21  C   UNL     1     -10.943 -12.624  20.507  0.00  0.00    -0.030 A 
ATOM     25  C   UNL     1     -11.581 -13.327  21.529  0.00  0.00    +0.009 A 
ATOM     26  C   UNL     1      -9.671 -13.009  20.086  0.00  0.00    +0.009 A 
ATOM     28  C   UNL     1     -10.948 -14.416  22.128  0.00  0.00    +0.046 A 
ATOM     29  C   UNL     1      -9.037 -14.098  20.685  0.00  0.00    +0.046 A 
ATOM     30  C   UNL     1      -9.676 -14.801  21.706  0.00  0.00    +0.120 A 
BRANCH  30   2
ATOM      2  O   UNL     1      -9.058 -15.864  22.290  0.00  0.00    -0.495 OA
ATOM     31  C   UNL     1      -8.326 -15.612  23.489  0.00  0.00    +0.277 C 
ENDBRANCH  30   2
ENDBRANCH  18  21
ENDBRANCH   8  18
ENDBRANCH   9  15
BRANCH   5  14
ATOM     14  C   UNL     1      -8.079  -9.587  16.158  0.00  0.00    +0.120 C 
BRANCH  14  16
ATOM     16  C   UNL     1      -7.017 -10.348  16.898  0.00  0.00    -0.033 A 
ATOM     19  C   UNL     1      -7.349 -11.513  17.589  0.00  0.00    +0.006 A 
ATOM     20  C   UNL     1      -5.700  -9.890  16.894  0.00  0.00    +0.006 A 
ATOM     22  C   UNL     1      -6.363 -12.221  18.276  0.00  0.00    +0.015 A 
ATOM     23  C   UNL     1      -4.714 -10.597  17.582  0.00  0.00    +0.015 A 
ATOM     24  C   UNL     1      -5.046 -11.763  18.274  0.00  0.00    +0.059 A 
BRANCH  24  27
ATOM      4  O   UNL     1      -3.242 -12.021  19.823  0.00  0.00    -0.245 OA
ATOM     27  C   UNL     1      -4.016 -12.500  18.990  0.00  0.00    +0.337 C 
BRANCH  27   3
ATOM      3  O   UNL     1      -3.984 -13.816  18.644  0.00  0.00    -0.477 OA
ATOM     34  H   UNL     1      -3.169 -14.258  18.966  0.00  0.00    +0.295 HD
ENDBRANCH  27   3
ENDBRANCH  24  27
ENDBRANCH  14  16
ENDBRANCH   5  14
TORSDOF 8
ENDMDL
