MODEL 1
REMARK VINA RESULT:      -7.0      0.000      0.000
REMARK  Name = 11886088
REMARK  9 active torsions:
REMARK  status: ('A' for Active; 'I' for Inactive)
REMARK    1  A    between atoms: O_3  and  C_16
REMARK    2  A    between atoms: O_3  and  C_21
REMARK    3  A    between atoms: N_7  and  C_15
REMARK    4  A    between atoms: N_11  and  C_32
REMARK    5  A    between atoms: N_12  and  C_25
REMARK    6  A    between atoms: C_19  and  C_20
REMARK    7  A    between atoms: C_24  and  C_25
REMARK    8  A    between atoms: C_37  and  C_38
REMARK    9  A    between atoms: C_38  and  C_39
REMARK                            x       y       z     vdW  Elec       q    Type
REMARK                         _______ _______ _______ _____ _____    ______ ____
ROOT
ATOM      1  O   UNL     1      12.844  10.140   5.948  0.00  0.00    -0.368 OA
ATOM      2  O   UNL     1      12.929   6.762   6.813  0.00  0.00    -0.368 OA
ATOM     13  C   UNL     1      12.284   8.033   6.938  0.00  0.00    +0.177 C 
ATOM     14  C   UNL     1      13.347   9.106   6.790  0.00  0.00    +0.192 C 
ATOM     15  C   UNL     1      11.339   8.314   5.782  0.00  0.00    +0.168 C 
ATOM     16  C   UNL     1      14.529   8.371   6.191  0.00  0.00    +0.235 C 
ATOM     17  C   UNL     1      11.487   9.821   5.600  0.00  0.00    +0.190 C 
ATOM     18  C   UNL     1      14.351   6.984   6.776  0.00  0.00    +0.207 C 
ENDROOT
BRANCH  15   7
ATOM      7  N   UNL     1       9.973   7.848   5.973  0.00  0.00    -0.217 N 
ATOM      8  N   UNL     1       9.213   8.341   6.960  0.00  0.00    -0.043 NA
ATOM      9  N   UNL     1       8.072   6.819   5.796  0.00  0.00    -0.108 NA
ATOM     10  N   UNL     1       8.051   7.708   6.847  0.00  0.00    -0.023 NA
ATOM     19  C   UNL     1       9.270   6.922   5.270  0.00  0.00    +0.182 A 
BRANCH  19  20
ATOM     20  C   UNL     1       9.786   6.193   4.139  0.00  0.00    +0.021 A 
ATOM     22  C   UNL     1      10.379   4.944   4.326  0.00  0.00    +0.012 A 
ATOM     23  C   UNL     1       9.694   6.736   2.858  0.00  0.00    +0.012 A 
ATOM     24  C   UNL     1      10.785   4.781   1.951  0.00  0.00    -0.033 A 
ATOM     26  C   UNL     1      10.877   4.238   3.232  0.00  0.00    +0.005 A 
ATOM     27  C   UNL     1      10.193   6.030   1.763  0.00  0.00    +0.005 A 
BRANCH  24  25
ATOM     25  C   UNL     1      11.319   4.026   0.780  0.00  0.00    +0.119 C 
BRANCH  25  12
ATOM      5  O   UNL     1      15.242   3.919  -0.708  0.00  0.00    -0.377 OA
ATOM     12  N   UNL     1      12.686   4.417   0.442  0.00  0.00    -0.294 NA
ATOM     28  C   UNL     1      13.659   3.523   1.087  0.00  0.00    +0.113 C 
ATOM     29  C   UNL     1      12.886   4.410  -1.014  0.00  0.00    +0.113 C 
ATOM     30  C   UNL     1      15.076   3.943   0.710  0.00  0.00    +0.175 C 
ATOM     31  C   UNL     1      14.322   4.808  -1.341  0.00  0.00    +0.175 C 
ENDBRANCH  25  12
ENDBRANCH  24  25
ENDBRANCH  19  20
ENDBRANCH  15   7
BRANCH  16   3
ATOM      3  O   UNL     1      14.415   8.296   4.774  0.00  0.00    -0.442 OA
BRANCH   3  21
ATOM      4  O   UNL     1      15.322   6.684   3.429  0.00  0.00    -0.226 OA
ATOM     11  N   UNL     1      16.615   8.433   4.295  0.00  0.00    -0.251 N 
ATOM     21  C   UNL     1      15.458   7.703   4.095  0.00  0.00    +0.405 C 
ATOM     40  H   UNL     1      16.529   9.258   4.883  0.00  0.00    +0.158 HD
BRANCH  11  32
ATOM     32  C   UNL     1      17.906   8.176   3.782  0.00  0.00    +0.036 A 
ATOM     33  C   UNL     1      18.932   7.780   4.639  0.00  0.00    +0.024 A 
ATOM     34  C   UNL     1      18.155   8.321   2.416  0.00  0.00    +0.024 A 
ATOM     35  C   UNL     1      20.206   7.527   4.132  0.00  0.00    +0.013 A 
ATOM     36  C   UNL     1      19.430   8.067   1.909  0.00  0.00    +0.013 A 
ATOM     37  C   UNL     1      20.455   7.671   2.767  0.00  0.00    +0.017 A 
BRANCH  37  38
ATOM      6  O   UNL     1      22.067   6.318   1.701  0.00  0.00    -0.292 OA
ATOM     38  C   UNL     1      21.784   7.407   2.239  0.00  0.00    +0.160 C 
ATOM     39  C   UNL     1      22.874   8.470   2.334  0.00  0.00    +0.091 C 
ENDBRANCH  37  38
ENDBRANCH  11  32
ENDBRANCH   3  21
ENDBRANCH  16   3
TORSDOF 8
ENDMDL
MODEL 2
REMARK VINA RESULT:      -6.9     26.972     30.578
REMARK  Name = 11886088
REMARK  9 active torsions:
REMARK  status: ('A' for Active; 'I' for Inactive)
REMARK    1  A    between atoms: O_3  and  C_16
REMARK    2  A    between atoms: O_3  and  C_21
REMARK    3  A    between atoms: N_7  and  C_15
REMARK    4  A    between atoms: N_11  and  C_32
REMARK    5  A    between atoms: N_12  and  C_25
REMARK    6  A    between atoms: C_19  and  C_20
REMARK    7  A    between atoms: C_24  and  C_25
REMARK    8  A    between atoms: C_37  and  C_38
REMARK    9  A    between atoms: C_38  and  C_39
REMARK                            x       y       z     vdW  Elec       q    Type
REMARK                         _______ _______ _______ _____ _____    ______ ____
ROOT
ATOM      1  O   UNL     1     -11.992  -5.424  14.833  0.00  0.00    -0.368 OA
ATOM      2  O   UNL     1     -14.540  -7.718  14.190  0.00  0.00    -0.368 OA
ATOM     13  C   UNL     1     -14.126  -6.350  14.266  0.00  0.00    +0.177 C 
ATOM     14  C   UNL     1     -13.041  -6.255  15.322  0.00  0.00    +0.192 C 
ATOM     15  C   UNL     1     -13.422  -5.891  12.999  0.00  0.00    +0.168 C 
ATOM     16  C   UNL     1     -12.613  -7.693  15.538  0.00  0.00    +0.235 C 
ATOM     17  C   UNL     1     -12.375  -4.925  13.541  0.00  0.00    +0.190 C 
ATOM     18  C   UNL     1     -13.903  -8.437  15.261  0.00  0.00    +0.207 C 
ENDROOT
BRANCH  15   7
ATOM      7  N   UNL     1     -14.295  -5.342  11.972  0.00  0.00    -0.217 N 
ATOM      8  N   UNL     1     -15.579  -5.068  12.239  0.00  0.00    -0.043 NA
ATOM      9  N   UNL     1     -15.109  -4.561  10.120  0.00  0.00    -0.108 NA
ATOM     10  N   UNL     1     -16.072  -4.590  11.103  0.00  0.00    -0.023 NA
ATOM     19  C   UNL     1     -14.017  -5.030  10.679  0.00  0.00    +0.182 A 
BRANCH  19  20
ATOM     20  C   UNL     1     -12.728  -5.200  10.058  0.00  0.00    +0.021 A 
ATOM     22  C   UNL     1     -12.309  -6.468   9.656  0.00  0.00    +0.012 A 
ATOM     23  C   UNL     1     -11.899  -4.096   9.860  0.00  0.00    +0.012 A 
ATOM     24  C   UNL     1     -10.233  -5.528   8.856  0.00  0.00    -0.033 A 
ATOM     26  C   UNL     1     -11.062  -6.632   9.054  0.00  0.00    +0.005 A 
ATOM     27  C   UNL     1     -10.651  -4.259   9.259  0.00  0.00    +0.005 A 
BRANCH  24  25
ATOM     25  C   UNL     1      -8.898  -5.703   8.213  0.00  0.00    +0.119 C 
BRANCH  25  12
ATOM      5  O   UNL     1      -6.954  -9.166   6.857  0.00  0.00    -0.377 OA
ATOM     12  N   UNL     1      -8.631  -7.095   7.857  0.00  0.00    -0.294 NA
ATOM     28  C   UNL     1      -8.333  -7.219   6.423  0.00  0.00    +0.113 C 
ATOM     29  C   UNL     1      -7.516  -7.631   8.650  0.00  0.00    +0.113 C 
ATOM     30  C   UNL     1      -8.045  -8.677   6.078  0.00  0.00    +0.175 C 
ATOM     31  C   UNL     1      -7.247  -9.080   8.252  0.00  0.00    +0.175 C 
ENDBRANCH  25  12
ENDBRANCH  24  25
ENDBRANCH  19  20
ENDBRANCH  15   7
BRANCH  16   3
ATOM      3  O   UNL     1     -11.636  -8.080  14.578  0.00  0.00    -0.442 OA
BRANCH   3  21
ATOM      4  O   UNL     1     -10.368  -9.966  14.316  0.00  0.00    -0.226 OA
ATOM     11  N   UNL     1     -10.192  -8.622  16.225  0.00  0.00    -0.251 N 
ATOM     21  C   UNL     1     -10.686  -8.993  14.989  0.00  0.00    +0.405 C 
ATOM     40  H   UNL     1     -10.582  -7.774  16.629  0.00  0.00    +0.158 HD
BRANCH  11  32
ATOM     32  C   UNL     1      -9.209  -9.275  17.001  0.00  0.00    +0.036 A 
ATOM     33  C   UNL     1      -9.587 -10.050  18.098  0.00  0.00    +0.024 A 
ATOM     34  C   UNL     1      -7.860  -9.146  16.671  0.00  0.00    +0.024 A 
ATOM     35  C   UNL     1      -8.616 -10.694  18.865  0.00  0.00    +0.013 A 
ATOM     36  C   UNL     1      -6.888  -9.791  17.438  0.00  0.00    +0.013 A 
ATOM     37  C   UNL     1      -7.267 -10.565  18.534  0.00  0.00    +0.017 A 
BRANCH  37  38
ATOM      6  O   UNL     1      -6.302 -11.235  20.580  0.00  0.00    -0.292 OA
ATOM     38  C   UNL     1      -6.255 -11.237  19.334  0.00  0.00    +0.160 C 
ATOM     39  C   UNL     1      -5.101 -11.967  18.657  0.00  0.00    +0.091 C 
ENDBRANCH  37  38
ENDBRANCH  11  32
ENDBRANCH   3  21
ENDBRANCH  16   3
TORSDOF 8
ENDMDL
MODEL 3
REMARK VINA RESULT:      -6.9     13.266     16.161
REMARK  Name = 11886088
REMARK  9 active torsions:
REMARK  status: ('A' for Active; 'I' for Inactive)
REMARK    1  A    between atoms: O_3  and  C_16
REMARK    2  A    between atoms: O_3  and  C_21
REMARK    3  A    between atoms: N_7  and  C_15
REMARK    4  A    between atoms: N_11  and  C_32
REMARK    5  A    between atoms: N_12  and  C_25
REMARK    6  A    between atoms: C_19  and  C_20
REMARK    7  A    between atoms: C_24  and  C_25
REMARK    8  A    between atoms: C_37  and  C_38
REMARK    9  A    between atoms: C_38  and  C_39
REMARK                            x       y       z     vdW  Elec       q    Type
REMARK                         _______ _______ _______ _____ _____    ______ ____
ROOT
ATOM      1  O   UNL     1      13.608   9.287  21.652  0.00  0.00    -0.368 OA
ATOM      2  O   UNL     1      14.465   6.585  19.620  0.00  0.00    -0.368 OA
ATOM     13  C   UNL     1      13.441   7.442  20.136  0.00  0.00    +0.177 C 
ATOM     14  C   UNL     1      13.872   7.893  21.519  0.00  0.00    +0.192 C 
ATOM     15  C   UNL     1      13.337   8.745  19.359  0.00  0.00    +0.168 C 
ATOM     16  C   UNL     1      15.349   7.557  21.571  0.00  0.00    +0.235 C 
ATOM     17  C   UNL     1      12.968   9.744  20.450  0.00  0.00    +0.190 C 
ATOM     18  C   UNL     1      15.414   6.338  20.673  0.00  0.00    +0.207 C 
ENDROOT
BRANCH  15   7
ATOM      7  N   UNL     1      12.432   8.714  18.220  0.00  0.00    -0.217 N 
ATOM      8  N   UNL     1      11.299   7.998  18.264  0.00  0.00    -0.043 NA
ATOM      9  N   UNL     1      11.487   9.021  16.292  0.00  0.00    -0.108 NA
ATOM     10  N   UNL     1      10.726   8.191  17.082  0.00  0.00    -0.023 NA
ATOM     19  C   UNL     1      12.538   9.333  17.015  0.00  0.00    +0.182 A 
BRANCH  19  20
ATOM     20  C   UNL     1      13.635  10.183  16.630  0.00  0.00    +0.021 A 
ATOM     22  C   UNL     1      13.924  11.329  17.372  0.00  0.00    +0.012 A 
ATOM     23  C   UNL     1      14.407   9.862  15.514  0.00  0.00    +0.012 A 
ATOM     24  C   UNL     1      15.759  11.830  15.883  0.00  0.00    -0.033 A 
ATOM     26  C   UNL     1      14.987  12.152  16.999  0.00  0.00    +0.005 A 
ATOM     27  C   UNL     1      15.470  10.686  15.140  0.00  0.00    +0.005 A 
BRANCH  24  25
ATOM     25  C   UNL     1      16.895  12.711  15.483  0.00  0.00    +0.119 C 
BRANCH  25  12
ATOM      5  O   UNL     1      20.116  12.006  12.887  0.00  0.00    -0.377 OA
ATOM     12  N   UNL     1      17.780  12.072  14.512  0.00  0.00    -0.294 NA
ATOM     28  C   UNL     1      17.892  12.886  13.293  0.00  0.00    +0.113 C 
ATOM     29  C   UNL     1      19.112  11.845  15.090  0.00  0.00    +0.113 C 
ATOM     30  C   UNL     1      18.829  12.205  12.300  0.00  0.00    +0.175 C 
ATOM     31  C   UNL     1      20.021  11.190  14.054  0.00  0.00    +0.175 C 
ENDBRANCH  25  12
ENDBRANCH  24  25
ENDBRANCH  19  20
ENDBRANCH  15   7
BRANCH  16   3
ATOM      3  O   UNL     1      16.127   8.601  20.995  0.00  0.00    -0.442 OA
BRANCH   3  21
ATOM      4  O   UNL     1      18.269   9.385  20.834  0.00  0.00    -0.226 OA
ATOM     11  N   UNL     1      17.815   7.150  21.361  0.00  0.00    -0.251 N 
ATOM     21  C   UNL     1      17.498   8.458  21.045  0.00  0.00    +0.405 C 
ATOM     40  H   UNL     1      17.030   6.519  21.502  0.00  0.00    +0.158 HD
BRANCH  11  32
ATOM     32  C   UNL     1      19.097   6.578  21.513  0.00  0.00    +0.036 A 
ATOM     33  C   UNL     1      19.647   5.812  20.484  0.00  0.00    +0.024 A 
ATOM     34  C   UNL     1      19.815   6.778  22.693  0.00  0.00    +0.024 A 
ATOM     35  C   UNL     1      20.912   5.247  20.636  0.00  0.00    +0.013 A 
ATOM     36  C   UNL     1      21.082   6.212  22.844  0.00  0.00    +0.013 A 
ATOM     37  C   UNL     1      21.630   5.447  21.815  0.00  0.00    +0.017 A 
BRANCH  37  38
ATOM      6  O   UNL     1      23.455   4.680  23.098  0.00  0.00    -0.292 OA
ATOM     38  C   UNL     1      22.950   4.857  21.972  0.00  0.00    +0.160 C 
ATOM     39  C   UNL     1      23.756   4.439  20.747  0.00  0.00    +0.091 C 
ENDBRANCH  37  38
ENDBRANCH  11  32
ENDBRANCH   3  21
ENDBRANCH  16   3
TORSDOF 8
ENDMDL
MODEL 4
REMARK VINA RESULT:      -6.9     26.662     29.958
REMARK  Name = 11886088
REMARK  9 active torsions:
REMARK  status: ('A' for Active; 'I' for Inactive)
REMARK    1  A    between atoms: O_3  and  C_16
REMARK    2  A    between atoms: O_3  and  C_21
REMARK    3  A    between atoms: N_7  and  C_15
REMARK    4  A    between atoms: N_11  and  C_32
REMARK    5  A    between atoms: N_12  and  C_25
REMARK    6  A    between atoms: C_19  and  C_20
REMARK    7  A    between atoms: C_24  and  C_25
REMARK    8  A    between atoms: C_37  and  C_38
REMARK    9  A    between atoms: C_38  and  C_39
REMARK                            x       y       z     vdW  Elec       q    Type
REMARK                         _______ _______ _______ _____ _____    ______ ____
ROOT
ATOM      1  O   UNL     1     -10.418  -6.851  16.662  0.00  0.00    -0.368 OA
ATOM      2  O   UNL     1     -12.414  -9.628  15.970  0.00  0.00    -0.368 OA
ATOM     13  C   UNL     1     -12.310  -8.312  16.524  0.00  0.00    +0.177 C 
ATOM     14  C   UNL     1     -10.895  -8.139  17.041  0.00  0.00    +0.192 C 
ATOM     15  C   UNL     1     -12.429  -7.230  15.462  0.00  0.00    +0.168 C 
ATOM     16  C   UNL     1     -10.127  -9.275  16.394  0.00  0.00    +0.235 C 
ATOM     17  C   UNL     1     -11.479  -6.158  15.983  0.00  0.00    +0.190 C 
ATOM     18  C   UNL     1     -11.200 -10.338  16.277  0.00  0.00    +0.207 C 
ENDROOT
BRANCH  15   7
ATOM      7  N   UNL     1     -13.785  -6.774  15.194  0.00  0.00    -0.217 N 
ATOM      8  N   UNL     1     -14.774  -7.015  16.065  0.00  0.00    -0.043 NA
ATOM      9  N   UNL     1     -15.556  -5.890  14.307  0.00  0.00    -0.108 NA
ATOM     10  N   UNL     1     -15.854  -6.472  15.518  0.00  0.00    -0.023 NA
ATOM     19  C   UNL     1     -14.271  -6.089  14.126  0.00  0.00    +0.182 A 
BRANCH  19  20
ATOM     20  C   UNL     1     -13.478  -5.666  13.000  0.00  0.00    +0.021 A 
ATOM     22  C   UNL     1     -13.089  -4.331  12.882  0.00  0.00    +0.012 A 
ATOM     23  C   UNL     1     -13.100  -6.591  12.027  0.00  0.00    +0.012 A 
ATOM     24  C   UNL     1     -11.944  -4.847  10.819  0.00  0.00    -0.033 A 
ATOM     26  C   UNL     1     -12.322  -3.922  11.792  0.00  0.00    +0.005 A 
ATOM     27  C   UNL     1     -12.332  -6.182  10.936  0.00  0.00    +0.005 A 
BRANCH  24  25
ATOM     25  C   UNL     1     -11.122  -4.409   9.653  0.00  0.00    +0.119 C 
BRANCH  25  12
ATOM      5  O   UNL     1      -9.189  -6.730   6.739  0.00  0.00    -0.377 OA
ATOM     12  N   UNL     1     -10.467  -5.530   8.981  0.00  0.00    -0.294 NA
ATOM     28  C   UNL     1     -11.227  -5.943   7.793  0.00  0.00    +0.113 C 
ATOM     29  C   UNL     1      -9.092  -5.178   8.602  0.00  0.00    +0.113 C 
ATOM     30  C   UNL     1     -10.518  -7.104   7.103  0.00  0.00    +0.175 C 
ATOM     31  C   UNL     1      -8.433  -6.358   7.892  0.00  0.00    +0.175 C 
ENDBRANCH  25  12
ENDBRANCH  24  25
ENDBRANCH  19  20
ENDBRANCH  15   7
BRANCH  16   3
ATOM      3  O   UNL     1      -9.688  -8.911  15.090  0.00  0.00    -0.442 OA
BRANCH   3  21
ATOM      4  O   UNL     1      -8.522 -10.139  13.553  0.00  0.00    -0.226 OA
ATOM     11  N   UNL     1      -7.519  -9.359  15.519  0.00  0.00    -0.251 N 
ATOM     21  C   UNL     1      -8.552  -9.535  14.618  0.00  0.00    +0.405 C 
ATOM     40  H   UNL     1      -7.738  -8.821  16.354  0.00  0.00    +0.158 HD
BRANCH  11  32
ATOM     32  C   UNL     1      -6.191  -9.833  15.424  0.00  0.00    +0.036 A 
ATOM     33  C   UNL     1      -5.664 -10.187  14.182  0.00  0.00    +0.024 A 
ATOM     34  C   UNL     1      -5.408  -9.946  16.573  0.00  0.00    +0.024 A 
ATOM     35  C   UNL     1      -4.354 -10.656  14.089  0.00  0.00    +0.013 A 
ATOM     36  C   UNL     1      -4.096 -10.415  16.479  0.00  0.00    +0.013 A 
ATOM     37  C   UNL     1      -3.570 -10.769  15.238  0.00  0.00    +0.017 A 
BRANCH  37  38
ATOM      6  O   UNL     1      -1.931 -12.314  14.536  0.00  0.00    -0.292 OA
ATOM     38  C   UNL     1      -2.203 -11.257  15.140  0.00  0.00    +0.160 C 
ATOM     39  C   UNL     1      -1.061 -10.479  15.783  0.00  0.00    +0.091 C 
ENDBRANCH  37  38
ENDBRANCH  11  32
ENDBRANCH   3  21
ENDBRANCH  16   3
TORSDOF 8
ENDMDL
MODEL 5
REMARK VINA RESULT:      -6.9     26.846     30.048
REMARK  Name = 11886088
REMARK  9 active torsions:
REMARK  status: ('A' for Active; 'I' for Inactive)
REMARK    1  A    between atoms: O_3  and  C_16
REMARK    2  A    between atoms: O_3  and  C_21
REMARK    3  A    between atoms: N_7  and  C_15
REMARK    4  A    between atoms: N_11  and  C_32
REMARK    5  A    between atoms: N_12  and  C_25
REMARK    6  A    between atoms: C_19  and  C_20
REMARK    7  A    between atoms: C_24  and  C_25
REMARK    8  A    between atoms: C_37  and  C_38
REMARK    9  A    between atoms: C_38  and  C_39
REMARK                            x       y       z     vdW  Elec       q    Type
REMARK                         _______ _______ _______ _____ _____    ______ ____
ROOT
ATOM      1  O   UNL     1      -5.241 -13.695  17.366  0.00  0.00    -0.368 OA
ATOM      2  O   UNL     1      -5.078 -10.320  18.237  0.00  0.00    -0.368 OA
ATOM     13  C   UNL     1      -4.382 -11.523  17.893  0.00  0.00    +0.177 C 
ATOM     14  C   UNL     1      -5.215 -12.693  18.380  0.00  0.00    +0.192 C 
ATOM     15  C   UNL     1      -4.318 -11.740  16.389  0.00  0.00    +0.168 C 
ATOM     16  C   UNL     1      -6.576 -12.086  18.655  0.00  0.00    +0.235 C 
ATOM     17  C   UNL     1      -4.413 -13.257  16.276  0.00  0.00    +0.190 C 
ATOM     18  C   UNL     1      -6.200 -10.676  19.065  0.00  0.00    +0.207 C 
ENDROOT
BRANCH  15   7
ATOM      7  N   UNL     1      -3.167 -11.144  15.727  0.00  0.00    -0.217 N 
ATOM      8  N   UNL     1      -2.001 -11.006  16.372  0.00  0.00    -0.043 NA
ATOM      9  N   UNL     1      -1.829 -10.214  14.295  0.00  0.00    -0.108 NA
ATOM     10  N   UNL     1      -1.186 -10.438  15.492  0.00  0.00    -0.023 NA
ATOM     19  C   UNL     1      -3.054 -10.658  14.463  0.00  0.00    +0.182 A 
BRANCH  19  20
ATOM     20  C   UNL     1      -4.120 -10.648  13.495  0.00  0.00    +0.021 A 
ATOM     22  C   UNL     1      -3.954 -11.290  12.268  0.00  0.00    +0.012 A 
ATOM     23  C   UNL     1      -5.318  -9.996  13.784  0.00  0.00    +0.012 A 
ATOM     24  C   UNL     1      -6.185 -10.629  11.619  0.00  0.00    -0.033 A 
ATOM     26  C   UNL     1      -4.986 -11.281  11.330  0.00  0.00    +0.005 A 
ATOM     27  C   UNL     1      -6.351  -9.986  12.846  0.00  0.00    +0.005 A 
BRANCH  24  25
ATOM     25  C   UNL     1      -7.289 -10.618  10.616  0.00  0.00    +0.119 C 
BRANCH  25  12
ATOM      5  O   UNL     1      -7.863  -8.226   7.217  0.00  0.00    -0.377 OA
ATOM     12  N   UNL     1      -7.058  -9.653   9.544  0.00  0.00    -0.294 NA
ATOM     28  C   UNL     1      -7.132 -10.306   8.229  0.00  0.00    +0.113 C 
ATOM     29  C   UNL     1      -8.030  -8.553   9.615  0.00  0.00    +0.113 C 
ATOM     30  C   UNL     1      -6.901  -9.276   7.126  0.00  0.00    +0.175 C 
ATOM     31  C   UNL     1      -7.777  -7.565   8.479  0.00  0.00    +0.175 C 
ENDBRANCH  25  12
ENDBRANCH  24  25
ENDBRANCH  19  20
ENDBRANCH  15   7
BRANCH  16   3
ATOM      3  O   UNL     1      -7.357 -12.033  17.466  0.00  0.00    -0.442 OA
BRANCH   3  21
ATOM      4  O   UNL     1      -9.404 -11.471  18.317  0.00  0.00    -0.226 OA
ATOM     11  N   UNL     1      -8.452 -10.298  16.528  0.00  0.00    -0.251 N 
ATOM     21  C   UNL     1      -8.506 -11.271  17.508  0.00  0.00    +0.405 C 
ATOM     40  H   UNL     1      -7.616 -10.289  15.949  0.00  0.00    +0.158 HD
BRANCH  11  32
ATOM     32  C   UNL     1      -9.418  -9.311  16.227  0.00  0.00    +0.036 A 
ATOM     33  C   UNL     1     -10.102  -9.352  15.012  0.00  0.00    +0.024 A 
ATOM     34  C   UNL     1      -9.686  -8.296  17.146  0.00  0.00    +0.024 A 
ATOM     35  C   UNL     1     -11.054  -8.377  14.716  0.00  0.00    +0.013 A 
ATOM     36  C   UNL     1     -10.639  -7.321  16.849  0.00  0.00    +0.013 A 
ATOM     37  C   UNL     1     -11.323  -7.362  15.634  0.00  0.00    +0.017 A 
BRANCH  37  38
ATOM      6  O   UNL     1     -13.344  -6.207  16.017  0.00  0.00    -0.292 OA
ATOM     38  C   UNL     1     -12.316  -6.345  15.324  0.00  0.00    +0.160 C 
ATOM     39  C   UNL     1     -12.120  -5.417  14.131  0.00  0.00    +0.091 C 
ENDBRANCH  37  38
ENDBRANCH  11  32
ENDBRANCH   3  21
ENDBRANCH  16   3
TORSDOF 8
ENDMDL
MODEL 6
REMARK VINA RESULT:      -6.8     32.510     37.407
REMARK  Name = 11886088
REMARK  9 active torsions:
REMARK  status: ('A' for Active; 'I' for Inactive)
REMARK    1  A    between atoms: O_3  and  C_16
REMARK    2  A    between atoms: O_3  and  C_21
REMARK    3  A    between atoms: N_7  and  C_15
REMARK    4  A    between atoms: N_11  and  C_32
REMARK    5  A    between atoms: N_12  and  C_25
REMARK    6  A    between atoms: C_19  and  C_20
REMARK    7  A    between atoms: C_24  and  C_25
REMARK    8  A    between atoms: C_37  and  C_38
REMARK    9  A    between atoms: C_38  and  C_39
REMARK                            x       y       z     vdW  Elec       q    Type
REMARK                         _______ _______ _______ _____ _____    ______ ____
ROOT
ATOM      1  O   UNL     1     -17.090   4.053  22.031  0.00  0.00    -0.368 OA
ATOM      2  O   UNL     1     -18.779   4.804  24.989  0.00  0.00    -0.368 OA
ATOM     13  C   UNL     1     -18.588   3.905  23.892  0.00  0.00    +0.177 C 
ATOM     14  C   UNL     1     -18.158   4.726  22.692  0.00  0.00    +0.192 C 
ATOM     15  C   UNL     1     -17.412   2.968  24.116  0.00  0.00    +0.168 C 
ATOM     16  C   UNL     1     -17.748   6.058  23.287  0.00  0.00    +0.235 C 
ATOM     17  C   UNL     1     -16.853   2.807  22.707  0.00  0.00    +0.190 C 
ATOM     18  C   UNL     1     -18.667   6.149  24.488  0.00  0.00    +0.207 C 
ENDROOT
BRANCH  15   7
ATOM      7  N   UNL     1     -17.734   1.723  24.797  0.00  0.00    -0.217 N 
ATOM      8  N   UNL     1     -18.104   0.638  24.103  0.00  0.00    -0.043 NA
ATOM      9  N   UNL     1     -18.088   0.186  26.286  0.00  0.00    -0.108 NA
ATOM     10  N   UNL     1     -18.319  -0.299  25.018  0.00  0.00    -0.023 NA
ATOM     19  C   UNL     1     -17.728   1.438  26.126  0.00  0.00    +0.182 A 
BRANCH  19  20
ATOM     20  C   UNL     1     -17.379   2.379  27.159  0.00  0.00    +0.021 A 
ATOM     22  C   UNL     1     -16.044   2.543  27.531  0.00  0.00    +0.012 A 
ATOM     23  C   UNL     1     -18.376   3.125  27.789  0.00  0.00    +0.012 A 
ATOM     24  C   UNL     1     -16.703   4.200  29.161  0.00  0.00    -0.033 A 
ATOM     26  C   UNL     1     -15.707   3.455  28.532  0.00  0.00    +0.005 A 
ATOM     27  C   UNL     1     -18.038   4.036  28.790  0.00  0.00    +0.005 A 
BRANCH  24  25
ATOM     25  C   UNL     1     -16.341   5.175  30.231  0.00  0.00    +0.119 C 
BRANCH  25  12
ATOM      5  O   UNL     1     -14.642   4.192  33.940  0.00  0.00    -0.377 OA
ATOM     12  N   UNL     1     -15.468   4.589  31.246  0.00  0.00    -0.294 NA
ATOM     28  C   UNL     1     -14.762   5.637  31.996  0.00  0.00    +0.113 C 
ATOM     29  C   UNL     1     -16.236   3.741  32.169  0.00  0.00    +0.113 C 
ATOM     30  C   UNL     1     -13.867   5.002  33.056  0.00  0.00    +0.175 C 
ATOM     31  C   UNL     1     -15.307   3.151  33.225  0.00  0.00    +0.175 C 
ENDBRANCH  25  12
ENDBRANCH  24  25
ENDBRANCH  19  20
ENDBRANCH  15   7
BRANCH  16   3
ATOM      3  O   UNL     1     -16.398   6.019  23.736  0.00  0.00    -0.442 OA
BRANCH   3  21
ATOM      4  O   UNL     1     -15.352   8.036  23.477  0.00  0.00    -0.226 OA
ATOM     11  N   UNL     1     -14.873   6.216  22.085  0.00  0.00    -0.251 N 
ATOM     21  C   UNL     1     -15.510   6.875  23.119  0.00  0.00    +0.405 C 
ATOM     40  H   UNL     1     -15.138   5.245  21.940  0.00  0.00    +0.158 HD
BRANCH  11  32
ATOM     32  C   UNL     1     -13.893   6.722  21.202  0.00  0.00    +0.036 A 
ATOM     33  C   UNL     1     -14.275   7.502  20.110  0.00  0.00    +0.024 A 
ATOM     34  C   UNL     1     -12.544   6.442  21.422  0.00  0.00    +0.024 A 
ATOM     35  C   UNL     1     -13.307   8.001  19.239  0.00  0.00    +0.013 A 
ATOM     36  C   UNL     1     -11.577   6.942  20.549  0.00  0.00    +0.013 A 
ATOM     37  C   UNL     1     -11.959   7.722  19.458  0.00  0.00    +0.017 A 
BRANCH  37  38
ATOM      6  O   UNL     1     -10.746   7.721  17.434  0.00  0.00    -0.292 OA
ATOM     38  C   UNL     1     -10.951   8.243  18.548  0.00  0.00    +0.160 C 
ATOM     39  C   UNL     1     -10.111   9.453  18.943  0.00  0.00    +0.091 C 
ENDBRANCH  37  38
ENDBRANCH  11  32
ENDBRANCH   3  21
ENDBRANCH  16   3
TORSDOF 8
ENDMDL
MODEL 7
REMARK VINA RESULT:      -6.8     25.683     28.851
REMARK  Name = 11886088
REMARK  9 active torsions:
REMARK  status: ('A' for Active; 'I' for Inactive)
REMARK    1  A    between atoms: O_3  and  C_16
REMARK    2  A    between atoms: O_3  and  C_21
REMARK    3  A    between atoms: N_7  and  C_15
REMARK    4  A    between atoms: N_11  and  C_32
REMARK    5  A    between atoms: N_12  and  C_25
REMARK    6  A    between atoms: C_19  and  C_20
REMARK    7  A    between atoms: C_24  and  C_25
REMARK    8  A    between atoms: C_37  and  C_38
REMARK    9  A    between atoms: C_38  and  C_39
REMARK                            x       y       z     vdW  Elec       q    Type
REMARK                         _______ _______ _______ _____ _____    ______ ____
ROOT
ATOM      1  O   UNL     1      -9.358  -8.155   9.875  0.00  0.00    -0.368 OA
ATOM      2  O   UNL     1      -8.623 -11.565   9.929  0.00  0.00    -0.368 OA
ATOM     13  C   UNL     1      -8.919 -10.396   9.157  0.00  0.00    +0.177 C 
ATOM     14  C   UNL     1      -9.810  -9.502   9.998  0.00  0.00    +0.192 C 
ATOM     15  C   UNL     1      -7.686  -9.539   8.918  0.00  0.00    +0.168 C 
ATOM     16  C   UNL     1      -9.665 -10.055  11.401  0.00  0.00    +0.235 C 
ATOM     17  C   UNL     1      -8.263  -8.128   8.946  0.00  0.00    +0.190 C 
ATOM     18  C   UNL     1      -9.425 -11.525  11.124  0.00  0.00    +0.207 C 
ENDROOT
BRANCH  15   7
ATOM      7  N   UNL     1      -6.926  -9.870   7.722  0.00  0.00    -0.217 N 
ATOM      8  N   UNL     1      -7.519  -9.907   6.521  0.00  0.00    -0.043 NA
ATOM      9  N   UNL     1      -5.356 -10.407   6.326  0.00  0.00    -0.108 NA
ATOM     10  N   UNL     1      -6.554 -10.235   5.671  0.00  0.00    -0.023 NA
ATOM     19  C   UNL     1      -5.609 -10.176   7.593  0.00  0.00    +0.182 A 
BRANCH  19  20
ATOM     20  C   UNL     1      -4.673 -10.230   8.688  0.00  0.00    +0.021 A 
ATOM     22  C   UNL     1      -4.097  -9.055   9.171  0.00  0.00    +0.012 A 
ATOM     23  C   UNL     1      -4.344 -11.457   9.264  0.00  0.00    +0.012 A 
ATOM     24  C   UNL     1      -2.862 -10.334  10.806  0.00  0.00    -0.033 A 
ATOM     26  C   UNL     1      -3.192  -9.107  10.231  0.00  0.00    +0.005 A 
ATOM     27  C   UNL     1      -3.438 -11.509  10.324  0.00  0.00    +0.005 A 
BRANCH  24  25
ATOM     25  C   UNL     1      -1.894 -10.390  11.940  0.00  0.00    +0.119 C 
BRANCH  25  12
ATOM      5  O   UNL     1      -2.659 -11.933  15.767  0.00  0.00    -0.377 OA
ATOM     12  N   UNL     1      -2.546 -10.675  13.216  0.00  0.00    -0.294 NA
ATOM     28  C   UNL     1      -2.818 -12.113  13.353  0.00  0.00    +0.113 C 
ATOM     29  C   UNL     1      -1.721 -10.210  14.340  0.00  0.00    +0.113 C 
ATOM     30  C   UNL     1      -3.487 -12.388  14.697  0.00  0.00    +0.175 C 
ATOM     31  C   UNL     1      -2.415 -10.530  15.660  0.00  0.00    +0.175 C 
ENDBRANCH  25  12
ENDBRANCH  24  25
ENDBRANCH  19  20
ENDBRANCH  15   7
BRANCH  16   3
ATOM      3  O   UNL     1      -8.519  -9.509  12.046  0.00  0.00    -0.442 OA
BRANCH   3  21
ATOM      4  O   UNL     1      -9.313  -9.305  14.181  0.00  0.00    -0.226 OA
ATOM     11  N   UNL     1      -7.244 -10.302  13.729  0.00  0.00    -0.251 N 
ATOM     21  C   UNL     1      -8.434  -9.675  13.412  0.00  0.00    +0.405 C 
ATOM     40  H   UNL     1      -6.637 -10.536  12.947  0.00  0.00    +0.158 HD
BRANCH  11  32
ATOM     32  C   UNL     1      -6.762 -10.660  15.008  0.00  0.00    +0.036 A 
ATOM     33  C   UNL     1      -6.007  -9.751  15.749  0.00  0.00    +0.024 A 
ATOM     34  C   UNL     1      -7.040 -11.924  15.529  0.00  0.00    +0.024 A 
ATOM     35  C   UNL     1      -5.531 -10.106  17.011  0.00  0.00    +0.013 A 
ATOM     36  C   UNL     1      -6.564 -12.278  16.792  0.00  0.00    +0.013 A 
ATOM     37  C   UNL     1      -5.809 -11.369  17.533  0.00  0.00    +0.017 A 
BRANCH  37  38
ATOM      6  O   UNL     1      -4.292 -12.441  18.986  0.00  0.00    -0.292 OA
ATOM     38  C   UNL     1      -5.313 -11.738  18.849  0.00  0.00    +0.160 C 
ATOM     39  C   UNL     1      -6.039 -11.268  20.104  0.00  0.00    +0.091 C 
ENDBRANCH  37  38
ENDBRANCH  11  32
ENDBRANCH   3  21
ENDBRANCH  16   3
TORSDOF 8
ENDMDL
MODEL 8
REMARK VINA RESULT:      -6.5     26.724     30.005
REMARK  Name = 11886088
REMARK  9 active torsions:
REMARK  status: ('A' for Active; 'I' for Inactive)
REMARK    1  A    between atoms: O_3  and  C_16
REMARK    2  A    between atoms: O_3  and  C_21
REMARK    3  A    between atoms: N_7  and  C_15
REMARK    4  A    between atoms: N_11  and  C_32
REMARK    5  A    between atoms: N_12  and  C_25
REMARK    6  A    between atoms: C_19  and  C_20
REMARK    7  A    between atoms: C_24  and  C_25
REMARK    8  A    between atoms: C_37  and  C_38
REMARK    9  A    between atoms: C_38  and  C_39
REMARK                            x       y       z     vdW  Elec       q    Type
REMARK                         _______ _______ _______ _____ _____    ______ ____
ROOT
ATOM      1  O   UNL     1      -6.655 -12.903  16.463  0.00  0.00    -0.368 OA
ATOM      2  O   UNL     1      -5.972  -9.517  16.953  0.00  0.00    -0.368 OA
ATOM     13  C   UNL     1      -5.471 -10.848  16.790  0.00  0.00    +0.177 C 
ATOM     14  C   UNL     1      -6.505 -11.802  17.356  0.00  0.00    +0.192 C 
ATOM     15  C   UNL     1      -5.382 -11.254  15.328  0.00  0.00    +0.168 C 
ATOM     16  C   UNL     1      -7.757 -10.957  17.477  0.00  0.00    +0.235 C 
ATOM     17  C   UNL     1      -5.721 -12.739  15.383  0.00  0.00    +0.190 C 
ATOM     18  C   UNL     1      -7.171  -9.586  17.746  0.00  0.00    +0.207 C 
ENDROOT
BRANCH  15   7
ATOM      7  N   UNL     1      -4.122 -10.933  14.674  0.00  0.00    -0.217 N 
ATOM      8  N   UNL     1      -2.962 -11.022  15.339  0.00  0.00    -0.043 NA
ATOM      9  N   UNL     1      -2.598 -10.352  13.244  0.00  0.00    -0.108 NA
ATOM     10  N   UNL     1      -2.034 -10.665  14.460  0.00  0.00    -0.023 NA
ATOM     19  C   UNL     1      -3.890 -10.525  13.399  0.00  0.00    +0.182 A 
BRANCH  19  20
ATOM     20  C   UNL     1      -4.916 -10.324  12.408  0.00  0.00    +0.021 A 
ATOM     22  C   UNL     1      -5.070 -11.241  11.368  0.00  0.00    +0.012 A 
ATOM     23  C   UNL     1      -5.755  -9.213  12.488  0.00  0.00    +0.012 A 
ATOM     24  C   UNL     1      -6.903  -9.936  10.488  0.00  0.00    -0.033 A 
ATOM     26  C   UNL     1      -6.064 -11.048  10.409  0.00  0.00    +0.005 A 
ATOM     27  C   UNL     1      -6.749  -9.018  11.528  0.00  0.00    +0.005 A 
BRANCH  24  25
ATOM     25  C   UNL     1      -7.966  -9.729   9.462  0.00  0.00    +0.119 C 
BRANCH  25  12
ATOM      5  O   UNL     1      -9.414  -6.130   7.861  0.00  0.00    -0.377 OA
ATOM     12  N   UNL     1      -8.338  -8.323   9.322  0.00  0.00    -0.294 NA
ATOM     28  C   UNL     1      -7.594  -7.692   8.223  0.00  0.00    +0.113 C 
ATOM     29  C   UNL     1      -9.783  -8.186   9.095  0.00  0.00    +0.113 C 
ATOM     30  C   UNL     1      -8.008  -6.230   8.089  0.00  0.00    +0.175 C 
ATOM     31  C   UNL     1     -10.146  -6.712   8.940  0.00  0.00    +0.175 C 
ENDBRANCH  25  12
ENDBRANCH  24  25
ENDBRANCH  19  20
ENDBRANCH  15   7
BRANCH  16   3
ATOM      3  O   UNL     1      -8.469 -10.925  16.245  0.00  0.00    -0.442 OA
BRANCH   3  21
ATOM      4  O   UNL     1     -10.587 -10.409  16.934  0.00  0.00    -0.226 OA
ATOM     11  N   UNL     1      -9.501  -9.173  15.269  0.00  0.00    -0.251 N 
ATOM     21  C   UNL     1      -9.626 -10.176  16.212  0.00  0.00    +0.405 C 
ATOM     40  H   UNL     1      -8.619  -9.138  14.765  0.00  0.00    +0.158 HD
BRANCH  11  32
ATOM     32  C   UNL     1     -10.449  -8.186  14.917  0.00  0.00    +0.036 A 
ATOM     33  C   UNL     1     -11.369  -8.434  13.898  0.00  0.00    +0.024 A 
ATOM     34  C   UNL     1     -10.464  -6.963  15.589  0.00  0.00    +0.024 A 
ATOM     35  C   UNL     1     -12.304  -7.459  13.551  0.00  0.00    +0.013 A 
ATOM     36  C   UNL     1     -11.400  -5.988  15.241  0.00  0.00    +0.013 A 
ATOM     37  C   UNL     1     -12.320  -6.237  14.222  0.00  0.00    +0.017 A 
BRANCH  37  38
ATOM      6  O   UNL     1     -12.948  -4.057  13.576  0.00  0.00    -0.292 OA
ATOM     38  C   UNL     1     -13.295  -5.221  13.859  0.00  0.00    +0.160 C 
ATOM     39  C   UNL     1     -14.781  -5.561  13.818  0.00  0.00    +0.091 C 
ENDBRANCH  37  38
ENDBRANCH  11  32
ENDBRANCH   3  21
ENDBRANCH  16   3
TORSDOF 8
ENDMDL
MODEL 9
REMARK VINA RESULT:      -6.4      2.803      3.768
REMARK  Name = 11886088
REMARK  9 active torsions:
REMARK  status: ('A' for Active; 'I' for Inactive)
REMARK    1  A    between atoms: O_3  and  C_16
REMARK    2  A    between atoms: O_3  and  C_21
REMARK    3  A    between atoms: N_7  and  C_15
REMARK    4  A    between atoms: N_11  and  C_32
REMARK    5  A    between atoms: N_12  and  C_25
REMARK    6  A    between atoms: C_19  and  C_20
REMARK    7  A    between atoms: C_24  and  C_25
REMARK    8  A    between atoms: C_37  and  C_38
REMARK    9  A    between atoms: C_38  and  C_39
REMARK                            x       y       z     vdW  Elec       q    Type
REMARK                         _______ _______ _______ _____ _____    ______ ____
ROOT
ATOM      1  O   UNL     1      10.912   8.853   7.251  0.00  0.00    -0.368 OA
ATOM      2  O   UNL     1       8.937   6.118   6.361  0.00  0.00    -0.368 OA
ATOM     13  C   UNL     1       9.021   7.521   6.634  0.00  0.00    +0.177 C 
ATOM     14  C   UNL     1      10.131   7.729   7.647  0.00  0.00    +0.192 C 
ATOM     15  C   UNL     1       9.496   8.313   5.426  0.00  0.00    +0.168 C 
ATOM     16  C   UNL     1      10.902   6.424   7.618  0.00  0.00    +0.235 C 
ATOM     17  C   UNL     1      10.323   9.421   6.070  0.00  0.00    +0.190 C 
ATOM     18  C   UNL     1       9.807   5.433   7.280  0.00  0.00    +0.207 C 
ENDROOT
BRANCH  15   7
ATOM      7  N   UNL     1       8.441   8.772   4.534  0.00  0.00    -0.217 N 
ATOM      8  N   UNL     1       7.473   9.585   4.978  0.00  0.00    -0.043 NA
ATOM      9  N   UNL     1       7.163   9.129   2.819  0.00  0.00    -0.108 NA
ATOM     10  N   UNL     1       6.695   9.800   3.925  0.00  0.00    -0.023 NA
ATOM     19  C   UNL     1       8.244   8.499   3.218  0.00  0.00    +0.182 A 
BRANCH  19  20
ATOM     20  C   UNL     1       9.099   7.655   2.423  0.00  0.00    +0.021 A 
ATOM     22  C   UNL     1       9.493   8.063   1.149  0.00  0.00    +0.012 A 
ATOM     23  C   UNL     1       9.532   6.429   2.928  0.00  0.00    +0.012 A 
ATOM     24  C   UNL     1      10.755   6.020   0.885  0.00  0.00    -0.033 A 
ATOM     26  C   UNL     1      10.322   7.246   0.380  0.00  0.00    +0.005 A 
ATOM     27  C   UNL     1      10.360   5.611   2.158  0.00  0.00    +0.005 A 
BRANCH  24  25
ATOM     25  C   UNL     1      11.640   5.146   0.062  0.00  0.00    +0.119 C 
BRANCH  25  12
ATOM      5  O   UNL     1      15.608   3.925   0.677  0.00  0.00    -0.377 OA
ATOM     12  N   UNL     1      12.979   5.015   0.632  0.00  0.00    -0.294 NA
ATOM     28  C   UNL     1      13.231   3.632   1.061  0.00  0.00    +0.113 C 
ATOM     29  C   UNL     1      14.002   5.435  -0.335  0.00  0.00    +0.113 C 
ATOM     30  C   UNL     1      14.637   3.518   1.642  0.00  0.00    +0.175 C 
ATOM     31  C   UNL     1      15.391   5.278   0.278  0.00  0.00    +0.175 C 
ENDBRANCH  25  12
ENDBRANCH  24  25
ENDBRANCH  19  20
ENDBRANCH  15   7
BRANCH  16   3
ATOM      3  O   UNL     1      11.866   6.429   6.570  0.00  0.00    -0.442 OA
BRANCH   3  21
ATOM      4  O   UNL     1      13.831   6.269   7.729  0.00  0.00    -0.226 OA
ATOM     11  N   UNL     1      13.468   7.961   6.153  0.00  0.00    -0.251 N 
ATOM     21  C   UNL     1      13.140   6.844   6.897  0.00  0.00    +0.405 C 
ATOM     40  H   UNL     1      12.757   8.295   5.507  0.00  0.00    +0.158 HD
BRANCH  11  32
ATOM     32  C   UNL     1      14.672   8.700   6.177  0.00  0.00    +0.036 A 
ATOM     33  C   UNL     1      14.660  10.042   6.559  0.00  0.00    +0.024 A 
ATOM     34  C   UNL     1      15.873   8.088   5.817  0.00  0.00    +0.024 A 
ATOM     35  C   UNL     1      15.848  10.771   6.582  0.00  0.00    +0.013 A 
ATOM     36  C   UNL     1      17.062   8.818   5.840  0.00  0.00    +0.013 A 
ATOM     37  C   UNL     1      17.049  10.160   6.222  0.00  0.00    +0.017 A 
BRANCH  37  38
ATOM      6  O   UNL     1      18.313  12.134   5.958  0.00  0.00    -0.292 OA
ATOM     38  C   UNL     1      18.288  10.921   6.246  0.00  0.00    +0.160 C 
ATOM     39  C   UNL     1      19.599  10.243   6.628  0.00  0.00    +0.091 C 
ENDBRANCH  37  38
ENDBRANCH  11  32
ENDBRANCH   3  21
ENDBRANCH  16   3
TORSDOF 8
ENDMDL
MODEL 10
REMARK VINA RESULT:      -6.4     27.029     30.150
REMARK  Name = 11886088
REMARK  9 active torsions:
REMARK  status: ('A' for Active; 'I' for Inactive)
REMARK    1  A    between atoms: O_3  and  C_16
REMARK    2  A    between atoms: O_3  and  C_21
REMARK    3  A    between atoms: N_7  and  C_15
REMARK    4  A    between atoms: N_11  and  C_32
REMARK    5  A    between atoms: N_12  and  C_25
REMARK    6  A    between atoms: C_19  and  C_20
REMARK    7  A    between atoms: C_24  and  C_25
REMARK    8  A    between atoms: C_37  and  C_38
REMARK    9  A    between atoms: C_38  and  C_39
REMARK                            x       y       z     vdW  Elec       q    Type
REMARK                         _______ _______ _______ _____ _____    ______ ____
ROOT
ATOM      1  O   UNL     1      -3.277 -10.901  15.737  0.00  0.00    -0.368 OA
ATOM      2  O   UNL     1      -6.185 -12.819  15.554  0.00  0.00    -0.368 OA
ATOM     13  C   UNL     1      -5.075 -12.364  16.335  0.00  0.00    +0.177 C 
ATOM     14  C   UNL     1      -3.912 -12.129  15.390  0.00  0.00    +0.192 C 
ATOM     15  C   UNL     1      -5.321 -10.990  16.938  0.00  0.00    +0.168 C 
ATOM     16  C   UNL     1      -4.555 -12.102  14.018  0.00  0.00    +0.235 C 
ATOM     17  C   UNL     1      -3.931 -10.366  16.899  0.00  0.00    +0.190 C 
ATOM     18  C   UNL     1      -5.721 -13.049  14.212  0.00  0.00    +0.207 C 
ENDROOT
BRANCH  15   7
ATOM      7  N   UNL     1      -5.959 -10.995  18.246  0.00  0.00    -0.217 N 
ATOM      8  N   UNL     1      -5.261 -11.301  19.348  0.00  0.00    -0.043 NA
ATOM      9  N   UNL     1      -7.377 -10.848  19.880  0.00  0.00    -0.108 NA
ATOM     10  N   UNL     1      -6.133 -11.210  20.344  0.00  0.00    -0.023 NA
ATOM     19  C   UNL     1      -7.247 -10.720  18.580  0.00  0.00    +0.182 A 
BRANCH  19  20
ATOM     20  C   UNL     1      -8.273 -10.353  17.637  0.00  0.00    +0.021 A 
ATOM     22  C   UNL     1      -8.482  -9.011  17.321  0.00  0.00    +0.012 A 
ATOM     23  C   UNL     1      -9.058 -11.341  17.042  0.00  0.00    +0.012 A 
ATOM     24  C   UNL     1     -10.260  -9.643  15.813  0.00  0.00    -0.033 A 
ATOM     26  C   UNL     1      -9.475  -8.656  16.408  0.00  0.00    +0.005 A 
ATOM     27  C   UNL     1     -10.052 -10.985  16.129  0.00  0.00    +0.005 A 
BRANCH  24  25
ATOM     25  C   UNL     1     -11.322  -9.263  14.836  0.00  0.00    +0.119 C 
BRANCH  25  12
ATOM      5  O   UNL     1     -14.024  -6.052  14.847  0.00  0.00    -0.377 OA
ATOM     12  N   UNL     1     -12.039  -8.055  15.237  0.00  0.00    -0.294 NA
ATOM     28  C   UNL     1     -11.874  -6.993  14.234  0.00  0.00    +0.113 C 
ATOM     29  C   UNL     1     -13.467  -8.338  15.438  0.00  0.00    +0.113 C 
ATOM     30  C   UNL     1     -12.641  -5.747  14.668  0.00  0.00    +0.175 C 
ATOM     31  C   UNL     1     -14.197  -7.061  15.843  0.00  0.00    +0.175 C 
ENDBRANCH  25  12
ENDBRANCH  24  25
ENDBRANCH  19  20
ENDBRANCH  15   7
BRANCH  16   3
ATOM      3  O   UNL     1      -5.054 -10.804  13.717  0.00  0.00    -0.442 OA
BRANCH   3  21
ATOM      4  O   UNL     1      -3.836 -10.120  11.906  0.00  0.00    -0.226 OA
ATOM     11  N   UNL     1      -6.170 -10.283  11.827  0.00  0.00    -0.251 N 
ATOM     21  C   UNL     1      -4.922 -10.371  12.414  0.00  0.00    +0.405 C 
ATOM     40  H   UNL     1      -6.961 -10.538  12.413  0.00  0.00    +0.158 HD
BRANCH  11  32
ATOM     32  C   UNL     1      -6.486  -9.883  10.510  0.00  0.00    +0.036 A 
ATOM     33  C   UNL     1      -7.035  -8.622  10.275  0.00  0.00    +0.024 A 
ATOM     34  C   UNL     1      -6.251 -10.751   9.442  0.00  0.00    +0.024 A 
ATOM     35  C   UNL     1      -7.347  -8.228   8.975  0.00  0.00    +0.013 A 
ATOM     36  C   UNL     1      -6.563 -10.356   8.141  0.00  0.00    +0.013 A 
ATOM     37  C   UNL     1      -7.111  -9.095   7.907  0.00  0.00    +0.017 A 
BRANCH  37  38
ATOM      6  O   UNL     1      -8.182  -7.708   6.328  0.00  0.00    -0.292 OA
ATOM     38  C   UNL     1      -7.437  -8.683   6.551  0.00  0.00    +0.160 C 
ATOM     39  C   UNL     1      -6.869  -9.445   5.359  0.00  0.00    +0.091 C 
ENDBRANCH  37  38
ENDBRANCH  11  32
ENDBRANCH   3  21
ENDBRANCH  16   3
TORSDOF 8
ENDMDL
