MODEL 1
REMARK VINA RESULT:      -6.3      0.000      0.000
REMARK  Name = 25389612
REMARK  11 active torsions:
REMARK  status: ('A' for Active; 'I' for Inactive)
REMARK    1  A    between atoms: O_1  and  C_17
REMARK    2  A    between atoms: O_1  and  C_22
REMARK    3  A    between atoms: O_3  and  C_23
REMARK    4  A    between atoms: O_3  and  C_31
REMARK    5  A    between atoms: O_4  and  C_34
REMARK    6  A    between atoms: O_4  and  C_35
REMARK    7  A    between atoms: N_6  and  C_20
REMARK    8  A    between atoms: N_8  and  C_27
REMARK    9  A    between atoms: C_10  and  C_16
REMARK   10  A    between atoms: C_11  and  C_17
REMARK   11  A    between atoms: C_19  and  C_21
REMARK                            x       y       z     vdW  Elec       q    Type
REMARK                         _______ _______ _______ _____ _____    ______ ____
ROOT
ATOM      5  N   UNL     1      -6.118 -10.464   9.509  0.00  0.00    -0.296 NA
ATOM      9  C   UNL     1      -4.220  -9.013  10.546  0.00  0.00    +0.002 C 
ATOM     10  C   UNL     1      -4.144 -10.470  11.081  0.00  0.00    +0.055 C 
ATOM     11  C   UNL     1      -6.684  -9.203  10.057  0.00  0.00    +0.095 C 
ATOM     12  C   UNL     1      -5.614  -8.427  10.856  0.00  0.00    +0.026 C 
ATOM     13  C   UNL     1      -4.094  -9.095   9.010  0.00  0.00    +0.019 C 
ATOM     14  C   UNL     1      -5.416 -11.213  10.580  0.00  0.00    +0.094 C 
ATOM     15  C   UNL     1      -5.125 -10.101   8.470  0.00  0.00    +0.085 C 
ENDROOT
BRANCH  10  16
ATOM      6  N   UNL     1      -2.677 -10.535  13.149  0.00  0.00    -0.270 N 
ATOM      7  N   UNL     1      -2.674 -10.763  14.474  0.00  0.00    -0.171 NA
ATOM     16  C   UNL     1      -3.902 -10.678  12.569  0.00  0.00    +0.044 A 
ATOM     18  C   UNL     1      -4.761 -11.024  13.584  0.00  0.00    +0.053 A 
ATOM     19  C   UNL     1      -3.951 -11.061  14.733  0.00  0.00    +0.096 A 
ATOM     20  C   UNL     1      -1.440 -10.179  12.492  0.00  0.00    +0.172 C 
BRANCH  19  21
ATOM     21  C   UNL     1      -4.370 -11.377  16.073  0.00  0.00    +0.044 A 
ATOM     23  C   UNL     1      -4.579 -12.699  16.466  0.00  0.00    +0.129 A 
ATOM     24  C   UNL     1      -4.569 -10.340  16.985  0.00  0.00    +0.014 A 
ATOM     25  C   UNL     1      -4.986 -12.984  17.769  0.00  0.00    +0.046 A 
ATOM     26  C   UNL     1      -4.975 -10.624  18.289  0.00  0.00    +0.001 A 
ATOM     28  C   UNL     1      -5.184 -11.947  18.680  0.00  0.00    +0.004 A 
BRANCH  23   3
ATOM      3  O   UNL     1      -4.394 -13.733  15.596  0.00  0.00    -0.494 OA
ATOM     31  C   UNL     1      -5.482 -14.639  15.428  0.00  0.00    +0.277 C 
ENDBRANCH  23   3
ENDBRANCH  19  21
ENDBRANCH  10  16
BRANCH  11  17
ATOM     17  C   UNL     1      -7.950  -9.442  10.883  0.00  0.00    +0.252 C 
BRANCH  17   1
ATOM      1  O   UNL     1      -7.701  -9.026  12.212  0.00  0.00    -0.449 OA
BRANCH   1  22
ATOM      2  O   UNL     1      -9.481 -10.218  13.015  0.00  0.00    -0.226 OA
ATOM      8  N   UNL     1      -7.679  -9.617  14.385  0.00  0.00    -0.251 N 
ATOM     22  C   UNL     1      -8.396  -9.680  13.205  0.00  0.00    +0.405 C 
ATOM     36  H   UNL     1      -6.791  -9.123  14.344  0.00  0.00    +0.158 HD
BRANCH   8  27
ATOM     27  C   UNL     1      -8.026 -10.156  15.644  0.00  0.00    +0.037 A 
ATOM     29  C   UNL     1      -8.132 -11.538  15.806  0.00  0.00    +0.027 A 
ATOM     30  C   UNL     1      -8.263  -9.307  16.724  0.00  0.00    +0.027 A 
ATOM     32  C   UNL     1      -8.475 -12.070  17.049  0.00  0.00    +0.047 A 
ATOM     33  C   UNL     1      -8.606  -9.839  17.968  0.00  0.00    +0.047 A 
ATOM     34  C   UNL     1      -8.711 -11.220  18.130  0.00  0.00    +0.120 A 
BRANCH  34   4
ATOM      4  O   UNL     1      -9.046 -11.740  19.343  0.00  0.00    -0.495 OA
ATOM     35  C   UNL     1     -10.122 -11.116  20.042  0.00  0.00    +0.277 C 
ENDBRANCH  34   4
ENDBRANCH   8  27
ENDBRANCH   1  22
ENDBRANCH  17   1
ENDBRANCH  11  17
TORSDOF 8
ENDMDL
MODEL 2
REMARK VINA RESULT:      -5.9      1.932      6.741
REMARK  Name = 25389612
REMARK  11 active torsions:
REMARK  status: ('A' for Active; 'I' for Inactive)
REMARK    1  A    between atoms: O_1  and  C_17
REMARK    2  A    between atoms: O_1  and  C_22
REMARK    3  A    between atoms: O_3  and  C_23
REMARK    4  A    between atoms: O_3  and  C_31
REMARK    5  A    between atoms: O_4  and  C_34
REMARK    6  A    between atoms: O_4  and  C_35
REMARK    7  A    between atoms: N_6  and  C_20
REMARK    8  A    between atoms: N_8  and  C_27
REMARK    9  A    between atoms: C_10  and  C_16
REMARK   10  A    between atoms: C_11  and  C_17
REMARK   11  A    between atoms: C_19  and  C_21
REMARK                            x       y       z     vdW  Elec       q    Type
REMARK                         _______ _______ _______ _____ _____    ______ ____
ROOT
ATOM      5  N   UNL     1      -6.356 -10.344  17.988  0.00  0.00    -0.296 NA
ATOM      9  C   UNL     1      -4.490 -12.063  17.402  0.00  0.00    +0.002 C 
ATOM     10  C   UNL     1      -4.192 -10.691  16.738  0.00  0.00    +0.055 C 
ATOM     11  C   UNL     1      -6.965 -11.606  17.494  0.00  0.00    +0.095 C 
ATOM     12  C   UNL     1      -5.880 -12.559  16.949  0.00  0.00    +0.026 C 
ATOM     13  C   UNL     1      -4.572 -11.814  18.923  0.00  0.00    +0.019 C 
ATOM     14  C   UNL     1      -5.438  -9.788  16.963  0.00  0.00    +0.094 C 
ATOM     15  C   UNL     1      -5.559 -10.666  19.197  0.00  0.00    +0.085 C 
ENDROOT
BRANCH  10  16
ATOM      6  N   UNL     1      -2.409 -10.670  14.933  0.00  0.00    -0.270 N 
ATOM      7  N   UNL     1      -2.206 -10.660  13.605  0.00  0.00    -0.171 NA
ATOM     16  C   UNL     1      -3.725 -10.679  15.289  0.00  0.00    +0.044 A 
ATOM     18  C   UNL     1      -4.433 -10.674  14.112  0.00  0.00    +0.053 A 
ATOM     19  C   UNL     1      -3.447 -10.663  13.109  0.00  0.00    +0.096 A 
ATOM     20  C   UNL     1      -1.268 -10.668  15.820  0.00  0.00    +0.172 C 
BRANCH  19  21
ATOM     21  C   UNL     1      -3.666 -10.653  11.686  0.00  0.00    +0.044 A 
ATOM     23  C   UNL     1      -4.041 -11.815  11.011  0.00  0.00    +0.129 A 
ATOM     24  C   UNL     1      -3.499  -9.461  10.981  0.00  0.00    +0.014 A 
ATOM     25  C   UNL     1      -4.249 -11.784   9.631  0.00  0.00    +0.046 A 
ATOM     26  C   UNL     1      -3.707  -9.430   9.602  0.00  0.00    +0.001 A 
ATOM     28  C   UNL     1      -4.082 -10.592   8.928  0.00  0.00    +0.004 A 
BRANCH  23   3
ATOM      3  O   UNL     1      -4.212 -12.995  11.673  0.00  0.00    -0.494 OA
ATOM     31  C   UNL     1      -3.177 -13.966  11.540  0.00  0.00    +0.277 C 
ENDBRANCH  23   3
ENDBRANCH  19  21
ENDBRANCH  10  16
BRANCH  11  17
ATOM     17  C   UNL     1      -8.073 -11.356  16.468  0.00  0.00    +0.252 C 
BRANCH  17   1
ATOM      1  O   UNL     1      -7.656 -11.884  15.224  0.00  0.00    -0.449 OA
BRANCH   1  22
ATOM      2  O   UNL     1      -9.398 -11.014  14.024  0.00  0.00    -0.226 OA
ATOM      8  N   UNL     1      -7.245 -11.194  13.120  0.00  0.00    -0.251 N 
ATOM     22  C   UNL     1      -8.215 -11.326  14.096  0.00  0.00    +0.405 C 
ATOM     36  H   UNL     1      -6.313 -11.512  13.369  0.00  0.00    +0.158 HD
BRANCH   8  27
ATOM     27  C   UNL     1      -7.390 -10.669  11.816  0.00  0.00    +0.037 A 
ATOM     29  C   UNL     1      -7.762 -11.508  10.765  0.00  0.00    +0.027 A 
ATOM     30  C   UNL     1      -7.160  -9.314  11.580  0.00  0.00    +0.027 A 
ATOM     32  C   UNL     1      -7.905 -10.991   9.478  0.00  0.00    +0.047 A 
ATOM     33  C   UNL     1      -7.303  -8.797  10.292  0.00  0.00    +0.047 A 
ATOM     34  C   UNL     1      -7.675  -9.635   9.242  0.00  0.00    +0.120 A 
BRANCH  34   4
ATOM      4  O   UNL     1      -7.815  -9.130   7.985  0.00  0.00    -0.495 OA
ATOM     35  C   UNL     1      -7.113  -9.797   6.936  0.00  0.00    +0.277 C 
ENDBRANCH  34   4
ENDBRANCH   8  27
ENDBRANCH   1  22
ENDBRANCH  17   1
ENDBRANCH  11  17
TORSDOF 8
ENDMDL
MODEL 3
REMARK VINA RESULT:      -5.8      2.700      6.293
REMARK  Name = 25389612
REMARK  11 active torsions:
REMARK  status: ('A' for Active; 'I' for Inactive)
REMARK    1  A    between atoms: O_1  and  C_17
REMARK    2  A    between atoms: O_1  and  C_22
REMARK    3  A    between atoms: O_3  and  C_23
REMARK    4  A    between atoms: O_3  and  C_31
REMARK    5  A    between atoms: O_4  and  C_34
REMARK    6  A    between atoms: O_4  and  C_35
REMARK    7  A    between atoms: N_6  and  C_20
REMARK    8  A    between atoms: N_8  and  C_27
REMARK    9  A    between atoms: C_10  and  C_16
REMARK   10  A    between atoms: C_11  and  C_17
REMARK   11  A    between atoms: C_19  and  C_21
REMARK                            x       y       z     vdW  Elec       q    Type
REMARK                         _______ _______ _______ _____ _____    ______ ____
ROOT
ATOM      5  N   UNL     1      -6.442 -10.456  17.891  0.00  0.00    -0.296 NA
ATOM      9  C   UNL     1      -4.409 -11.979  17.319  0.00  0.00    +0.002 C 
ATOM     10  C   UNL     1      -4.277 -10.606  16.604  0.00  0.00    +0.055 C 
ATOM     11  C   UNL     1      -6.918 -11.794  17.452  0.00  0.00    +0.095 C 
ATOM     12  C   UNL     1      -5.744 -12.640  16.914  0.00  0.00    +0.026 C 
ATOM     13  C   UNL     1      -4.489 -11.688  18.832  0.00  0.00    +0.019 C 
ATOM     14  C   UNL     1      -5.612  -9.838  16.828  0.00  0.00    +0.094 C 
ATOM     15  C   UNL     1      -5.592 -10.647  19.091  0.00  0.00    +0.085 C 
ENDROOT
BRANCH  10  16
ATOM      6  N   UNL     1      -2.535 -10.586  14.761  0.00  0.00    -0.270 N 
ATOM      7  N   UNL     1      -2.361 -10.574  13.428  0.00  0.00    -0.171 NA
ATOM     16  C   UNL     1      -3.842 -10.593  15.146  0.00  0.00    +0.044 A 
ATOM     18  C   UNL     1      -4.576 -10.585  13.984  0.00  0.00    +0.053 A 
ATOM     19  C   UNL     1      -3.612 -10.575  12.960  0.00  0.00    +0.096 A 
ATOM     20  C   UNL     1      -1.375 -10.587  15.623  0.00  0.00    +0.172 C 
BRANCH  19  21
ATOM     21  C   UNL     1      -3.863 -10.562  11.542  0.00  0.00    +0.044 A 
ATOM     23  C   UNL     1      -4.237 -11.726  10.870  0.00  0.00    +0.129 A 
ATOM     24  C   UNL     1      -3.727  -9.365  10.839  0.00  0.00    +0.014 A 
ATOM     25  C   UNL     1      -4.475 -11.692   9.496  0.00  0.00    +0.046 A 
ATOM     26  C   UNL     1      -3.965  -9.331   9.465  0.00  0.00    +0.001 A 
ATOM     28  C   UNL     1      -4.339 -10.495   8.794  0.00  0.00    +0.004 A 
BRANCH  23   3
ATOM      3  O   UNL     1      -4.377 -12.911  11.531  0.00  0.00    -0.494 OA
ATOM     31  C   UNL     1      -3.353 -13.884  11.338  0.00  0.00    +0.277 C 
ENDBRANCH  23   3
ENDBRANCH  19  21
ENDBRANCH  10  16
BRANCH  11  17
ATOM     17  C   UNL     1      -8.066 -11.702  16.444  0.00  0.00    +0.252 C 
BRANCH  17   1
ATOM      1  O   UNL     1      -9.286 -11.849  17.144  0.00  0.00    -0.449 OA
BRANCH   1  22
ATOM      2  O   UNL     1     -10.893 -10.530  18.098  0.00  0.00    -0.226 OA
ATOM      8  N   UNL     1      -9.919  -9.992  16.038  0.00  0.00    -0.251 N 
ATOM     22  C   UNL     1     -10.117 -10.751  17.176  0.00  0.00    +0.405 C 
ATOM     36  H   UNL     1      -9.225 -10.341  15.381  0.00  0.00    +0.158 HD
BRANCH   8  27
ATOM     27  C   UNL     1     -10.562  -8.788  15.672  0.00  0.00    +0.037 A 
ATOM     29  C   UNL     1      -9.979  -7.561  15.990  0.00  0.00    +0.027 A 
ATOM     30  C   UNL     1     -11.779  -8.827  14.992  0.00  0.00    +0.027 A 
ATOM     32  C   UNL     1     -10.613  -6.373  15.628  0.00  0.00    +0.047 A 
ATOM     33  C   UNL     1     -12.414  -7.638  14.631  0.00  0.00    +0.047 A 
ATOM     34  C   UNL     1     -11.831  -6.412  14.948  0.00  0.00    +0.120 A 
BRANCH  34   4
ATOM      4  O   UNL     1     -12.449  -5.252  14.595  0.00  0.00    -0.495 OA
ATOM     35  C   UNL     1     -12.236  -4.781  13.265  0.00  0.00    +0.277 C 
ENDBRANCH  34   4
ENDBRANCH   8  27
ENDBRANCH   1  22
ENDBRANCH  17   1
ENDBRANCH  11  17
TORSDOF 8
ENDMDL
MODEL 4
REMARK VINA RESULT:      -5.7      2.153      6.455
REMARK  Name = 25389612
REMARK  11 active torsions:
REMARK  status: ('A' for Active; 'I' for Inactive)
REMARK    1  A    between atoms: O_1  and  C_17
REMARK    2  A    between atoms: O_1  and  C_22
REMARK    3  A    between atoms: O_3  and  C_23
REMARK    4  A    between atoms: O_3  and  C_31
REMARK    5  A    between atoms: O_4  and  C_34
REMARK    6  A    between atoms: O_4  and  C_35
REMARK    7  A    between atoms: N_6  and  C_20
REMARK    8  A    between atoms: N_8  and  C_27
REMARK    9  A    between atoms: C_10  and  C_16
REMARK   10  A    between atoms: C_11  and  C_17
REMARK   11  A    between atoms: C_19  and  C_21
REMARK                            x       y       z     vdW  Elec       q    Type
REMARK                         _______ _______ _______ _____ _____    ______ ____
ROOT
ATOM      5  N   UNL     1      -9.764  -8.486  16.656  0.00  0.00    -0.296 NA
ATOM      9  C   UNL     1      -9.283 -10.857  17.619  0.00  0.00    +0.002 C 
ATOM     10  C   UNL     1      -8.065  -9.920  17.850  0.00  0.00    +0.055 C 
ATOM     11  C   UNL     1     -10.076  -9.522  15.636  0.00  0.00    +0.095 C 
ATOM     12  C   UNL     1      -9.605 -10.913  16.110  0.00  0.00    +0.026 C 
ATOM     13  C   UNL     1     -10.492 -10.199  18.316  0.00  0.00    +0.019 C 
ATOM     14  C   UNL     1      -8.346  -8.600  17.077  0.00  0.00    +0.094 C 
ATOM     15  C   UNL     1     -10.620  -8.742  17.839  0.00  0.00    +0.085 C 
ENDROOT
BRANCH  10  16
ATOM      6  N   UNL     1      -5.888 -11.027  18.536  0.00  0.00    -0.270 N 
ATOM      7  N   UNL     1      -4.694 -11.449  18.087  0.00  0.00    -0.171 NA
ATOM     16  C   UNL     1      -6.673 -10.468  17.572  0.00  0.00    +0.044 A 
ATOM     18  C   UNL     1      -5.941 -10.527  16.410  0.00  0.00    +0.053 A 
ATOM     19  C   UNL     1      -4.733 -11.141  16.787  0.00  0.00    +0.096 A 
ATOM     20  C   UNL     1      -6.215 -11.195  19.934  0.00  0.00    +0.172 C 
BRANCH  19  21
ATOM     21  C   UNL     1      -3.614 -11.437  15.931  0.00  0.00    +0.044 A 
ATOM     23  C   UNL     1      -3.555 -12.634  15.217  0.00  0.00    +0.129 A 
ATOM     24  C   UNL     1      -2.579 -10.508  15.821  0.00  0.00    +0.014 A 
ATOM     25  C   UNL     1      -2.461 -12.901  14.393  0.00  0.00    +0.046 A 
ATOM     26  C   UNL     1      -1.486 -10.775  14.996  0.00  0.00    +0.001 A 
ATOM     28  C   UNL     1      -1.427 -11.972  14.283  0.00  0.00    +0.004 A 
BRANCH  23   3
ATOM      3  O   UNL     1      -4.551 -13.561  15.306  0.00  0.00    -0.494 OA
ATOM     31  C   UNL     1      -5.441 -13.662  14.197  0.00  0.00    +0.277 C 
ENDBRANCH  23   3
ENDBRANCH  19  21
ENDBRANCH  10  16
BRANCH  11  17
ATOM     17  C   UNL     1      -9.515  -9.169  14.256  0.00  0.00    +0.252 C 
BRANCH  17   1
ATOM      1  O   UNL     1      -9.646 -10.301  13.418  0.00  0.00    -0.449 OA
BRANCH   1  22
ATOM      2  O   UNL     1      -8.546 -11.582  11.876  0.00  0.00    -0.226 OA
ATOM      8  N   UNL     1      -7.573  -9.667  12.809  0.00  0.00    -0.251 N 
ATOM     22  C   UNL     1      -8.567 -10.609  12.621  0.00  0.00    +0.405 C 
ATOM     36  H   UNL     1      -7.778  -8.926  13.474  0.00  0.00    +0.158 HD
BRANCH   8  27
ATOM     27  C   UNL     1      -6.305  -9.605  12.190  0.00  0.00    +0.037 A 
ATOM     29  C   UNL     1      -5.243 -10.354  12.699  0.00  0.00    +0.027 A 
ATOM     30  C   UNL     1      -6.113  -8.797  11.070  0.00  0.00    +0.027 A 
ATOM     32  C   UNL     1      -3.991 -10.294  12.089  0.00  0.00    +0.047 A 
ATOM     33  C   UNL     1      -4.860  -8.736  10.459  0.00  0.00    +0.047 A 
ATOM     34  C   UNL     1      -3.800  -9.485  10.968  0.00  0.00    +0.120 A 
BRANCH  34   4
ATOM      4  O   UNL     1      -2.577  -9.427  10.372  0.00  0.00    -0.495 OA
ATOM     35  C   UNL     1      -1.442  -9.310  11.229  0.00  0.00    +0.277 C 
ENDBRANCH  34   4
ENDBRANCH   8  27
ENDBRANCH   1  22
ENDBRANCH  17   1
ENDBRANCH  11  17
TORSDOF 8
ENDMDL
MODEL 5
REMARK VINA RESULT:      -5.5      2.734      8.245
REMARK  Name = 25389612
REMARK  11 active torsions:
REMARK  status: ('A' for Active; 'I' for Inactive)
REMARK    1  A    between atoms: O_1  and  C_17
REMARK    2  A    between atoms: O_1  and  C_22
REMARK    3  A    between atoms: O_3  and  C_23
REMARK    4  A    between atoms: O_3  and  C_31
REMARK    5  A    between atoms: O_4  and  C_34
REMARK    6  A    between atoms: O_4  and  C_35
REMARK    7  A    between atoms: N_6  and  C_20
REMARK    8  A    between atoms: N_8  and  C_27
REMARK    9  A    between atoms: C_10  and  C_16
REMARK   10  A    between atoms: C_11  and  C_17
REMARK   11  A    between atoms: C_19  and  C_21
REMARK                            x       y       z     vdW  Elec       q    Type
REMARK                         _______ _______ _______ _____ _____    ______ ____
ROOT
ATOM      5  N   UNL     1      -5.123 -12.516  16.871  0.00  0.00    -0.296 NA
ATOM      9  C   UNL     1      -5.744 -10.760  18.691  0.00  0.00    +0.002 C 
ATOM     10  C   UNL     1      -7.024 -11.449  18.143  0.00  0.00    +0.055 C 
ATOM     11  C   UNL     1      -4.455 -11.221  16.577  0.00  0.00    +0.095 C 
ATOM     12  C   UNL     1      -4.970 -10.114  17.522  0.00  0.00    +0.026 C 
ATOM     13  C   UNL     1      -4.847 -11.876  19.266  0.00  0.00    +0.019 C 
ATOM     14  C   UNL     1      -6.593 -12.327  16.932  0.00  0.00    +0.094 C 
ATOM     15  C   UNL     1      -4.659 -12.973  18.204  0.00  0.00    +0.085 C 
ENDROOT
BRANCH  10  16
ATOM      6  N   UNL     1      -9.346 -10.539  18.606  0.00  0.00    -0.270 N 
ATOM      7  N   UNL     1     -10.299  -9.708  18.153  0.00  0.00    -0.171 NA
ATOM     16  C   UNL     1      -8.230 -10.578  17.824  0.00  0.00    +0.044 A 
ATOM     18  C   UNL     1      -8.469  -9.712  16.785  0.00  0.00    +0.053 A 
ATOM     19  C   UNL     1      -9.757  -9.205  17.040  0.00  0.00    +0.096 A 
ATOM     20  C   UNL     1      -9.580 -11.283  19.823  0.00  0.00    +0.172 C 
BRANCH  19  21
ATOM     21  C   UNL     1     -10.480  -8.251  16.240  0.00  0.00    +0.044 A 
ATOM     23  C   UNL     1     -11.061  -8.626  15.028  0.00  0.00    +0.129 A 
ATOM     24  C   UNL     1     -10.597  -6.937  16.690  0.00  0.00    +0.014 A 
ATOM     25  C   UNL     1     -11.758  -7.687  14.268  0.00  0.00    +0.046 A 
ATOM     26  C   UNL     1     -11.295  -5.997  15.931  0.00  0.00    +0.001 A 
ATOM     28  C   UNL     1     -11.874  -6.373  14.719  0.00  0.00    +0.004 A 
BRANCH  23   3
ATOM      3  O   UNL     1     -10.962  -9.905  14.562  0.00  0.00    -0.494 OA
ATOM     31  C   UNL     1     -12.124 -10.724  14.671  0.00  0.00    +0.277 C 
ENDBRANCH  23   3
ENDBRANCH  19  21
ENDBRANCH  10  16
BRANCH  11  17
ATOM     17  C   UNL     1      -4.582 -10.820  15.106  0.00  0.00    +0.252 C 
BRANCH  17   1
ATOM      1  O   UNL     1      -3.293 -10.505  14.616  0.00  0.00    -0.449 OA
BRANCH   1  22
ATOM      2  O   UNL     1      -2.055 -11.046  12.771  0.00  0.00    -0.226 OA
ATOM      8  N   UNL     1      -4.240 -10.223  12.592  0.00  0.00    -0.251 N 
ATOM     22  C   UNL     1      -3.099 -10.630  13.258  0.00  0.00    +0.405 C 
ATOM     36  H   UNL     1      -5.011  -9.908  13.174  0.00  0.00    +0.158 HD
BRANCH   8  27
ATOM     27  C   UNL     1      -4.468 -10.190  11.198  0.00  0.00    +0.037 A 
ATOM     29  C   UNL     1      -5.160 -11.233  10.580  0.00  0.00    +0.027 A 
ATOM     30  C   UNL     1      -4.002  -9.117  10.440  0.00  0.00    +0.027 A 
ATOM     32  C   UNL     1      -5.385 -11.200   9.204  0.00  0.00    +0.047 A 
ATOM     33  C   UNL     1      -4.227  -9.084   9.063  0.00  0.00    +0.047 A 
ATOM     34  C   UNL     1      -4.919 -10.125   8.446  0.00  0.00    +0.120 A 
BRANCH  34   4
ATOM      4  O   UNL     1      -5.140 -10.094   7.103  0.00  0.00    -0.495 OA
ATOM     35  C   UNL     1      -6.406  -9.602   6.665  0.00  0.00    +0.277 C 
ENDBRANCH  34   4
ENDBRANCH   8  27
ENDBRANCH   1  22
ENDBRANCH  17   1
ENDBRANCH  11  17
TORSDOF 8
ENDMDL
MODEL 6
REMARK VINA RESULT:      -5.5      1.757      4.528
REMARK  Name = 25389612
REMARK  11 active torsions:
REMARK  status: ('A' for Active; 'I' for Inactive)
REMARK    1  A    between atoms: O_1  and  C_17
REMARK    2  A    between atoms: O_1  and  C_22
REMARK    3  A    between atoms: O_3  and  C_23
REMARK    4  A    between atoms: O_3  and  C_31
REMARK    5  A    between atoms: O_4  and  C_34
REMARK    6  A    between atoms: O_4  and  C_35
REMARK    7  A    between atoms: N_6  and  C_20
REMARK    8  A    between atoms: N_8  and  C_27
REMARK    9  A    between atoms: C_10  and  C_16
REMARK   10  A    between atoms: C_11  and  C_17
REMARK   11  A    between atoms: C_19  and  C_21
REMARK                            x       y       z     vdW  Elec       q    Type
REMARK                         _______ _______ _______ _____ _____    ______ ____
ROOT
ATOM      5  N   UNL     1      -3.688  -9.056  10.259  0.00  0.00    -0.296 NA
ATOM      9  C   UNL     1      -5.557 -10.856  10.043  0.00  0.00    +0.002 C 
ATOM     10  C   UNL     1      -6.102  -9.591  10.762  0.00  0.00    +0.055 C 
ATOM     11  C   UNL     1      -3.187 -10.369  10.744  0.00  0.00    +0.095 C 
ATOM     12  C   UNL     1      -4.336 -11.397  10.818  0.00  0.00    +0.026 C 
ATOM     13  C   UNL     1      -5.049 -10.400   8.659  0.00  0.00    +0.019 C 
ATOM     14  C   UNL     1      -4.890  -8.654  11.031  0.00  0.00    +0.094 C 
ATOM     15  C   UNL     1      -4.082  -9.217   8.839  0.00  0.00    +0.085 C 
ENDROOT
BRANCH  10  16
ATOM      6  N   UNL     1      -8.332  -9.755  11.960  0.00  0.00    -0.270 N 
ATOM      7  N   UNL     1      -8.912  -9.945  13.157  0.00  0.00    -0.171 NA
ATOM     16  C   UNL     1      -6.970  -9.783  11.997  0.00  0.00    +0.044 A 
ATOM     18  C   UNL     1      -6.634 -10.005  13.311  0.00  0.00    +0.053 A 
ATOM     19  C   UNL     1      -7.869 -10.097  13.978  0.00  0.00    +0.096 A 
ATOM     20  C   UNL     1      -9.166  -9.547  10.797  0.00  0.00    +0.172 C 
BRANCH  19  21
ATOM     21  C   UNL     1      -8.073 -10.326  15.385  0.00  0.00    +0.044 A 
ATOM     23  C   UNL     1      -8.738 -11.465  15.837  0.00  0.00    +0.129 A 
ATOM     24  C   UNL     1      -7.594  -9.389  16.301  0.00  0.00    +0.014 A 
ATOM     25  C   UNL     1      -8.925 -11.667  17.204  0.00  0.00    +0.046 A 
ATOM     26  C   UNL     1      -7.780  -9.591  17.669  0.00  0.00    +0.001 A 
ATOM     28  C   UNL     1      -8.447 -10.731  18.120  0.00  0.00    +0.004 A 
BRANCH  23   3
ATOM      3  O   UNL     1      -9.218 -12.397  14.964  0.00  0.00    -0.494 OA
ATOM     31  C   UNL     1      -8.576 -13.670  14.961  0.00  0.00    +0.277 C 
ENDBRANCH  23   3
ENDBRANCH  19  21
ENDBRANCH  10  16
BRANCH  11  17
ATOM     17  C   UNL     1      -2.439 -10.252  12.074  0.00  0.00    +0.252 C 
BRANCH  17   1
ATOM      1  O   UNL     1      -1.833 -11.499  12.356  0.00  0.00    -0.449 OA
BRANCH   1  22
ATOM      2  O   UNL     1      -1.458 -12.980  14.058  0.00  0.00    -0.226 OA
ATOM      8  N   UNL     1      -3.207 -11.425  14.138  0.00  0.00    -0.251 N 
ATOM     22  C   UNL     1      -2.113 -12.060  13.582  0.00  0.00    +0.405 C 
ATOM     36  H   UNL     1      -3.620 -10.678  13.587  0.00  0.00    +0.158 HD
BRANCH   8  27
ATOM     27  C   UNL     1      -3.825 -11.686  15.382  0.00  0.00    +0.037 A 
ATOM     29  C   UNL     1      -3.471 -10.940  16.507  0.00  0.00    +0.027 A 
ATOM     30  C   UNL     1      -4.789 -12.689  15.484  0.00  0.00    +0.027 A 
ATOM     32  C   UNL     1      -4.081 -11.198  17.734  0.00  0.00    +0.047 A 
ATOM     33  C   UNL     1      -5.399 -12.947  16.713  0.00  0.00    +0.047 A 
ATOM     34  C   UNL     1      -5.046 -12.201  17.836  0.00  0.00    +0.120 A 
BRANCH  34   4
ATOM      4  O   UNL     1      -5.641 -12.451  19.035  0.00  0.00    -0.495 OA
ATOM     35  C   UNL     1      -5.574 -11.421  20.021  0.00  0.00    +0.277 C 
ENDBRANCH  34   4
ENDBRANCH   8  27
ENDBRANCH   1  22
ENDBRANCH  17   1
ENDBRANCH  11  17
TORSDOF 8
ENDMDL
MODEL 7
REMARK VINA RESULT:      -5.3     25.353     29.424
REMARK  Name = 25389612
REMARK  11 active torsions:
REMARK  status: ('A' for Active; 'I' for Inactive)
REMARK    1  A    between atoms: O_1  and  C_17
REMARK    2  A    between atoms: O_1  and  C_22
REMARK    3  A    between atoms: O_3  and  C_23
REMARK    4  A    between atoms: O_3  and  C_31
REMARK    5  A    between atoms: O_4  and  C_34
REMARK    6  A    between atoms: O_4  and  C_35
REMARK    7  A    between atoms: N_6  and  C_20
REMARK    8  A    between atoms: N_8  and  C_27
REMARK    9  A    between atoms: C_10  and  C_16
REMARK   10  A    between atoms: C_11  and  C_17
REMARK   11  A    between atoms: C_19  and  C_21
REMARK                            x       y       z     vdW  Elec       q    Type
REMARK                         _______ _______ _______ _____ _____    ______ ____
ROOT
ATOM      5  N   UNL     1      11.961   8.713   6.826  0.00  0.00    -0.296 NA
ATOM      9  C   UNL     1       9.972   8.513   5.157  0.00  0.00    +0.002 C 
ATOM     10  C   UNL     1      10.519   7.105   5.522  0.00  0.00    +0.055 C 
ATOM     11  C   UNL     1      12.174   9.623   5.671  0.00  0.00    +0.095 C 
ATOM     12  C   UNL     1      11.117   9.370   4.575  0.00  0.00    +0.026 C 
ATOM     13  C   UNL     1       9.536   9.178   6.480  0.00  0.00    +0.019 C 
ATOM     14  C   UNL     1      11.818   7.314   6.352  0.00  0.00    +0.094 C 
ATOM     15  C   UNL     1      10.695   9.109   7.489  0.00  0.00    +0.085 C 
ENDROOT
BRANCH  10  16
ATOM      6  N   UNL     1      10.421   4.768   4.539  0.00  0.00    -0.270 N 
ATOM      7  N   UNL     1      10.656   4.043   3.433  0.00  0.00    -0.171 NA
ATOM     16  C   UNL     1      10.707   6.094   4.400  0.00  0.00    +0.044 A 
ATOM     18  C   UNL     1      11.162   6.247   3.113  0.00  0.00    +0.053 A 
ATOM     19  C   UNL     1      11.108   4.953   2.564  0.00  0.00    +0.096 A 
ATOM     20  C   UNL     1       9.913   4.108   5.720  0.00  0.00    +0.172 C 
BRANCH  19  21
ATOM     21  C   UNL     1      11.482   4.567   1.229  0.00  0.00    +0.044 A 
ATOM     23  C   UNL     1      12.744   4.036   0.963  0.00  0.00    +0.129 A 
ATOM     24  C   UNL     1      10.564   4.730   0.192  0.00  0.00    +0.014 A 
ATOM     25  C   UNL     1      13.087   3.668  -0.338  0.00  0.00    +0.046 A 
ATOM     26  C   UNL     1      10.906   4.363  -1.109  0.00  0.00    +0.001 A 
ATOM     28  C   UNL     1      12.168   3.832  -1.373  0.00  0.00    +0.004 A 
BRANCH  23   3
ATOM      3  O   UNL     1      13.664   3.865   1.957  0.00  0.00    -0.494 OA
ATOM     31  C   UNL     1      14.981   3.491   1.561  0.00  0.00    +0.277 C 
ENDBRANCH  23   3
ENDBRANCH  19  21
ENDBRANCH  10  16
BRANCH  11  17
ATOM     17  C   UNL     1      13.599   9.540   5.118  0.00  0.00    +0.252 C 
BRANCH  17   1
ATOM      1  O   UNL     1      14.504   9.640   6.201  0.00  0.00    -0.449 OA
BRANCH   1  22
ATOM      2  O   UNL     1      15.416   7.589   6.637  0.00  0.00    -0.226 OA
ATOM      8  N   UNL     1      16.684   9.334   5.726  0.00  0.00    -0.251 N 
ATOM     22  C   UNL     1      15.542   8.736   6.225  0.00  0.00    +0.405 C 
ATOM     36  H   UNL     1      16.590  10.303   5.431  0.00  0.00    +0.158 HD
BRANCH   8  27
ATOM     27  C   UNL     1      17.969   8.766   5.575  0.00  0.00    +0.037 A 
ATOM     29  C   UNL     1      18.342   8.202   4.354  0.00  0.00    +0.027 A 
ATOM     30  C   UNL     1      18.863   8.770   6.644  0.00  0.00    +0.027 A 
ATOM     32  C   UNL     1      19.610   7.642   4.204  0.00  0.00    +0.047 A 
ATOM     33  C   UNL     1      20.132   8.209   6.494  0.00  0.00    +0.047 A 
ATOM     34  C   UNL     1      20.505   7.646   5.274  0.00  0.00    +0.120 A 
BRANCH  34   4
ATOM      4  O   UNL     1      21.743   7.099   5.127  0.00  0.00    -0.495 OA
ATOM     35  C   UNL     1      21.986   6.355   3.933  0.00  0.00    +0.277 C 
ENDBRANCH  34   4
ENDBRANCH   8  27
ENDBRANCH   1  22
ENDBRANCH  17   1
ENDBRANCH  11  17
TORSDOF 8
ENDMDL
MODEL 8
REMARK VINA RESULT:      -5.3     24.273     27.203
REMARK  Name = 25389612
REMARK  11 active torsions:
REMARK  status: ('A' for Active; 'I' for Inactive)
REMARK    1  A    between atoms: O_1  and  C_17
REMARK    2  A    between atoms: O_1  and  C_22
REMARK    3  A    between atoms: O_3  and  C_23
REMARK    4  A    between atoms: O_3  and  C_31
REMARK    5  A    between atoms: O_4  and  C_34
REMARK    6  A    between atoms: O_4  and  C_35
REMARK    7  A    between atoms: N_6  and  C_20
REMARK    8  A    between atoms: N_8  and  C_27
REMARK    9  A    between atoms: C_10  and  C_16
REMARK   10  A    between atoms: C_11  and  C_17
REMARK   11  A    between atoms: C_19  and  C_21
REMARK                            x       y       z     vdW  Elec       q    Type
REMARK                         _______ _______ _______ _____ _____    ______ ____
ROOT
ATOM      5  N   UNL     1      11.593   5.949  -2.353  0.00  0.00    -0.296 NA
ATOM      9  C   UNL     1       9.040   6.440  -2.193  0.00  0.00    +0.002 C 
ATOM     10  C   UNL     1       9.858   7.607  -1.573  0.00  0.00    +0.055 C 
ATOM     11  C   UNL     1      10.885   4.777  -1.773  0.00  0.00    +0.095 C 
ATOM     12  C   UNL     1       9.410   5.122  -1.478  0.00  0.00    +0.026 C 
ATOM     13  C   UNL     1       9.498   6.304  -3.660  0.00  0.00    +0.019 C 
ATOM     14  C   UNL     1      11.345   7.153  -1.523  0.00  0.00    +0.094 C 
ATOM     15  C   UNL     1      11.033   6.194  -3.704  0.00  0.00    +0.085 C 
ENDROOT
BRANCH  10  16
ATOM      6  N   UNL     1       8.510   9.232  -0.166  0.00  0.00    -0.270 N 
ATOM      7  N   UNL     1       8.222   9.600   1.094  0.00  0.00    -0.171 NA
ATOM     16  C   UNL     1       9.388   8.191  -0.249  0.00  0.00    +0.044 A 
ATOM     18  C   UNL     1       9.696   7.855   1.047  0.00  0.00    +0.053 A 
ATOM     19  C   UNL     1       8.949   8.754   1.830  0.00  0.00    +0.096 A 
ATOM     20  C   UNL     1       7.895   9.940  -1.266  0.00  0.00    +0.172 C 
BRANCH  19  21
ATOM     21  C   UNL     1       8.918   8.824   3.268  0.00  0.00    +0.044 A 
ATOM     23  C   UNL     1       9.732   9.721   3.959  0.00  0.00    +0.129 A 
ATOM     24  C   UNL     1       8.061   7.978   3.970  0.00  0.00    +0.014 A 
ATOM     25  C   UNL     1       9.687   9.773   5.352  0.00  0.00    +0.046 A 
ATOM     26  C   UNL     1       8.015   8.029   5.364  0.00  0.00    +0.001 A 
ATOM     28  C   UNL     1       8.829   8.927   6.054  0.00  0.00    +0.004 A 
BRANCH  23   3
ATOM      3  O   UNL     1      10.581  10.560   3.299  0.00  0.00    -0.494 OA
ATOM     31  C   UNL     1      11.597  11.192   4.074  0.00  0.00    +0.277 C 
ENDBRANCH  23   3
ENDBRANCH  19  21
ENDBRANCH  10  16
BRANCH  11  17
ATOM     17  C   UNL     1      11.598   4.218  -0.539  0.00  0.00    +0.252 C 
BRANCH  17   1
ATOM      1  O   UNL     1      10.628   3.967   0.460  0.00  0.00    -0.449 OA
BRANCH   1  22
ATOM      2  O   UNL     1      11.917   3.176   2.176  0.00  0.00    -0.226 OA
ATOM      8  N   UNL     1      10.417   4.949   2.475  0.00  0.00    -0.251 N 
ATOM     22  C   UNL     1      11.071   3.961   1.764  0.00  0.00    +0.405 C 
ATOM     36  H   UNL     1       9.742   5.504   1.955  0.00  0.00    +0.158 HD
BRANCH   8  27
ATOM     27  C   UNL     1      10.571   5.286   3.839  0.00  0.00    +0.037 A 
ATOM     29  C   UNL     1       9.797   4.644   4.807  0.00  0.00    +0.027 A 
ATOM     30  C   UNL     1      11.495   6.258   4.217  0.00  0.00    +0.027 A 
ATOM     32  C   UNL     1       9.948   4.976   6.153  0.00  0.00    +0.047 A 
ATOM     33  C   UNL     1      11.647   6.590   5.564  0.00  0.00    +0.047 A 
ATOM     34  C   UNL     1      10.874   5.949   6.531  0.00  0.00    +0.120 A 
BRANCH  34   4
ATOM      4  O   UNL     1      11.021   6.272   7.846  0.00  0.00    -0.495 OA
ATOM     35  C   UNL     1      10.112   5.672   8.768  0.00  0.00    +0.277 C 
ENDBRANCH  34   4
ENDBRANCH   8  27
ENDBRANCH   1  22
ENDBRANCH  17   1
ENDBRANCH  11  17
TORSDOF 8
ENDMDL
MODEL 9
REMARK VINA RESULT:      -5.3     24.699     28.074
REMARK  Name = 25389612
REMARK  11 active torsions:
REMARK  status: ('A' for Active; 'I' for Inactive)
REMARK    1  A    between atoms: O_1  and  C_17
REMARK    2  A    between atoms: O_1  and  C_22
REMARK    3  A    between atoms: O_3  and  C_23
REMARK    4  A    between atoms: O_3  and  C_31
REMARK    5  A    between atoms: O_4  and  C_34
REMARK    6  A    between atoms: O_4  and  C_35
REMARK    7  A    between atoms: N_6  and  C_20
REMARK    8  A    between atoms: N_8  and  C_27
REMARK    9  A    between atoms: C_10  and  C_16
REMARK   10  A    between atoms: C_11  and  C_17
REMARK   11  A    between atoms: C_19  and  C_21
REMARK                            x       y       z     vdW  Elec       q    Type
REMARK                         _______ _______ _______ _____ _____    ______ ____
ROOT
ATOM      5  N   UNL     1      15.374   7.072  -0.920  0.00  0.00    -0.296 NA
ATOM      9  C   UNL     1      14.552   4.618  -0.630  0.00  0.00    +0.002 C 
ATOM     10  C   UNL     1      13.344   5.593  -0.684  0.00  0.00    +0.055 C 
ATOM     11  C   UNL     1      16.109   6.419   0.194  0.00  0.00    +0.095 C 
ATOM     12  C   UNL     1      15.497   5.039   0.516  0.00  0.00    +0.026 C 
ATOM     13  C   UNL     1      15.332   4.800  -1.949  0.00  0.00    +0.019 C 
ATOM     14  C   UNL     1      13.915   7.039  -0.654  0.00  0.00    +0.094 C 
ATOM     15  C   UNL     1      15.636   6.294  -2.156  0.00  0.00    +0.085 C 
ENDROOT
BRANCH  10  16
ATOM      6  N   UNL     1      11.108   4.648   0.054  0.00  0.00    -0.270 N 
ATOM      7  N   UNL     1      10.229   4.599   1.069  0.00  0.00    -0.171 NA
ATOM     16  C   UNL     1      12.216   5.396   0.319  0.00  0.00    +0.044 A 
ATOM     18  C   UNL     1      12.051   5.871   1.598  0.00  0.00    +0.053 A 
ATOM     19  C   UNL     1      10.812   5.348   2.010  0.00  0.00    +0.096 A 
ATOM     20  C   UNL     1      10.811   3.938  -1.170  0.00  0.00    +0.172 C 
BRANCH  19  21
ATOM     21  C   UNL     1      10.172   5.552   3.283  0.00  0.00    +0.044 A 
ATOM     23  C   UNL     1       9.292   6.615   3.481  0.00  0.00    +0.129 A 
ATOM     24  C   UNL     1      10.443   4.669   4.328  0.00  0.00    +0.014 A 
ATOM     25  C   UNL     1       8.682   6.795   4.723  0.00  0.00    +0.046 A 
ATOM     26  C   UNL     1       9.833   4.848   5.570  0.00  0.00    +0.001 A 
ATOM     28  C   UNL     1       8.953   5.912   5.767  0.00  0.00    +0.004 A 
BRANCH  23   3
ATOM      3  O   UNL     1       9.009   7.496   2.478  0.00  0.00    -0.494 OA
ATOM     31  C   UNL     1       8.197   8.619   2.813  0.00  0.00    +0.277 C 
ENDBRANCH  23   3
ENDBRANCH  19  21
ENDBRANCH  10  16
BRANCH  11  17
ATOM     17  C   UNL     1      16.197   7.308   1.436  0.00  0.00    +0.252 C 
BRANCH  17   1
ATOM      1  O   UNL     1      15.490   6.678   2.487  0.00  0.00    -0.449 OA
BRANCH   1  22
ATOM      2  O   UNL     1      15.603   8.498   3.867  0.00  0.00    -0.226 OA
ATOM      8  N   UNL     1      13.809   6.996   3.951  0.00  0.00    -0.251 N 
ATOM     22  C   UNL     1      15.012   7.495   3.487  0.00  0.00    +0.405 C 
ATOM     36  H   UNL     1      13.476   6.144   3.506  0.00  0.00    +0.158 HD
BRANCH   8  27
ATOM     27  C   UNL     1      12.983   7.523   4.968  0.00  0.00    +0.037 A 
ATOM     29  C   UNL     1      12.143   8.604   4.695  0.00  0.00    +0.027 A 
ATOM     30  C   UNL     1      13.006   6.963   6.245  0.00  0.00    +0.027 A 
ATOM     32  C   UNL     1      11.327   9.124   5.699  0.00  0.00    +0.047 A 
ATOM     33  C   UNL     1      12.189   7.484   7.250  0.00  0.00    +0.047 A 
ATOM     34  C   UNL     1      11.350   8.564   6.977  0.00  0.00    +0.120 A 
BRANCH  34   4
ATOM      4  O   UNL     1      10.553   9.072   7.956  0.00  0.00    -0.495 OA
ATOM     35  C   UNL     1       9.143   8.947   7.776  0.00  0.00    +0.277 C 
ENDBRANCH  34   4
ENDBRANCH   8  27
ENDBRANCH   1  22
ENDBRANCH  17   1
ENDBRANCH  11  17
TORSDOF 8
ENDMDL
MODEL 10
REMARK VINA RESULT:      -5.2     25.924     29.477
REMARK  Name = 25389612
REMARK  11 active torsions:
REMARK  status: ('A' for Active; 'I' for Inactive)
REMARK    1  A    between atoms: O_1  and  C_17
REMARK    2  A    between atoms: O_1  and  C_22
REMARK    3  A    between atoms: O_3  and  C_23
REMARK    4  A    between atoms: O_3  and  C_31
REMARK    5  A    between atoms: O_4  and  C_34
REMARK    6  A    between atoms: O_4  and  C_35
REMARK    7  A    between atoms: N_6  and  C_20
REMARK    8  A    between atoms: N_8  and  C_27
REMARK    9  A    between atoms: C_10  and  C_16
REMARK   10  A    between atoms: C_11  and  C_17
REMARK   11  A    between atoms: C_19  and  C_21
REMARK                            x       y       z     vdW  Elec       q    Type
REMARK                         _______ _______ _______ _____ _____    ______ ____
ROOT
ATOM      5  N   UNL     1      14.821  10.155   5.621  0.00  0.00    -0.296 NA
ATOM      9  C   UNL     1      16.608   8.289   5.298  0.00  0.00    +0.002 C 
ATOM     10  C   UNL     1      16.209   8.901   3.928  0.00  0.00    +0.055 C 
ATOM     11  C   UNL     1      14.409   8.926   6.348  0.00  0.00    +0.095 C 
ATOM     12  C   UNL     1      15.345   7.748   6.003  0.00  0.00    +0.026 C 
ATOM     13  C   UNL     1      17.150   9.445   6.164  0.00  0.00    +0.019 C 
ATOM     14  C   UNL     1      15.006   9.855   4.180  0.00  0.00    +0.094 C 
ATOM     15  C   UNL     1      16.126  10.594   6.174  0.00  0.00    +0.085 C 
ENDROOT
BRANCH  10  16
ATOM      6  N   UNL     1      16.840   7.802   1.730  0.00  0.00    -0.270 N 
ATOM      7  N   UNL     1      16.437   6.920   0.800  0.00  0.00    -0.171 NA
ATOM     16  C   UNL     1      15.962   7.956   2.761  0.00  0.00    +0.044 A 
ATOM     18  C   UNL     1      14.909   7.116   2.487  0.00  0.00    +0.053 A 
ATOM     19  C   UNL     1      15.257   6.504   1.269  0.00  0.00    +0.096 A 
ATOM     20  C   UNL     1      18.106   8.477   1.559  0.00  0.00    +0.172 C 
BRANCH  19  21
ATOM     21  C   UNL     1      14.482   5.531   0.543  0.00  0.00    +0.044 A 
ATOM     23  C   UNL     1      13.862   5.864  -0.661  0.00  0.00    +0.129 A 
ATOM     24  C   UNL     1      14.357   4.241   1.058  0.00  0.00    +0.014 A 
ATOM     25  C   UNL     1      13.116   4.907  -1.350  0.00  0.00    +0.046 A 
ATOM     26  C   UNL     1      13.611   3.284   0.369  0.00  0.00    +0.001 A 
ATOM     28  C   UNL     1      12.991   3.618  -0.834  0.00  0.00    +0.004 A 
BRANCH  23   3
ATOM      3  O   UNL     1      13.967   7.118  -1.189  0.00  0.00    -0.494 OA
ATOM     31  C   UNL     1      14.247   7.211  -2.584  0.00  0.00    +0.277 C 
ENDBRANCH  23   3
ENDBRANCH  19  21
ENDBRANCH  10  16
BRANCH  11  17
ATOM     17  C   UNL     1      12.938   8.575   6.112  0.00  0.00    +0.252 C 
BRANCH  17   1
ATOM      1  O   UNL     1      12.758   7.200   6.392  0.00  0.00    -0.449 OA
BRANCH   1  22
ATOM      2  O   UNL     1      10.875   5.936   6.094  0.00  0.00    -0.226 OA
ATOM      8  N   UNL     1      12.187   6.640   4.287  0.00  0.00    -0.251 N 
ATOM     22  C   UNL     1      11.838   6.527   5.619  0.00  0.00    +0.405 C 
ATOM     36  H   UNL     1      13.028   7.175   4.087  0.00  0.00    +0.158 HD
BRANCH   8  27
ATOM     27  C   UNL     1      11.519   6.102   3.164  0.00  0.00    +0.037 A 
ATOM     29  C   UNL     1      11.171   6.931   2.096  0.00  0.00    +0.027 A 
ATOM     30  C   UNL     1      11.208   4.743   3.122  0.00  0.00    +0.027 A 
ATOM     32  C   UNL     1      10.512   6.400   0.988  0.00  0.00    +0.047 A 
ATOM     33  C   UNL     1      10.548   4.213   2.013  0.00  0.00    +0.047 A 
ATOM     34  C   UNL     1      10.201   5.041   0.946  0.00  0.00    +0.120 A 
BRANCH  34   4
ATOM      4  O   UNL     1       9.558   4.524  -0.137  0.00  0.00    -0.495 OA
ATOM     35  C   UNL     1       9.483   5.346  -1.301  0.00  0.00    +0.277 C 
ENDBRANCH  34   4
ENDBRANCH   8  27
ENDBRANCH   1  22
ENDBRANCH  17   1
ENDBRANCH  11  17
TORSDOF 8
ENDMDL
