REMARK  Name = 51136597
REMARK  10 active torsions:
REMARK  status: ('A' for Active; 'I' for Inactive)
REMARK    1  A    between atoms: O_2  and  C_18
REMARK    2  A    between atoms: O_4  and  C_25
REMARK    3  A    between atoms: O_4  and  C_32
REMARK    4  A    between atoms: O_5  and  C_26
REMARK    5  A    between atoms: O_5  and  C_33
REMARK    6  A    between atoms: C_8  and  C_13
REMARK    7  A    between atoms: C_9  and  C_14
REMARK    8  A    between atoms: C_13  and  C_15
REMARK    9  A    between atoms: C_14  and  C_18
REMARK   10  A    between atoms: C_16  and  C_22
REMARK                            x       y       z     vdW  Elec       q    Type
REMARK                         _______ _______ _______ _____ _____    ______ ____
ROOT
ATOM      1  O   UNL     1       1.116   3.419   1.788  0.00  0.00    -0.270 OA
ATOM      6  N   UNL     1       2.094   2.019   0.188  0.00  0.00    -0.297 N 
ATOM      8  C   UNL     1       2.405  -0.248  -0.782  0.00  0.00    +0.016 C 
ATOM      9  C   UNL     1       3.798  -0.304  -0.104  0.00  0.00    +0.006 C 
ATOM     10  C   UNL     1       3.854   0.587   1.149  0.00  0.00    +0.023 C 
ATOM     11  C   UNL     1       2.006   1.217  -1.040  0.00  0.00    +0.112 C 
ATOM     12  C   UNL     1       3.405   2.012   0.834  0.00  0.00    +0.108 C 
ATOM     16  C   UNL     1       1.049   2.751   0.757  0.00  0.00    +0.247 C 
ENDROOT
BRANCH  16  22
ATOM     22  C   UNL     1      -0.253   2.735   0.081  0.00  0.00    +0.037 A 
ATOM     27  C   UNL     1      -0.365   3.201  -1.229  0.00  0.00    +0.013 A 
ATOM     28  C   UNL     1      -1.379   2.250   0.747  0.00  0.00    +0.013 A 
ATOM     29  C   UNL     1      -1.603   3.184  -1.872  0.00  0.00    +0.001 A 
ATOM     30  C   UNL     1      -2.616   2.233   0.104  0.00  0.00    +0.001 A 
ATOM     31  C   UNL     1      -2.728   2.700  -1.206  0.00  0.00    +0.000 A 
ENDBRANCH  16  22
BRANCH   8  13
ATOM     13  C   UNL     1       1.302  -0.970   0.001  0.00  0.00    +0.061 C 
BRANCH  13  15
ATOM      7  N   UNL     1       0.425  -1.514  -2.167  0.00  0.00    -0.287 NA
ATOM     15  C   UNL     1       0.155  -1.306  -0.921  0.00  0.00    +0.044 C 
ATOM     17  C   UNL     1      -1.218  -1.376  -0.359  0.00  0.00    +0.003 A 
ATOM     19  C   UNL     1      -2.278  -1.302  -1.272  0.00  0.00    -0.033 A 
ATOM     20  C   UNL     1      -1.964  -1.146  -2.730  0.00  0.00    +0.059 C 
ATOM     21  C   UNL     1      -0.680  -1.900  -3.051  0.00  0.00    +0.146 C 
ATOM     23  C   UNL     1      -1.469  -1.494   1.010  0.00  0.00    +0.059 A 
ATOM     24  C   UNL     1      -3.595  -1.321  -0.803  0.00  0.00    +0.053 A 
ATOM     25  C   UNL     1      -2.787  -1.528   1.466  0.00  0.00    +0.162 A 
ATOM     26  C   UNL     1      -3.847  -1.439   0.564  0.00  0.00    +0.162 A 
BRANCH  25   4
ATOM      4  O   UNL     1      -3.028  -1.646   2.803  0.00  0.00    -0.491 OA
ATOM     32  C   UNL     1      -3.133  -0.436   3.550  0.00  0.00    +0.277 C 
ENDBRANCH  25   4
BRANCH  26   5
ATOM      5  O   UNL     1      -5.136  -1.464   1.006  0.00  0.00    -0.491 OA
ATOM     33  C   UNL     1      -6.161  -1.368   0.018  0.00  0.00    +0.277 C 
ENDBRANCH  26   5
ENDBRANCH  13  15
ENDBRANCH   8  13
BRANCH   9  14
ATOM     14  C   UNL     1       4.248  -1.727   0.227  0.00  0.00    +0.124 C 
BRANCH  14  18
ATOM      3  O   UNL     1       6.542  -0.903   0.236  0.00  0.00    -0.251 OA
ATOM     18  C   UNL     1       5.743  -1.819   0.360  0.00  0.00    +0.305 C 
BRANCH  18   2
ATOM      2  O   UNL     1       6.099  -3.097   0.648  0.00  0.00    -0.481 OA
ATOM     34  H   UNL     1       7.071  -3.193   0.743  0.00  0.00    +0.295 HD
ENDBRANCH  18   2
ENDBRANCH  14  18
ENDBRANCH   9  14
TORSDOF 8
