REMARK  Name = 11885881
REMARK  3 active torsions:
REMARK  status: ('A' for Active; 'I' for Inactive)
REMARK    1  A    between atoms: N_8  and  C_19
REMARK    2  A    between atoms: C_18  and  C_21
REMARK    3  A    between atoms: C_24  and  C_28
REMARK                            x       y       z     vdW  Elec       q    Type
REMARK                         _______ _______ _______ _____ _____    ______ ____
ROOT
ATOM      3  O   UNL     1       1.194   2.477   1.321  0.00  0.00    -0.266 OA
ATOM      4  O   UNL     1      -3.044  -0.208   2.588  0.00  0.00    -0.270 OA
ATOM      6  N   UNL     1      -3.404   0.733   0.476  0.00  0.00    -0.297 N 
ATOM      7  N   UNL     1      -0.624   2.144  -0.108  0.00  0.00    -0.310 N 
ATOM      9  C   UNL     1      -2.931   3.171   0.323  0.00  0.00    +0.027 C 
ATOM     10  C   UNL     1      -2.580   1.732  -1.643  0.00  0.00    +0.054 C 
ATOM     11  C   UNL     1      -3.090   3.100  -1.192  0.00  0.00    +0.018 C 
ATOM     12  C   UNL     1      -3.745   2.054   1.002  0.00  0.00    +0.113 C 
ATOM     13  C   UNL     1      -1.439   3.090   0.668  0.00  0.00    +0.130 C 
ATOM     14  C   UNL     1      -3.430   0.623  -0.992  0.00  0.00    +0.117 C 
ATOM     15  C   UNL     1      -1.121   1.543  -1.269  0.00  0.00    +0.027 A 
ATOM     16  C   UNL     1      -0.323   0.773  -2.028  0.00  0.00    +0.024 A 
ATOM     17  C   UNL     1       0.706   1.956   0.317  0.00  0.00    +0.273 A 
ATOM     18  C   UNL     1      -3.068  -0.294   1.361  0.00  0.00    +0.247 C 
ATOM     19  C   UNL     1       1.555   1.069  -0.540  0.00  0.00    +0.099 A 
ATOM     20  C   UNL     1       1.042   0.533  -1.652  0.00  0.00    +0.030 A 
ENDROOT
BRANCH  18  21
ATOM      2  F   UNL     1      -1.620  -5.244  -0.797  0.00  0.00    -0.205 F 
ATOM     21  C   UNL     1      -2.688  -1.592   0.795  0.00  0.00    +0.037 A 
ATOM     22  C   UNL     1      -1.353  -1.854   0.496  0.00  0.00    +0.016 A 
ATOM     23  C   UNL     1      -3.664  -2.557   0.559  0.00  0.00    +0.016 A 
ATOM     25  C   UNL     1      -0.992  -3.089  -0.042  0.00  0.00    +0.039 A 
ATOM     26  C   UNL     1      -3.303  -3.792   0.021  0.00  0.00    +0.039 A 
ATOM     27  C   UNL     1      -1.967  -4.058  -0.280  0.00  0.00    +0.123 A 
ENDBRANCH  18  21
BRANCH  19   8
ATOM      5  O   UNL     1       3.107  -1.258  -1.107  0.00  0.00    -0.269 OA
ATOM      8  N   UNL     1       2.844   0.847  -0.152  0.00  0.00    -0.277 N 
ATOM     24  C   UNL     1       3.546  -0.310  -0.461  0.00  0.00    +0.255 C 
ATOM     32  H   UNL     1       3.231   1.476   0.546  0.00  0.00    +0.155 HD
BRANCH  24  28
ATOM      1  S   UNL     1       5.517   0.970   0.891  0.00  0.00    -0.092 S 
ATOM     28  C   UNL     1       4.948  -0.362   0.029  0.00  0.00    +0.074 A 
ATOM     29  C   UNL     1       5.824  -1.364  -0.140  0.00  0.00    +0.021 A 
ATOM     30  C   UNL     1       7.066  -1.038   0.477  0.00  0.00    +0.008 A 
ATOM     31  C   UNL     1       7.037   0.203   1.075  0.00  0.00    +0.046 A 
ENDBRANCH  24  28
ENDBRANCH  19   8
TORSDOF 3
