MODEL 1
REMARK VINA RESULT:      -6.9      0.000      0.000
REMARK  Name = 11913369
REMARK  8 active torsions:
REMARK  status: ('A' for Active; 'I' for Inactive)
REMARK    1  A    between atoms: O_5  and  C_26
REMARK    2  A    between atoms: N_7  and  C_13
REMARK    3  A    between atoms: N_8  and  C_14
REMARK    4  A    between atoms: C_17  and  C_19
REMARK    5  A    between atoms: C_19  and  C_20
REMARK    6  A    between atoms: C_20  and  C_21
REMARK    7  A    between atoms: C_21  and  C_26
REMARK    8  A    between atoms: C_22  and  C_25
REMARK                            x       y       z     vdW  Elec       q    Type
REMARK                         _______ _______ _______ _____ _____    ______ ____
ROOT
ATOM      2  O   UNL     1      -5.860 -11.853  10.092  0.00  0.00    -0.370 OA
ATOM      3  O   UNL     1      -4.433  -9.077  10.100  0.00  0.00    -0.370 OA
ATOM     11  C   UNL     1      -4.147 -10.329   9.455  0.00  0.00    +0.171 C 
ATOM     12  C   UNL     1      -4.526 -11.433  10.423  0.00  0.00    +0.171 C 
ATOM     13  C   UNL     1      -5.074 -10.539   8.278  0.00  0.00    +0.130 C 
ATOM     14  C   UNL     1      -4.509 -10.760  11.775  0.00  0.00    +0.130 C 
ATOM     15  C   UNL     1      -6.309 -11.125   8.938  0.00  0.00    +0.185 C 
ATOM     16  C   UNL     1      -4.885  -9.328  11.439  0.00  0.00    +0.185 C 
ENDROOT
BRANCH  14   8
ATOM      8  N   UNL     1      -3.177 -10.809  12.336  0.00  0.00    -0.306 N 
ATOM      9  N   UNL     1      -3.982 -10.617  14.506  0.00  0.00    -0.214 NA
ATOM     10  N   UNL     1      -1.621 -10.800  14.061  0.00  0.00    -0.223 NA
ATOM     18  C   UNL     1      -2.915 -10.738  13.693  0.00  0.00    +0.216 A 
ATOM     22  C   UNL     1      -3.690 -10.551  15.822  0.00  0.00    +0.076 A 
ATOM     23  C   UNL     1      -1.402 -10.728  15.389  0.00  0.00    +0.116 A 
ATOM     24  C   UNL     1      -2.408 -10.603  16.327  0.00  0.00    +0.048 A 
ATOM     33  H   UNL     1      -2.382 -10.953  11.724  0.00  0.00    +0.149 HD
BRANCH  22  25
ATOM      1  F   UNL     1      -8.109  -8.844  16.746  0.00  0.00    -0.205 F 
ATOM     25  C   UNL     1      -4.832 -10.421  16.696  0.00  0.00    +0.003 A 
ATOM     27  C   UNL     1      -5.941  -9.680  16.290  0.00  0.00    +0.048 A 
ATOM     28  C   UNL     1      -4.825 -11.038  17.948  0.00  0.00    +0.010 A 
ATOM     29  C   UNL     1      -7.044  -9.555  17.136  0.00  0.00    +0.124 A 
ATOM     30  C   UNL     1      -5.927 -10.913  18.793  0.00  0.00    +0.003 A 
ATOM     31  C   UNL     1      -7.036 -10.172  18.387  0.00  0.00    +0.038 A 
ENDBRANCH  22  25
ENDBRANCH  14   8
BRANCH  13   7
ATOM      4  O   UNL     1      -5.636 -10.646   5.465  0.00  0.00    -0.276 OA
ATOM      7  N   UNL     1      -4.505 -11.458   7.322  0.00  0.00    -0.308 N 
ATOM     17  C   UNL     1      -4.841 -11.431   5.976  0.00  0.00    +0.213 C 
ATOM     32  H   UNL     1      -3.880 -12.183   7.661  0.00  0.00    +0.149 HD
BRANCH  17  19
ATOM     19  C   UNL     1      -4.125 -12.521   5.196  0.00  0.00    +0.096 C 
BRANCH  19  20
ATOM     20  C   UNL     1      -4.318 -12.422   3.684  0.00  0.00    +0.020 C 
BRANCH  20  21
ATOM     21  C   UNL     1      -2.996 -12.521   2.919  0.00  0.00    +0.121 C 
BRANCH  21  26
ATOM      6  O   UNL     1      -3.638 -14.375   1.478  0.00  0.00    -0.251 OA
ATOM     26  C   UNL     1      -3.157 -13.258   1.610  0.00  0.00    +0.305 C 
BRANCH  26   5
ATOM      5  O   UNL     1      -2.697 -12.520   0.565  0.00  0.00    -0.481 OA
ATOM     34  H   UNL     1      -2.777 -11.558   0.735  0.00  0.00    +0.295 HD
ENDBRANCH  26   5
ENDBRANCH  21  26
ENDBRANCH  20  21
ENDBRANCH  19  20
ENDBRANCH  17  19
ENDBRANCH  13   7
TORSDOF 8
ENDMDL
MODEL 2
REMARK VINA RESULT:      -6.9      5.425      9.337
REMARK  Name = 11913369
REMARK  8 active torsions:
REMARK  status: ('A' for Active; 'I' for Inactive)
REMARK    1  A    between atoms: O_5  and  C_26
REMARK    2  A    between atoms: N_7  and  C_13
REMARK    3  A    between atoms: N_8  and  C_14
REMARK    4  A    between atoms: C_17  and  C_19
REMARK    5  A    between atoms: C_19  and  C_20
REMARK    6  A    between atoms: C_20  and  C_21
REMARK    7  A    between atoms: C_21  and  C_26
REMARK    8  A    between atoms: C_22  and  C_25
REMARK                            x       y       z     vdW  Elec       q    Type
REMARK                         _______ _______ _______ _____ _____    ______ ____
ROOT
ATOM      2  O   UNL     1      -7.244 -12.006  15.765  0.00  0.00    -0.370 OA
ATOM      3  O   UNL     1      -6.162 -12.444  18.660  0.00  0.00    -0.370 OA
ATOM     11  C   UNL     1      -6.618 -11.284  17.943  0.00  0.00    +0.171 C 
ATOM     12  C   UNL     1      -6.156 -11.430  16.507  0.00  0.00    +0.171 C 
ATOM     13  C   UNL     1      -8.127 -11.285  17.846  0.00  0.00    +0.130 C 
ATOM     14  C   UNL     1      -5.003 -12.402  16.586  0.00  0.00    +0.130 C 
ATOM     15  C   UNL     1      -8.374 -12.167  16.635  0.00  0.00    +0.185 C 
ATOM     16  C   UNL     1      -5.374 -13.261  17.782  0.00  0.00    +0.185 C 
ENDROOT
BRANCH  14   8
ATOM      8  N   UNL     1      -3.771 -11.689  16.846  0.00  0.00    -0.306 N 
ATOM      9  N   UNL     1      -3.400 -11.318  14.584  0.00  0.00    -0.214 NA
ATOM     10  N   UNL     1      -1.859 -10.512  16.252  0.00  0.00    -0.223 NA
ATOM     18  C   UNL     1      -2.975 -11.150  15.851  0.00  0.00    +0.216 A 
ATOM     22  C   UNL     1      -2.600 -10.780  13.639  0.00  0.00    +0.076 A 
ATOM     23  C   UNL     1      -1.107  -9.999  15.257  0.00  0.00    +0.116 A 
ATOM     24  C   UNL     1      -1.432 -10.103  13.919  0.00  0.00    +0.048 A 
ATOM     33  H   UNL     1      -3.485 -11.520  17.804  0.00  0.00    +0.149 HD
BRANCH  22  25
ATOM      1  F   UNL     1      -3.586  -8.992   9.266  0.00  0.00    -0.205 F 
ATOM     25  C   UNL     1      -3.052 -10.958  12.280  0.00  0.00    +0.003 A 
ATOM     27  C   UNL     1      -3.101  -9.867  11.413  0.00  0.00    +0.048 A 
ATOM     28  C   UNL     1      -3.441 -12.222  11.834  0.00  0.00    +0.010 A 
ATOM     29  C   UNL     1      -3.538 -10.039  10.099  0.00  0.00    +0.124 A 
ATOM     30  C   UNL     1      -3.879 -12.394  10.521  0.00  0.00    +0.003 A 
ATOM     31  C   UNL     1      -3.927 -11.303   9.654  0.00  0.00    +0.038 A 
ENDBRANCH  22  25
ENDBRANCH  14   8
BRANCH  13   7
ATOM      4  O   UNL     1     -10.814 -10.389  18.311  0.00  0.00    -0.276 OA
ATOM      7  N   UNL     1      -8.638  -9.952  17.634  0.00  0.00    -0.308 N 
ATOM     17  C   UNL     1      -9.960  -9.614  17.891  0.00  0.00    +0.213 C 
ATOM     32  H   UNL     1      -8.019  -9.254  17.232  0.00  0.00    +0.149 HD
BRANCH  17  19
ATOM     19  C   UNL     1     -10.243  -8.159  17.556  0.00  0.00    +0.096 C 
BRANCH  19  20
ATOM     20  C   UNL     1      -9.788  -7.751  16.156  0.00  0.00    +0.020 C 
BRANCH  20  21
ATOM     21  C   UNL     1     -10.461  -8.581  15.060  0.00  0.00    +0.121 C 
BRANCH  21  26
ATOM      6  O   UNL     1      -9.694  -9.849  13.127  0.00  0.00    -0.251 OA
ATOM     26  C   UNL     1      -9.449  -9.285  14.185  0.00  0.00    +0.305 C 
BRANCH  26   5
ATOM      5  O   UNL     1      -8.200  -9.218  14.718  0.00  0.00    -0.481 OA
ATOM     34  H   UNL     1      -7.563  -9.776  14.224  0.00  0.00    +0.295 HD
ENDBRANCH  26   5
ENDBRANCH  21  26
ENDBRANCH  20  21
ENDBRANCH  19  20
ENDBRANCH  17  19
ENDBRANCH  13   7
TORSDOF 8
ENDMDL
MODEL 3
REMARK VINA RESULT:      -6.8     28.097     32.176
REMARK  Name = 11913369
REMARK  8 active torsions:
REMARK  status: ('A' for Active; 'I' for Inactive)
REMARK    1  A    between atoms: O_5  and  C_26
REMARK    2  A    between atoms: N_7  and  C_13
REMARK    3  A    between atoms: N_8  and  C_14
REMARK    4  A    between atoms: C_17  and  C_19
REMARK    5  A    between atoms: C_19  and  C_20
REMARK    6  A    between atoms: C_20  and  C_21
REMARK    7  A    between atoms: C_21  and  C_26
REMARK    8  A    between atoms: C_22  and  C_25
REMARK                            x       y       z     vdW  Elec       q    Type
REMARK                         _______ _______ _______ _____ _____    ______ ____
ROOT
ATOM      2  O   UNL     1      13.847  12.200  23.277  0.00  0.00    -0.370 OA
ATOM      3  O   UNL     1      11.038  12.715  24.538  0.00  0.00    -0.370 OA
ATOM     11  C   UNL     1      12.129  11.844  24.884  0.00  0.00    +0.171 C 
ATOM     12  C   UNL     1      12.735  11.343  23.588  0.00  0.00    +0.171 C 
ATOM     13  C   UNL     1      13.245  12.632  25.532  0.00  0.00    +0.130 C 
ATOM     14  C   UNL     1      11.634  11.524  22.570  0.00  0.00    +0.130 C 
ATOM     15  C   UNL     1      14.009  13.161  24.332  0.00  0.00    +0.185 C 
ATOM     16  C   UNL     1      10.873  12.720  23.112  0.00  0.00    +0.185 C 
ENDROOT
BRANCH  14   8
ATOM      8  N   UNL     1      10.781  10.356  22.551  0.00  0.00    -0.306 N 
ATOM      9  N   UNL     1      12.509   8.990  21.817  0.00  0.00    -0.214 NA
ATOM     10  N   UNL     1      10.302   8.108  22.214  0.00  0.00    -0.223 NA
ATOM     18  C   UNL     1      11.216   9.097  22.177  0.00  0.00    +0.216 A 
ATOM     22  C   UNL     1      12.900   7.749  21.458  0.00  0.00    +0.076 A 
ATOM     23  C   UNL     1      10.760   6.895  21.844  0.00  0.00    +0.116 A 
ATOM     24  C   UNL     1      12.062   6.653  21.453  0.00  0.00    +0.048 A 
ATOM     33  H   UNL     1       9.823  10.432  22.874  0.00  0.00    +0.149 HD
BRANCH  22  25
ATOM      1  F   UNL     1      16.337   5.850  18.653  0.00  0.00    -0.205 F 
ATOM     25  C   UNL     1      14.285   7.630  21.072  0.00  0.00    +0.003 A 
ATOM     27  C   UNL     1      14.648   6.780  20.028  0.00  0.00    +0.048 A 
ATOM     28  C   UNL     1      15.262   8.367  21.744  0.00  0.00    +0.010 A 
ATOM     29  C   UNL     1      15.988   6.666  19.655  0.00  0.00    +0.124 A 
ATOM     30  C   UNL     1      16.601   8.252  21.372  0.00  0.00    +0.003 A 
ATOM     31  C   UNL     1      16.964   7.402  20.328  0.00  0.00    +0.038 A 
ENDBRANCH  22  25
ENDBRANCH  14   8
BRANCH  13   7
ATOM      4  O   UNL     1      14.871  13.452  27.751  0.00  0.00    -0.276 OA
ATOM      7  N   UNL     1      14.078  11.782  26.348  0.00  0.00    -0.308 N 
ATOM     17  C   UNL     1      14.831  12.274  27.405  0.00  0.00    +0.213 C 
ATOM     32  H   UNL     1      14.156  10.799  26.102  0.00  0.00    +0.149 HD
BRANCH  17  19
ATOM     19  C   UNL     1      15.639  11.178  28.079  0.00  0.00    +0.096 C 
BRANCH  19  20
ATOM     20  C   UNL     1      15.448  11.116  29.593  0.00  0.00    +0.020 C 
BRANCH  20  21
ATOM     21  C   UNL     1      16.110   9.884  30.215  0.00  0.00    +0.121 C 
BRANCH  21  26
ATOM      6  O   UNL     1      13.947   8.768  30.276  0.00  0.00    -0.251 OA
ATOM     26  C   UNL     1      15.090   8.879  30.698  0.00  0.00    +0.305 C 
BRANCH  26   5
ATOM      5  O   UNL     1      15.599   8.088  31.679  0.00  0.00    -0.481 OA
ATOM     34  H   UNL     1      14.989   8.017  32.444  0.00  0.00    +0.295 HD
ENDBRANCH  26   5
ENDBRANCH  21  26
ENDBRANCH  20  21
ENDBRANCH  19  20
ENDBRANCH  17  19
ENDBRANCH  13   7
TORSDOF 8
ENDMDL
MODEL 4
REMARK VINA RESULT:      -6.8      5.863      9.976
REMARK  Name = 11913369
REMARK  8 active torsions:
REMARK  status: ('A' for Active; 'I' for Inactive)
REMARK    1  A    between atoms: O_5  and  C_26
REMARK    2  A    between atoms: N_7  and  C_13
REMARK    3  A    between atoms: N_8  and  C_14
REMARK    4  A    between atoms: C_17  and  C_19
REMARK    5  A    between atoms: C_19  and  C_20
REMARK    6  A    between atoms: C_20  and  C_21
REMARK    7  A    between atoms: C_21  and  C_26
REMARK    8  A    between atoms: C_22  and  C_25
REMARK                            x       y       z     vdW  Elec       q    Type
REMARK                         _______ _______ _______ _____ _____    ______ ____
ROOT
ATOM      2  O   UNL     1      -7.167 -11.846  16.105  0.00  0.00    -0.370 OA
ATOM      3  O   UNL     1      -6.016 -12.155  18.990  0.00  0.00    -0.370 OA
ATOM     11  C   UNL     1      -6.423 -11.019  18.208  0.00  0.00    +0.171 C 
ATOM     12  C   UNL     1      -6.020 -11.292  16.773  0.00  0.00    +0.171 C 
ATOM     13  C   UNL     1      -7.931 -10.928  18.157  0.00  0.00    +0.130 C 
ATOM     14  C   UNL     1      -4.928 -12.330  16.885  0.00  0.00    +0.130 C 
ATOM     15  C   UNL     1      -8.275 -11.873  17.019  0.00  0.00    +0.185 C 
ATOM     16  C   UNL     1      -5.311 -13.079  18.149  0.00  0.00    +0.185 C 
ENDROOT
BRANCH  14   8
ATOM      8  N   UNL     1      -3.646 -11.683  17.057  0.00  0.00    -0.306 N 
ATOM      9  N   UNL     1      -3.483 -11.197  14.793  0.00  0.00    -0.214 NA
ATOM     10  N   UNL     1      -1.751 -10.550  16.338  0.00  0.00    -0.223 NA
ATOM     18  C   UNL     1      -2.928 -11.119  16.018  0.00  0.00    +0.216 A 
ATOM     22  C   UNL     1      -2.756 -10.637  13.802  0.00  0.00    +0.076 A 
ATOM     23  C   UNL     1      -1.078 -10.011  15.301  0.00  0.00    +0.116 A 
ATOM     24  C   UNL     1      -1.537 -10.024  13.999  0.00  0.00    +0.048 A 
ATOM     33  H   UNL     1      -3.259 -11.581  17.989  0.00  0.00    +0.149 HD
BRANCH  22  25
ATOM      1  F   UNL     1      -6.050 -12.449  10.776  0.00  0.00    -0.205 F 
ATOM     25  C   UNL     1      -3.348 -10.718  12.488  0.00  0.00    +0.003 A 
ATOM     27  C   UNL     1      -4.435 -11.561  12.263  0.00  0.00    +0.048 A 
ATOM     28  C   UNL     1      -2.831  -9.951  11.443  0.00  0.00    +0.010 A 
ATOM     29  C   UNL     1      -5.007 -11.639  10.993  0.00  0.00    +0.124 A 
ATOM     30  C   UNL     1      -3.402 -10.029  10.173  0.00  0.00    +0.003 A 
ATOM     31  C   UNL     1      -4.489 -10.872   9.948  0.00  0.00    +0.038 A 
ENDBRANCH  22  25
ENDBRANCH  14   8
BRANCH  13   7
ATOM      4  O   UNL     1     -10.641 -10.031  17.857  0.00  0.00    -0.276 OA
ATOM      7  N   UNL     1      -8.364  -9.583  17.867  0.00  0.00    -0.308 N 
ATOM     17  C   UNL     1      -9.705  -9.245  17.741  0.00  0.00    +0.213 C 
ATOM     32  H   UNL     1      -7.658  -8.873  17.697  0.00  0.00    +0.149 HD
BRANCH  17  19
ATOM     19  C   UNL     1      -9.884  -7.774  17.407  0.00  0.00    +0.096 C 
BRANCH  19  20
ATOM     20  C   UNL     1     -10.868  -7.519  16.266  0.00  0.00    +0.020 C 
BRANCH  20  21
ATOM     21  C   UNL     1     -11.322  -6.059  16.203  0.00  0.00    +0.121 C 
BRANCH  21  26
ATOM      6  O   UNL     1     -13.387  -6.231  14.925  0.00  0.00    -0.251 OA
ATOM     26  C   UNL     1     -12.245  -5.806  15.033  0.00  0.00    +0.305 C 
BRANCH  26   5
ATOM      5  O   UNL     1     -11.649  -5.030  14.090  0.00  0.00    -0.481 OA
ATOM     34  H   UNL     1     -12.119  -4.178  13.968  0.00  0.00    +0.295 HD
ENDBRANCH  26   5
ENDBRANCH  21  26
ENDBRANCH  20  21
ENDBRANCH  19  20
ENDBRANCH  17  19
ENDBRANCH  13   7
TORSDOF 8
ENDMDL
MODEL 5
REMARK VINA RESULT:      -6.8      2.088      2.316
REMARK  Name = 11913369
REMARK  8 active torsions:
REMARK  status: ('A' for Active; 'I' for Inactive)
REMARK    1  A    between atoms: O_5  and  C_26
REMARK    2  A    between atoms: N_7  and  C_13
REMARK    3  A    between atoms: N_8  and  C_14
REMARK    4  A    between atoms: C_17  and  C_19
REMARK    5  A    between atoms: C_19  and  C_20
REMARK    6  A    between atoms: C_20  and  C_21
REMARK    7  A    between atoms: C_21  and  C_26
REMARK    8  A    between atoms: C_22  and  C_25
REMARK                            x       y       z     vdW  Elec       q    Type
REMARK                         _______ _______ _______ _____ _____    ______ ____
ROOT
ATOM      2  O   UNL     1      -6.364 -11.618  10.421  0.00  0.00    -0.370 OA
ATOM      3  O   UNL     1      -5.112  -8.763  10.565  0.00  0.00    -0.370 OA
ATOM     11  C   UNL     1      -4.830  -9.923   9.764  0.00  0.00    +0.171 C 
ATOM     12  C   UNL     1      -5.027 -11.139  10.647  0.00  0.00    +0.171 C 
ATOM     13  C   UNL     1      -5.872 -10.081   8.681  0.00  0.00    +0.130 C 
ATOM     14  C   UNL     1      -4.894 -10.603  12.053  0.00  0.00    +0.130 C 
ATOM     15  C   UNL     1      -6.986 -10.815   9.406  0.00  0.00    +0.185 C 
ATOM     16  C   UNL     1      -5.390  -9.175  11.911  0.00  0.00    +0.185 C 
ENDROOT
BRANCH  14   8
ATOM      8  N   UNL     1      -3.505 -10.612  12.456  0.00  0.00    -0.306 N 
ATOM      9  N   UNL     1      -4.063 -10.621  14.710  0.00  0.00    -0.214 NA
ATOM     10  N   UNL     1      -1.763 -10.632  13.992  0.00  0.00    -0.223 NA
ATOM     18  C   UNL     1      -3.092 -10.622  13.777  0.00  0.00    +0.216 A 
ATOM     22  C   UNL     1      -3.625 -10.630  15.987  0.00  0.00    +0.076 A 
ATOM     23  C   UNL     1      -1.396 -10.641  15.290  0.00  0.00    +0.116 A 
ATOM     24  C   UNL     1      -2.292 -10.641  16.340  0.00  0.00    +0.048 A 
ATOM     33  H   UNL     1      -2.780 -10.666  11.749  0.00  0.00    +0.149 HD
BRANCH  22  25
ATOM      1  F   UNL     1      -7.955  -9.191  17.560  0.00  0.00    -0.205 F 
ATOM     25  C   UNL     1      -4.663 -10.630  16.990  0.00  0.00    +0.003 A 
ATOM     27  C   UNL     1      -5.831  -9.896  16.786  0.00  0.00    +0.048 A 
ATOM     28  C   UNL     1      -4.497 -11.365  18.165  0.00  0.00    +0.010 A 
ATOM     29  C   UNL     1      -6.834  -9.896  17.756  0.00  0.00    +0.124 A 
ATOM     30  C   UNL     1      -5.500 -11.365  19.134  0.00  0.00    +0.003 A 
ATOM     31  C   UNL     1      -6.667 -10.631  18.930  0.00  0.00    +0.038 A 
ENDBRANCH  22  25
ENDBRANCH  14   8
BRANCH  13   7
ATOM      4  O   UNL     1      -6.346  -9.604   5.890  0.00  0.00    -0.276 OA
ATOM      7  N   UNL     1      -5.365 -10.860   7.577  0.00  0.00    -0.308 N 
ATOM     17  C   UNL     1      -5.650 -10.548   6.255  0.00  0.00    +0.213 C 
ATOM     32  H   UNL     1      -4.826 -11.696   7.782  0.00  0.00    +0.149 HD
BRANCH  17  19
ATOM     19  C   UNL     1      -5.020 -11.541   5.295  0.00  0.00    +0.096 C 
BRANCH  19  20
ATOM     20  C   UNL     1      -3.782 -12.238   5.857  0.00  0.00    +0.020 C 
BRANCH  20  21
ATOM     21  C   UNL     1      -3.944 -13.759   5.914  0.00  0.00    +0.121 C 
BRANCH  21  26
ATOM      6  O   UNL     1      -4.596 -15.338   7.649  0.00  0.00    -0.251 OA
ATOM     26  C   UNL     1      -4.129 -14.253   7.331  0.00  0.00    +0.305 C 
BRANCH  26   5
ATOM      5  O   UNL     1      -3.704 -13.333   8.236  0.00  0.00    -0.481 OA
ATOM     34  H   UNL     1      -3.877 -12.416   7.934  0.00  0.00    +0.295 HD
ENDBRANCH  26   5
ENDBRANCH  21  26
ENDBRANCH  20  21
ENDBRANCH  19  20
ENDBRANCH  17  19
ENDBRANCH  13   7
TORSDOF 8
ENDMDL
MODEL 6
REMARK VINA RESULT:      -6.7     24.229     28.927
REMARK  Name = 11913369
REMARK  8 active torsions:
REMARK  status: ('A' for Active; 'I' for Inactive)
REMARK    1  A    between atoms: O_5  and  C_26
REMARK    2  A    between atoms: N_7  and  C_13
REMARK    3  A    between atoms: N_8  and  C_14
REMARK    4  A    between atoms: C_17  and  C_19
REMARK    5  A    between atoms: C_19  and  C_20
REMARK    6  A    between atoms: C_20  and  C_21
REMARK    7  A    between atoms: C_21  and  C_26
REMARK    8  A    between atoms: C_22  and  C_25
REMARK                            x       y       z     vdW  Elec       q    Type
REMARK                         _______ _______ _______ _____ _____    ______ ____
ROOT
ATOM      2  O   UNL     1     -13.217   3.364  31.775  0.00  0.00    -0.370 OA
ATOM      3  O   UNL     1     -15.767   3.477  33.572  0.00  0.00    -0.370 OA
ATOM     11  C   UNL     1     -15.560   3.540  32.150  0.00  0.00    +0.171 C 
ATOM     12  C   UNL     1     -14.282   4.320  31.915  0.00  0.00    +0.171 C 
ATOM     13  C   UNL     1     -15.257   2.164  31.601  0.00  0.00    +0.130 C 
ATOM     14  C   UNL     1     -14.100   5.125  33.180  0.00  0.00    +0.130 C 
ATOM     15  C   UNL     1     -13.764   2.038  31.845  0.00  0.00    +0.185 C 
ATOM     16  C   UNL     1     -14.747   4.240  34.231  0.00  0.00    +0.185 C 
ENDROOT
BRANCH  14   8
ATOM      8  N   UNL     1     -14.813   6.379  33.075  0.00  0.00    -0.306 N 
ATOM      9  N   UNL     1     -13.281   7.470  34.438  0.00  0.00    -0.214 NA
ATOM     10  N   UNL     1     -15.174   8.633  33.504  0.00  0.00    -0.223 NA
ATOM     18  C   UNL     1     -14.406   7.545  33.700  0.00  0.00    +0.216 A 
ATOM     22  C   UNL     1     -12.914   8.624  35.033  0.00  0.00    +0.076 A 
ATOM     23  C   UNL     1     -14.748   9.750  34.127  0.00  0.00    +0.116 A 
ATOM     24  C   UNL     1     -13.614   9.806  34.911  0.00  0.00    +0.048 A 
ATOM     33  H   UNL     1     -15.628   6.441  32.476  0.00  0.00    +0.149 HD
BRANCH  22  25
ATOM      1  F   UNL     1     -10.309   6.580  38.544  0.00  0.00    -0.205 F 
ATOM     25  C   UNL     1     -11.709   8.548  35.824  0.00  0.00    +0.003 A 
ATOM     27  C   UNL     1     -11.589   7.581  36.821  0.00  0.00    +0.048 A 
ATOM     28  C   UNL     1     -10.664   9.443  35.590  0.00  0.00    +0.010 A 
ATOM     29  C   UNL     1     -10.424   7.508  37.586  0.00  0.00    +0.124 A 
ATOM     30  C   UNL     1      -9.500   9.371  36.355  0.00  0.00    +0.003 A 
ATOM     31  C   UNL     1      -9.380   8.404  37.352  0.00  0.00    +0.038 A 
ENDBRANCH  22  25
ENDBRANCH  14   8
BRANCH  13   7
ATOM      4  O   UNL     1     -16.042  -0.188  30.155  0.00  0.00    -0.276 OA
ATOM      7  N   UNL     1     -15.567   2.083  30.195  0.00  0.00    -0.308 N 
ATOM     17  C   UNL     1     -15.939   0.894  29.583  0.00  0.00    +0.213 C 
ATOM     32  H   UNL     1     -15.453   2.916  29.625  0.00  0.00    +0.149 HD
BRANCH  17  19
ATOM     19  C   UNL     1     -16.179   1.078  28.094  0.00  0.00    +0.096 C 
BRANCH  19  20
ATOM     20  C   UNL     1     -16.842   2.407  27.739  0.00  0.00    +0.020 C 
BRANCH  20  21
ATOM     21  C   UNL     1     -16.102   3.149  26.623  0.00  0.00    +0.121 C 
BRANCH  21  26
ATOM      6  O   UNL     1     -17.388   1.907  24.969  0.00  0.00    -0.251 OA
ATOM     26  C   UNL     1     -16.392   2.554  25.264  0.00  0.00    +0.305 C 
BRANCH  26   5
ATOM      5  O   UNL     1     -15.397   2.828  24.380  0.00  0.00    -0.481 OA
ATOM     34  H   UNL     1     -15.716   2.808  23.453  0.00  0.00    +0.295 HD
ENDBRANCH  26   5
ENDBRANCH  21  26
ENDBRANCH  20  21
ENDBRANCH  19  20
ENDBRANCH  17  19
ENDBRANCH  13   7
TORSDOF 8
ENDMDL
MODEL 7
REMARK VINA RESULT:      -6.7     22.604     25.473
REMARK  Name = 11913369
REMARK  8 active torsions:
REMARK  status: ('A' for Active; 'I' for Inactive)
REMARK    1  A    between atoms: O_5  and  C_26
REMARK    2  A    between atoms: N_7  and  C_13
REMARK    3  A    between atoms: N_8  and  C_14
REMARK    4  A    between atoms: C_17  and  C_19
REMARK    5  A    between atoms: C_19  and  C_20
REMARK    6  A    between atoms: C_20  and  C_21
REMARK    7  A    between atoms: C_21  and  C_26
REMARK    8  A    between atoms: C_22  and  C_25
REMARK                            x       y       z     vdW  Elec       q    Type
REMARK                         _______ _______ _______ _____ _____    ______ ____
ROOT
ATOM      2  O   UNL     1     -16.904   5.189  25.199  0.00  0.00    -0.370 OA
ATOM      3  O   UNL     1     -16.351   2.459  23.792  0.00  0.00    -0.370 OA
ATOM     11  C   UNL     1     -15.727   3.145  24.891  0.00  0.00    +0.171 C 
ATOM     12  C   UNL     1     -15.744   4.626  24.565  0.00  0.00    +0.171 C 
ATOM     13  C   UNL     1     -16.580   3.032  26.134  0.00  0.00    +0.130 C 
ATOM     14  C   UNL     1     -15.893   4.673  23.063  0.00  0.00    +0.130 C 
ATOM     15  C   UNL     1     -17.573   4.165  25.951  0.00  0.00    +0.185 C 
ATOM     16  C   UNL     1     -16.678   3.408  22.767  0.00  0.00    +0.185 C 
ENDROOT
BRANCH  14   8
ATOM      8  N   UNL     1     -14.591   4.612  22.434  0.00  0.00    -0.306 N 
ATOM      9  N   UNL     1     -14.497   6.919  22.191  0.00  0.00    -0.214 NA
ATOM     10  N   UNL     1     -12.695   5.508  21.437  0.00  0.00    -0.223 NA
ATOM     18  C   UNL     1     -13.897   5.728  22.002  0.00  0.00    +0.216 A 
ATOM     22  C   UNL     1     -13.793   7.986  21.757  0.00  0.00    +0.076 A 
ATOM     23  C   UNL     1     -12.047   6.617  21.027  0.00  0.00    +0.116 A 
ATOM     24  C   UNL     1     -12.552   7.895  21.163  0.00  0.00    +0.048 A 
ATOM     33  H   UNL     1     -14.123   3.717  22.343  0.00  0.00    +0.149 HD
BRANCH  22  25
ATOM      1  F   UNL     1     -13.890  12.368  23.777  0.00  0.00    -0.205 F 
ATOM     25  C   UNL     1     -14.432   9.264  21.959  0.00  0.00    +0.003 A 
ATOM     27  C   UNL     1     -13.840  10.217  22.787  0.00  0.00    +0.048 A 
ATOM     28  C   UNL     1     -15.642   9.546  21.324  0.00  0.00    +0.010 A 
ATOM     29  C   UNL     1     -14.458  11.453  22.981  0.00  0.00    +0.124 A 
ATOM     30  C   UNL     1     -16.260  10.781  21.519  0.00  0.00    +0.003 A 
ATOM     31  C   UNL     1     -15.669  11.734  22.347  0.00  0.00    +0.038 A 
ENDBRANCH  22  25
ENDBRANCH  14   8
BRANCH  13   7
ATOM      4  O   UNL     1     -16.773   1.518  28.565  0.00  0.00    -0.276 OA
ATOM      7  N   UNL     1     -15.790   3.217  27.328  0.00  0.00    -0.308 N 
ATOM     17  C   UNL     1     -15.958   2.430  28.458  0.00  0.00    +0.213 C 
ATOM     32  H   UNL     1     -15.128   3.987  27.356  0.00  0.00    +0.149 HD
BRANCH  17  19
ATOM     19  C   UNL     1     -15.024   2.853  29.580  0.00  0.00    +0.096 C 
BRANCH  19  20
ATOM     20  C   UNL     1     -14.778   1.759  30.619  0.00  0.00    +0.020 C 
BRANCH  20  21
ATOM     21  C   UNL     1     -13.482   0.988  30.357  0.00  0.00    +0.121 C 
BRANCH  21  26
ATOM      6  O   UNL     1     -14.843  -0.943  29.765  0.00  0.00    -0.251 OA
ATOM     26  C   UNL     1     -13.751  -0.392  29.802  0.00  0.00    +0.305 C 
BRANCH  26   5
ATOM      5  O   UNL     1     -12.613  -0.969  29.333  0.00  0.00    -0.481 OA
ATOM     34  H   UNL     1     -12.352  -1.749  29.867  0.00  0.00    +0.295 HD
ENDBRANCH  26   5
ENDBRANCH  21  26
ENDBRANCH  20  21
ENDBRANCH  19  20
ENDBRANCH  17  19
ENDBRANCH  13   7
TORSDOF 8
ENDMDL
MODEL 8
REMARK VINA RESULT:      -6.7     27.131     30.086
REMARK  Name = 11913369
REMARK  8 active torsions:
REMARK  status: ('A' for Active; 'I' for Inactive)
REMARK    1  A    between atoms: O_5  and  C_26
REMARK    2  A    between atoms: N_7  and  C_13
REMARK    3  A    between atoms: N_8  and  C_14
REMARK    4  A    between atoms: C_17  and  C_19
REMARK    5  A    between atoms: C_19  and  C_20
REMARK    6  A    between atoms: C_20  and  C_21
REMARK    7  A    between atoms: C_21  and  C_26
REMARK    8  A    between atoms: C_22  and  C_25
REMARK                            x       y       z     vdW  Elec       q    Type
REMARK                         _______ _______ _______ _____ _____    ______ ____
ROOT
ATOM      2  O   UNL     1      14.722  12.640  20.695  0.00  0.00    -0.370 OA
ATOM      3  O   UNL     1      12.443  14.118  19.157  0.00  0.00    -0.370 OA
ATOM     11  C   UNL     1      12.526  12.835  19.801  0.00  0.00    +0.171 C 
ATOM     12  C   UNL     1      13.920  12.295  19.553  0.00  0.00    +0.171 C 
ATOM     13  C   UNL     1      12.455  12.994  21.303  0.00  0.00    +0.130 C 
ATOM     14  C   UNL     1      14.397  13.047  18.333  0.00  0.00    +0.130 C 
ATOM     15  C   UNL     1      13.896  13.303  21.666  0.00  0.00    +0.185 C 
ATOM     16  C   UNL     1      13.667  14.373  18.454  0.00  0.00    +0.185 C 
ENDROOT
BRANCH  14   8
ATOM      8  N   UNL     1      13.982  12.356  17.132  0.00  0.00    -0.306 N 
ATOM      9  N   UNL     1      14.399  10.275  18.073  0.00  0.00    -0.214 NA
ATOM     10  N   UNL     1      13.565  10.484  15.822  0.00  0.00    -0.223 NA
ATOM     18  C   UNL     1      13.982  10.978  17.003  0.00  0.00    +0.216 A 
ATOM     22  C   UNL     1      14.388   8.935  17.912  0.00  0.00    +0.076 A 
ATOM     23  C   UNL     1      13.579   9.139  15.731  0.00  0.00    +0.116 A 
ATOM     24  C   UNL     1      13.983   8.305  16.754  0.00  0.00    +0.048 A 
ATOM     33  H   UNL     1      13.619  12.889  16.349  0.00  0.00    +0.149 HD
BRANCH  22  25
ATOM      1  F   UNL     1      14.774   8.368  22.690  0.00  0.00    -0.205 F 
ATOM     25  C   UNL     1      14.833   8.177  19.057  0.00  0.00    +0.003 A 
ATOM     27  C   UNL     1      14.583   8.648  20.346  0.00  0.00    +0.048 A 
ATOM     28  C   UNL     1      15.514   6.973  18.875  0.00  0.00    +0.010 A 
ATOM     29  C   UNL     1      15.014   7.915  21.452  0.00  0.00    +0.124 A 
ATOM     30  C   UNL     1      15.945   6.240  19.980  0.00  0.00    +0.003 A 
ATOM     31  C   UNL     1      15.695   6.711  21.269  0.00  0.00    +0.038 A 
ENDBRANCH  22  25
ENDBRANCH  14   8
BRANCH  13   7
ATOM      4  O   UNL     1      10.608  12.786  23.491  0.00  0.00    -0.276 OA
ATOM      7  N   UNL     1      12.005  11.778  21.937  0.00  0.00    -0.308 N 
ATOM     17  C   UNL     1      11.105  11.780  22.993  0.00  0.00    +0.213 C 
ATOM     32  H   UNL     1      12.407  10.896  21.632  0.00  0.00    +0.149 HD
BRANCH  17  19
ATOM     19  C   UNL     1      10.823  10.373  23.493  0.00  0.00    +0.096 C 
BRANCH  19  20
ATOM     20  C   UNL     1      11.550   9.284  22.707  0.00  0.00    +0.020 C 
BRANCH  20  21
ATOM     21  C   UNL     1      10.611   8.162  22.259  0.00  0.00    +0.121 C 
BRANCH  21  26
ATOM      6  O   UNL     1      11.565   6.597  20.657  0.00  0.00    -0.251 OA
ATOM     26  C   UNL     1      10.969   7.641  20.887  0.00  0.00    +0.305 C 
BRANCH  26   5
ATOM      5  O   UNL     1      10.542   8.482  19.909  0.00  0.00    -0.481 OA
ATOM     34  H   UNL     1      11.285   8.808  19.358  0.00  0.00    +0.295 HD
ENDBRANCH  26   5
ENDBRANCH  21  26
ENDBRANCH  20  21
ENDBRANCH  19  20
ENDBRANCH  17  19
ENDBRANCH  13   7
TORSDOF 8
ENDMDL
MODEL 9
REMARK VINA RESULT:      -6.6     28.470     32.511
REMARK  Name = 11913369
REMARK  8 active torsions:
REMARK  status: ('A' for Active; 'I' for Inactive)
REMARK    1  A    between atoms: O_5  and  C_26
REMARK    2  A    between atoms: N_7  and  C_13
REMARK    3  A    between atoms: N_8  and  C_14
REMARK    4  A    between atoms: C_17  and  C_19
REMARK    5  A    between atoms: C_19  and  C_20
REMARK    6  A    between atoms: C_20  and  C_21
REMARK    7  A    between atoms: C_21  and  C_26
REMARK    8  A    between atoms: C_22  and  C_25
REMARK                            x       y       z     vdW  Elec       q    Type
REMARK                         _______ _______ _______ _____ _____    ______ ____
ROOT
ATOM      2  O   UNL     1      13.551  13.067  23.919  0.00  0.00    -0.370 OA
ATOM      3  O   UNL     1      10.708  13.016  25.206  0.00  0.00    -0.370 OA
ATOM     11  C   UNL     1      11.947  12.360  25.527  0.00  0.00    +0.171 C 
ATOM     12  C   UNL     1      12.624  12.009  24.217  0.00  0.00    +0.171 C 
ATOM     13  C   UNL     1      12.901  13.331  26.186  0.00  0.00    +0.130 C 
ATOM     14  C   UNL     1      11.499  12.000  23.210  0.00  0.00    +0.130 C 
ATOM     15  C   UNL     1      13.539  14.019  24.993  0.00  0.00    +0.185 C 
ATOM     16  C   UNL     1      10.532  13.020  23.782  0.00  0.00    +0.185 C 
ENDROOT
BRANCH  14   8
ATOM      8  N   UNL     1      10.881  10.692  23.170  0.00  0.00    -0.306 N 
ATOM      9  N   UNL     1      11.830  10.204  21.107  0.00  0.00    -0.214 NA
ATOM     10  N   UNL     1      10.408   8.619  22.236  0.00  0.00    -0.223 NA
ATOM     18  C   UNL     1      11.046   9.800  22.126  0.00  0.00    +0.216 A 
ATOM     22  C   UNL     1      11.969   9.309  20.106  0.00  0.00    +0.076 A 
ATOM     23  C   UNL     1      10.590   7.774  21.201  0.00  0.00    +0.116 A 
ATOM     24  C   UNL     1      11.368   8.068  20.099  0.00  0.00    +0.048 A 
ATOM     33  H   UNL     1      10.336  10.374  23.963  0.00  0.00    +0.149 HD
BRANCH  22  25
ATOM      1  F   UNL     1      14.363   8.373  16.022  0.00  0.00    -0.205 F 
ATOM     25  C   UNL     1      12.808   9.739  19.014  0.00  0.00    +0.003 A 
ATOM     27  C   UNL     1      13.187   8.830  18.026  0.00  0.00    +0.048 A 
ATOM     28  C   UNL     1      13.241  11.064  18.946  0.00  0.00    +0.010 A 
ATOM     29  C   UNL     1      13.999   9.246  16.970  0.00  0.00    +0.124 A 
ATOM     30  C   UNL     1      14.053  11.479  17.891  0.00  0.00    +0.003 A 
ATOM     31  C   UNL     1      14.432  10.571  16.903  0.00  0.00    +0.038 A 
ENDBRANCH  22  25
ENDBRANCH  14   8
BRANCH  13   7
ATOM      4  O   UNL     1      14.174  14.303  28.568  0.00  0.00    -0.276 OA
ATOM      7  N   UNL     1      13.887  12.637  26.978  0.00  0.00    -0.308 N 
ATOM     17  C   UNL     1      14.447  13.193  28.121  0.00  0.00    +0.213 C 
ATOM     32  H   UNL     1      14.221  11.734  26.655  0.00  0.00    +0.149 HD
BRANCH  17  19
ATOM     19  C   UNL     1      15.477  12.269  28.748  0.00  0.00    +0.096 C 
BRANCH  19  20
ATOM     20  C   UNL     1      14.913  11.385  29.860  0.00  0.00    +0.020 C 
BRANCH  20  21
ATOM     21  C   UNL     1      15.721  10.099  30.047  0.00  0.00    +0.121 C 
BRANCH  21  26
ATOM      6  O   UNL     1      13.850   8.544  29.938  0.00  0.00    -0.251 OA
ATOM     26  C   UNL     1      14.852   8.951  30.510  0.00  0.00    +0.305 C 
BRANCH  26   5
ATOM      5  O   UNL     1      15.323   8.405  31.662  0.00  0.00    -0.481 OA
ATOM     34  H   UNL     1      15.605   9.092  32.302  0.00  0.00    +0.295 HD
ENDBRANCH  26   5
ENDBRANCH  21  26
ENDBRANCH  20  21
ENDBRANCH  19  20
ENDBRANCH  17  19
ENDBRANCH  13   7
TORSDOF 8
ENDMDL
MODEL 10
REMARK VINA RESULT:      -6.6     27.327     29.043
REMARK  Name = 11913369
REMARK  8 active torsions:
REMARK  status: ('A' for Active; 'I' for Inactive)
REMARK    1  A    between atoms: O_5  and  C_26
REMARK    2  A    between atoms: N_7  and  C_13
REMARK    3  A    between atoms: N_8  and  C_14
REMARK    4  A    between atoms: C_17  and  C_19
REMARK    5  A    between atoms: C_19  and  C_20
REMARK    6  A    between atoms: C_20  and  C_21
REMARK    7  A    between atoms: C_21  and  C_26
REMARK    8  A    between atoms: C_22  and  C_25
REMARK                            x       y       z     vdW  Elec       q    Type
REMARK                         _______ _______ _______ _____ _____    ______ ____
ROOT
ATOM      2  O   UNL     1      15.075  11.358  15.721  0.00  0.00    -0.370 OA
ATOM      3  O   UNL     1      13.242   8.861  15.333  0.00  0.00    -0.370 OA
ATOM     11  C   UNL     1      12.975  10.267  15.476  0.00  0.00    +0.171 C 
ATOM     12  C   UNL     1      13.975  10.818  16.473  0.00  0.00    +0.171 C 
ATOM     13  C   UNL     1      13.297  10.997  14.191  0.00  0.00    +0.130 C 
ATOM     14  C   UNL     1      14.422   9.606  17.256  0.00  0.00    +0.130 C 
ATOM     15  C   UNL     1      14.790  11.236  14.319  0.00  0.00    +0.185 C 
ATOM     16  C   UNL     1      14.288   8.486  16.241  0.00  0.00    +0.185 C 
ENDROOT
BRANCH  14   8
ATOM      8  N   UNL     1      13.528   9.380  18.371  0.00  0.00    -0.306 N 
ATOM      9  N   UNL     1      15.225   8.471  19.669  0.00  0.00    -0.214 NA
ATOM     10  N   UNL     1      12.978   8.673  20.514  0.00  0.00    -0.223 NA
ATOM     18  C   UNL     1      13.927   8.817  19.570  0.00  0.00    +0.216 A 
ATOM     22  C   UNL     1      15.580   7.924  20.851  0.00  0.00    +0.076 A 
ATOM     23  C   UNL     1      13.401   8.121  21.669  0.00  0.00    +0.116 A 
ATOM     24  C   UNL     1      14.704   7.724  21.897  0.00  0.00    +0.048 A 
ATOM     33  H   UNL     1      12.565   9.690  18.309  0.00  0.00    +0.149 HD
BRANCH  22  25
ATOM      1  F   UNL     1      19.214   4.894  19.899  0.00  0.00    -0.205 F 
ATOM     25  C   UNL     1      16.971   7.554  20.961  0.00  0.00    +0.003 A 
ATOM     27  C   UNL     1      17.429   6.380  20.365  0.00  0.00    +0.048 A 
ATOM     28  C   UNL     1      17.856   8.371  21.665  0.00  0.00    +0.010 A 
ATOM     29  C   UNL     1      18.773   6.021  20.471  0.00  0.00    +0.124 A 
ATOM     30  C   UNL     1      19.200   8.013  21.772  0.00  0.00    +0.003 A 
ATOM     31  C   UNL     1      19.658   6.839  21.176  0.00  0.00    +0.038 A 
ENDBRANCH  22  25
ENDBRANCH  14   8
BRANCH  13   7
ATOM      4  O   UNL     1      12.298  12.227  11.798  0.00  0.00    -0.276 OA
ATOM      7  N   UNL     1      12.573  12.242  14.102  0.00  0.00    -0.308 N 
ATOM     17  C   UNL     1      12.128  12.757  12.893  0.00  0.00    +0.213 C 
ATOM     32  H   UNL     1      12.435  12.784  14.950  0.00  0.00    +0.149 HD
BRANCH  17  19
ATOM     19  C   UNL     1      11.423  14.091  13.075  0.00  0.00    +0.096 C 
BRANCH  19  20
ATOM     20  C   UNL     1      10.117  14.207  12.291  0.00  0.00    +0.020 C 
BRANCH  20  21
ATOM     21  C   UNL     1       9.045  13.238  12.797  0.00  0.00    +0.121 C 
BRANCH  21  26
ATOM      6  O   UNL     1       9.139  11.520  11.074  0.00  0.00    -0.251 OA
ATOM     26  C   UNL     1       8.504  12.368  11.686  0.00  0.00    +0.305 C 
BRANCH  26   5
ATOM      5  O   UNL     1       7.196  12.639  11.436  0.00  0.00    -0.481 OA
ATOM     34  H   UNL     1       6.962  12.478  10.497  0.00  0.00    +0.295 HD
ENDBRANCH  26   5
ENDBRANCH  21  26
ENDBRANCH  20  21
ENDBRANCH  19  20
ENDBRANCH  17  19
ENDBRANCH  13   7
TORSDOF 8
ENDMDL
