MODEL 1
REMARK VINA RESULT:      -7.0      0.000      0.000
REMARK  Name = 75536711
REMARK  10 active torsions:
REMARK  status: ('A' for Active; 'I' for Inactive)
REMARK    1  A    between atoms: S_1  and  N_8
REMARK    2  A    between atoms: S_1  and  C_16
REMARK    3  A    between atoms: O_3  and  C_10
REMARK    4  A    between atoms: O_6  and  C_17
REMARK    5  A    between atoms: N_7  and  C_9
REMARK    6  A    between atoms: N_7  and  C_14
REMARK    7  A    between atoms: N_8  and  C_13
REMARK    8  A    between atoms: C_11  and  C_13
REMARK    9  A    between atoms: C_14  and  C_15
REMARK   10  A    between atoms: C_25  and  C_27
REMARK                            x       y       z     vdW  Elec       q    Type
REMARK                         _______ _______ _______ _____ _____    ______ ____
ROOT
ATOM      2  O   UNL     1     -16.320   1.431  25.450  0.00  0.00    -0.371 OA
ATOM      9  C   UNL     1     -16.686   2.243  27.643  0.00  0.00    +0.111 C 
ATOM     10  C   UNL     1     -17.123   3.321  26.668  0.00  0.00    +0.164 C 
ATOM     11  C   UNL     1     -16.658   2.824  25.300  0.00  0.00    +0.164 C 
ATOM     12  C   UNL     1     -16.697   1.004  26.764  0.00  0.00    +0.181 C 
ENDROOT
BRANCH  10   3
ATOM      3  O   UNL     1     -18.552   3.370  26.686  0.00  0.00    -0.388 OA
ATOM     29  H   UNL     1     -18.860   3.154  25.789  0.00  0.00    +0.210 HD
ENDBRANCH  10   3
BRANCH   9   7
ATOM      7  N   UNL     1     -15.343   2.498  28.162  0.00  0.00    -0.305 NA
ATOM     28  H   UNL     1     -14.717   2.705  27.382  0.00  0.00    +0.123 HD
BRANCH   7  14
ATOM     14  C   UNL     1     -15.339   3.631  29.079  0.00  0.00    +0.120 C 
BRANCH  14  15
ATOM     15  C   UNL     1     -15.072   3.203  30.498  0.00  0.00    +0.008 A 
ATOM     17  C   UNL     1     -13.956   2.427  30.810  0.00  0.00    +0.121 A 
ATOM     18  C   UNL     1     -15.956   3.591  31.505  0.00  0.00    +0.008 A 
ATOM     21  C   UNL     1     -13.723   2.039  32.130  0.00  0.00    +0.046 A 
ATOM     22  C   UNL     1     -15.724   3.204  32.824  0.00  0.00    +0.001 A 
ATOM     26  C   UNL     1     -14.607   2.428  33.137  0.00  0.00    +0.004 A 
BRANCH  17   6
ATOM      6  O   UNL     1     -13.082   2.040  29.839  0.00  0.00    -0.506 OA
ATOM     31  H   UNL     1     -12.396   1.477  30.235  0.00  0.00    +0.292 HD
ENDBRANCH  17   6
ENDBRANCH  14  15
ENDBRANCH   7  14
ENDBRANCH   9   7
BRANCH  11  13
ATOM     13  C   UNL     1     -15.436   3.558  24.769  0.00  0.00    +0.140 C 
BRANCH  13   8
ATOM      8  N   UNL     1     -15.457   3.552  23.294  0.00  0.00    -0.187 NA
ATOM     30  H   UNL     1     -14.652   3.091  22.850  0.00  0.00    +0.148 HD
BRANCH   8   1
ATOM      1  S   UNL     1     -16.158   4.850  22.446  0.00  0.00    +0.058 S 
ATOM      4  O   UNL     1     -16.808   5.743  23.387  0.00  0.00    -0.153 OA
ATOM      5  O   UNL     1     -16.891   4.329  21.308  0.00  0.00    -0.153 OA
BRANCH   1  16
ATOM     16  C   UNL     1     -14.732   5.676  21.806  0.00  0.00    +0.105 A 
ATOM     19  C   UNL     1     -13.457   5.187  22.090  0.00  0.00    +0.029 A 
ATOM     20  C   UNL     1     -14.883   6.819  21.020  0.00  0.00    +0.029 A 
ATOM     23  C   UNL     1     -12.332   5.841  21.588  0.00  0.00    +0.005 A 
ATOM     24  C   UNL     1     -13.757   7.473  20.518  0.00  0.00    +0.005 A 
ATOM     25  C   UNL     1     -12.481   6.983  20.803  0.00  0.00    -0.050 A 
ATOM     27  C   UNL     1     -11.279   7.682  20.265  0.00  0.00    +0.044 C 
ENDBRANCH   1  16
ENDBRANCH   8   1
ENDBRANCH  13   8
ENDBRANCH  11  13
TORSDOF 9
ENDMDL
MODEL 2
REMARK VINA RESULT:      -6.7     20.048     21.964
REMARK  Name = 75536711
REMARK  10 active torsions:
REMARK  status: ('A' for Active; 'I' for Inactive)
REMARK    1  A    between atoms: S_1  and  N_8
REMARK    2  A    between atoms: S_1  and  C_16
REMARK    3  A    between atoms: O_3  and  C_10
REMARK    4  A    between atoms: O_6  and  C_17
REMARK    5  A    between atoms: N_7  and  C_9
REMARK    6  A    between atoms: N_7  and  C_14
REMARK    7  A    between atoms: N_8  and  C_13
REMARK    8  A    between atoms: C_11  and  C_13
REMARK    9  A    between atoms: C_14  and  C_15
REMARK   10  A    between atoms: C_25  and  C_27
REMARK                            x       y       z     vdW  Elec       q    Type
REMARK                         _______ _______ _______ _____ _____    ______ ____
ROOT
ATOM      2  O   UNL     1      -5.905 -12.896  18.315  0.00  0.00    -0.371 OA
ATOM      9  C   UNL     1      -4.952 -10.730  18.323  0.00  0.00    +0.111 C 
ATOM     10  C   UNL     1      -6.451 -10.580  18.506  0.00  0.00    +0.164 C 
ATOM     11  C   UNL     1      -7.016 -11.980  18.271  0.00  0.00    +0.164 C 
ATOM     12  C   UNL     1      -4.732 -12.180  18.719  0.00  0.00    +0.181 C 
ENDROOT
BRANCH  10   3
ATOM      3  O   UNL     1      -6.688 -10.203  19.865  0.00  0.00    -0.388 OA
ATOM     29  H   UNL     1      -7.620  -9.935  19.933  0.00  0.00    +0.210 HD
ENDBRANCH  10   3
BRANCH   9   7
ATOM      7  N   UNL     1      -4.552 -10.506  16.935  0.00  0.00    -0.305 NA
ATOM     28  H   UNL     1      -4.660  -9.516  16.711  0.00  0.00    +0.123 HD
BRANCH   7  14
ATOM     14  C   UNL     1      -3.161 -10.886  16.721  0.00  0.00    +0.120 C 
BRANCH  14  15
ATOM     15  C   UNL     1      -2.905 -11.298  15.295  0.00  0.00    +0.008 A 
ATOM     17  C   UNL     1      -3.269 -12.567  14.843  0.00  0.00    +0.121 A 
ATOM     18  C   UNL     1      -2.298 -10.394  14.422  0.00  0.00    +0.008 A 
ATOM     21  C   UNL     1      -3.025 -12.932  13.519  0.00  0.00    +0.046 A 
ATOM     22  C   UNL     1      -2.054 -10.759  13.098  0.00  0.00    +0.001 A 
ATOM     26  C   UNL     1      -2.418 -12.028  12.647  0.00  0.00    +0.004 A 
BRANCH  17   6
ATOM      6  O   UNL     1      -3.864 -13.460  15.682  0.00  0.00    -0.506 OA
ATOM     31  H   UNL     1      -4.374 -12.975  16.353  0.00  0.00    +0.292 HD
ENDBRANCH  17   6
ENDBRANCH  14  15
ENDBRANCH   7  14
ENDBRANCH   9   7
BRANCH  11  13
ATOM     13  C   UNL     1      -7.712 -12.137  16.927  0.00  0.00    +0.140 C 
BRANCH  13   8
ATOM      8  N   UNL     1      -6.703 -12.300  15.863  0.00  0.00    -0.187 NA
ATOM     30  H   UNL     1      -5.953 -11.597  15.863  0.00  0.00    +0.148 HD
BRANCH   8   1
ATOM      1  S   UNL     1      -7.155 -12.934  14.350  0.00  0.00    +0.058 S 
ATOM      4  O   UNL     1      -8.598 -12.873  14.216  0.00  0.00    -0.153 OA
ATOM      5  O   UNL     1      -6.455 -14.185  14.134  0.00  0.00    -0.153 OA
BRANCH   1  16
ATOM     16  C   UNL     1      -6.454 -11.753  13.238  0.00  0.00    +0.105 A 
ATOM     19  C   UNL     1      -6.187 -12.111  11.917  0.00  0.00    +0.029 A 
ATOM     20  C   UNL     1      -6.165 -10.462  13.684  0.00  0.00    +0.029 A 
ATOM     23  C   UNL     1      -5.631 -11.179  11.040  0.00  0.00    +0.005 A 
ATOM     24  C   UNL     1      -5.609  -9.530  12.806  0.00  0.00    +0.005 A 
ATOM     25  C   UNL     1      -5.342  -9.889  11.485  0.00  0.00    -0.050 A 
ATOM     27  C   UNL     1      -4.748  -8.893  10.548  0.00  0.00    +0.044 C 
ENDBRANCH   1  16
ENDBRANCH   8   1
ENDBRANCH  13   8
ENDBRANCH  11  13
TORSDOF 9
ENDMDL
MODEL 3
REMARK VINA RESULT:      -6.6     31.558     34.794
REMARK  Name = 75536711
REMARK  10 active torsions:
REMARK  status: ('A' for Active; 'I' for Inactive)
REMARK    1  A    between atoms: S_1  and  N_8
REMARK    2  A    between atoms: S_1  and  C_16
REMARK    3  A    between atoms: O_3  and  C_10
REMARK    4  A    between atoms: O_6  and  C_17
REMARK    5  A    between atoms: N_7  and  C_9
REMARK    6  A    between atoms: N_7  and  C_14
REMARK    7  A    between atoms: N_8  and  C_13
REMARK    8  A    between atoms: C_11  and  C_13
REMARK    9  A    between atoms: C_14  and  C_15
REMARK   10  A    between atoms: C_25  and  C_27
REMARK                            x       y       z     vdW  Elec       q    Type
REMARK                         _______ _______ _______ _____ _____    ______ ____
ROOT
ATOM      2  O   UNL     1      13.697   8.131   2.622  0.00  0.00    -0.371 OA
ATOM      9  C   UNL     1      14.138   7.787   4.922  0.00  0.00    +0.111 C 
ATOM     10  C   UNL     1      15.254   7.130   4.130  0.00  0.00    +0.164 C 
ATOM     11  C   UNL     1      14.793   7.198   2.675  0.00  0.00    +0.164 C 
ATOM     12  C   UNL     1      13.561   8.757   3.904  0.00  0.00    +0.181 C 
ENDROOT
BRANCH  10   3
ATOM      3  O   UNL     1      16.428   7.930   4.286  0.00  0.00    -0.388 OA
ATOM     29  H   UNL     1      16.475   8.528   3.520  0.00  0.00    +0.210 HD
ENDBRANCH  10   3
BRANCH   9   7
ATOM      7  N   UNL     1      13.129   6.816   5.341  0.00  0.00    -0.305 NA
ATOM     28  H   UNL     1      13.431   5.881   5.067  0.00  0.00    +0.123 HD
BRANCH   7  14
ATOM     14  C   UNL     1      12.943   6.843   6.787  0.00  0.00    +0.120 C 
BRANCH  14  15
ATOM     15  C   UNL     1      11.529   7.197   7.164  0.00  0.00    +0.008 A 
ATOM     17  C   UNL     1      10.689   6.250   7.751  0.00  0.00    +0.121 A 
ATOM     18  C   UNL     1      11.061   8.488   6.920  0.00  0.00    +0.008 A 
ATOM     21  C   UNL     1       9.382   6.594   8.095  0.00  0.00    +0.046 A 
ATOM     22  C   UNL     1       9.754   8.833   7.263  0.00  0.00    +0.001 A 
ATOM     26  C   UNL     1       8.914   7.886   7.851  0.00  0.00    +0.004 A 
BRANCH  17   6
ATOM      6  O   UNL     1      11.131   4.985   7.998  0.00  0.00    -0.506 OA
ATOM     31  H   UNL     1      12.073   5.019   8.236  0.00  0.00    +0.292 HD
ENDBRANCH  17   6
ENDBRANCH  14  15
ENDBRANCH   7  14
ENDBRANCH   9   7
BRANCH  11  13
ATOM     13  C   UNL     1      14.311   5.864   2.126  0.00  0.00    +0.140 C 
BRANCH  13   8
ATOM      8  N   UNL     1      13.095   5.441   2.848  0.00  0.00    -0.187 NA
ATOM     30  H   UNL     1      13.264   4.968   3.744  0.00  0.00    +0.148 HD
BRANCH   8   1
ATOM      1  S   UNL     1      11.711   4.963   1.981  0.00  0.00    +0.058 S 
ATOM      4  O   UNL     1      11.334   3.621   2.381  0.00  0.00    -0.153 OA
ATOM      5  O   UNL     1      11.900   5.281   0.579  0.00  0.00    -0.153 OA
BRANCH   1  16
ATOM     16  C   UNL     1      10.491   6.080   2.603  0.00  0.00    +0.105 A 
ATOM     19  C   UNL     1      10.069   7.156   1.823  0.00  0.00    +0.029 A 
ATOM     20  C   UNL     1       9.952   5.886   3.875  0.00  0.00    +0.029 A 
ATOM     23  C   UNL     1       9.107   8.040   2.314  0.00  0.00    +0.005 A 
ATOM     24  C   UNL     1       8.991   6.770   4.367  0.00  0.00    +0.005 A 
ATOM     25  C   UNL     1       8.569   7.847   3.586  0.00  0.00    -0.050 A 
ATOM     27  C   UNL     1       7.541   8.790   4.112  0.00  0.00    +0.044 C 
ENDBRANCH   1  16
ENDBRANCH   8   1
ENDBRANCH  13   8
ENDBRANCH  11  13
TORSDOF 9
ENDMDL
MODEL 4
REMARK VINA RESULT:      -6.5     18.117     19.598
REMARK  Name = 75536711
REMARK  10 active torsions:
REMARK  status: ('A' for Active; 'I' for Inactive)
REMARK    1  A    between atoms: S_1  and  N_8
REMARK    2  A    between atoms: S_1  and  C_16
REMARK    3  A    between atoms: O_3  and  C_10
REMARK    4  A    between atoms: O_6  and  C_17
REMARK    5  A    between atoms: N_7  and  C_9
REMARK    6  A    between atoms: N_7  and  C_14
REMARK    7  A    between atoms: N_8  and  C_13
REMARK    8  A    between atoms: C_11  and  C_13
REMARK    9  A    between atoms: C_14  and  C_15
REMARK   10  A    between atoms: C_25  and  C_27
REMARK                            x       y       z     vdW  Elec       q    Type
REMARK                         _______ _______ _______ _____ _____    ______ ____
ROOT
ATOM      2  O   UNL     1     -10.640 -10.304  15.942  0.00  0.00    -0.371 OA
ATOM      9  C   UNL     1      -9.952  -9.047  17.826  0.00  0.00    +0.111 C 
ATOM     10  C   UNL     1      -9.983  -8.114  16.629  0.00  0.00    +0.164 C 
ATOM     11  C   UNL     1     -10.215  -9.028  15.427  0.00  0.00    +0.164 C 
ATOM     12  C   UNL     1     -10.839 -10.189  17.356  0.00  0.00    +0.181 C 
ENDROOT
BRANCH  10   3
ATOM      3  O   UNL     1     -11.110  -7.248  16.782  0.00  0.00    -0.388 OA
ATOM     29  H   UNL     1     -11.188  -6.727  15.965  0.00  0.00    +0.210 HD
ENDBRANCH  10   3
BRANCH   9   7
ATOM      7  N   UNL     1      -8.598  -9.525  18.103  0.00  0.00    -0.305 NA
ATOM     28  H   UNL     1      -8.147  -8.888  18.760  0.00  0.00    +0.123 HD
BRANCH   7  14
ATOM     14  C   UNL     1      -8.621 -10.861  18.686  0.00  0.00    +0.120 C 
BRANCH  14  15
ATOM     15  C   UNL     1      -7.270 -11.524  18.621  0.00  0.00    +0.008 A 
ATOM     17  C   UNL     1      -6.204 -11.047  19.384  0.00  0.00    +0.121 A 
ATOM     18  C   UNL     1      -7.092 -12.627  17.786  0.00  0.00    +0.008 A 
ATOM     21  C   UNL     1      -4.960 -11.673  19.313  0.00  0.00    +0.046 A 
ATOM     22  C   UNL     1      -5.848 -13.254  17.715  0.00  0.00    +0.001 A 
ATOM     26  C   UNL     1      -4.782 -12.777  18.478  0.00  0.00    +0.004 A 
BRANCH  17   6
ATOM      6  O   UNL     1      -6.362  -9.972  20.206  0.00  0.00    -0.506 OA
ATOM     31  H   UNL     1      -6.671  -9.214  19.681  0.00  0.00    +0.292 HD
ENDBRANCH  17   6
ENDBRANCH  14  15
ENDBRANCH   7  14
ENDBRANCH   9   7
BRANCH  11  13
ATOM     13  C   UNL     1      -8.972  -9.244  14.578  0.00  0.00    +0.140 C 
BRANCH  13   8
ATOM      8  N   UNL     1      -8.207 -10.392  15.103  0.00  0.00    -0.187 NA
ATOM     30  H   UNL     1      -7.833 -10.267  16.052  0.00  0.00    +0.148 HD
BRANCH   8   1
ATOM      1  S   UNL     1      -7.298 -11.367  14.046  0.00  0.00    +0.058 S 
ATOM      4  O   UNL     1      -7.324 -10.786  12.716  0.00  0.00    -0.153 OA
ATOM      5  O   UNL     1      -7.672 -12.753  14.243  0.00  0.00    -0.153 OA
BRANCH   1  16
ATOM     16  C   UNL     1      -5.664 -11.176  14.692  0.00  0.00    +0.105 A 
ATOM     19  C   UNL     1      -4.643 -12.024  14.266  0.00  0.00    +0.029 A 
ATOM     20  C   UNL     1      -5.398 -10.179  15.631  0.00  0.00    +0.029 A 
ATOM     23  C   UNL     1      -3.353 -11.875  14.778  0.00  0.00    +0.005 A 
ATOM     24  C   UNL     1      -4.109 -10.030  16.143  0.00  0.00    +0.005 A 
ATOM     25  C   UNL     1      -3.086 -10.879  15.716  0.00  0.00    -0.050 A 
ATOM     27  C   UNL     1      -1.708 -10.720  16.263  0.00  0.00    +0.044 C 
ENDBRANCH   1  16
ENDBRANCH   8   1
ENDBRANCH  13   8
ENDBRANCH  11  13
TORSDOF 9
ENDMDL
MODEL 5
REMARK VINA RESULT:      -6.4     20.797     22.891
REMARK  Name = 75536711
REMARK  10 active torsions:
REMARK  status: ('A' for Active; 'I' for Inactive)
REMARK    1  A    between atoms: S_1  and  N_8
REMARK    2  A    between atoms: S_1  and  C_16
REMARK    3  A    between atoms: O_3  and  C_10
REMARK    4  A    between atoms: O_6  and  C_17
REMARK    5  A    between atoms: N_7  and  C_9
REMARK    6  A    between atoms: N_7  and  C_14
REMARK    7  A    between atoms: N_8  and  C_13
REMARK    8  A    between atoms: C_11  and  C_13
REMARK    9  A    between atoms: C_14  and  C_15
REMARK   10  A    between atoms: C_25  and  C_27
REMARK                            x       y       z     vdW  Elec       q    Type
REMARK                         _______ _______ _______ _____ _____    ______ ____
ROOT
ATOM      2  O   UNL     1      -3.546 -14.555  13.878  0.00  0.00    -0.371 OA
ATOM      9  C   UNL     1      -4.770 -13.491  12.155  0.00  0.00    +0.111 C 
ATOM     10  C   UNL     1      -3.310 -13.519  11.740  0.00  0.00    +0.164 C 
ATOM     11  C   UNL     1      -2.562 -14.011  12.978  0.00  0.00    +0.164 C 
ATOM     12  C   UNL     1      -4.815 -14.579  13.215  0.00  0.00    +0.181 C 
ENDROOT
BRANCH  10   3
ATOM      3  O   UNL     1      -3.173 -14.486  10.696  0.00  0.00    -0.388 OA
ATOM     29  H   UNL     1      -3.690 -14.168   9.937  0.00  0.00    +0.210 HD
ENDBRANCH  10   3
BRANCH   9   7
ATOM      7  N   UNL     1      -5.145 -12.198  12.725  0.00  0.00    -0.305 NA
ATOM     28  H   UNL     1      -4.606 -11.463  12.267  0.00  0.00    +0.123 HD
BRANCH   7  14
ATOM     14  C   UNL     1      -6.564 -11.930  12.529  0.00  0.00    +0.120 C 
BRANCH  14  15
ATOM     15  C   UNL     1      -7.244 -11.543  13.817  0.00  0.00    +0.008 A 
ATOM     17  C   UNL     1      -7.024 -10.292  14.392  0.00  0.00    +0.121 A 
ATOM     18  C   UNL     1      -8.103 -12.454  14.434  0.00  0.00    +0.008 A 
ATOM     21  C   UNL     1      -7.662  -9.950  15.584  0.00  0.00    +0.046 A 
ATOM     22  C   UNL     1      -8.741 -12.112  15.626  0.00  0.00    +0.001 A 
ATOM     26  C   UNL     1      -8.520 -10.860  16.201  0.00  0.00    +0.004 A 
BRANCH  17   6
ATOM      6  O   UNL     1      -6.189  -9.391  13.801  0.00  0.00    -0.506 OA
ATOM     31  H   UNL     1      -5.353  -9.833  13.578  0.00  0.00    +0.292 HD
ENDBRANCH  17   6
ENDBRANCH  14  15
ENDBRANCH   7  14
ENDBRANCH   9   7
BRANCH  11  13
ATOM     13  C   UNL     1      -1.803 -12.912  13.707  0.00  0.00    +0.140 C 
BRANCH  13   8
ATOM      8  N   UNL     1      -2.399 -12.699  15.040  0.00  0.00    -0.187 NA
ATOM     30  H   UNL     1      -2.937 -13.494  15.407  0.00  0.00    +0.148 HD
BRANCH   8   1
ATOM      1  S   UNL     1      -2.915 -11.147  15.506  0.00  0.00    +0.058 S 
ATOM      4  O   UNL     1      -3.532 -10.485  14.371  0.00  0.00    -0.153 OA
ATOM      5  O   UNL     1      -1.848 -10.494  16.239  0.00  0.00    -0.153 OA
BRANCH   1  16
ATOM     16  C   UNL     1      -4.187 -11.524  16.674  0.00  0.00    +0.105 A 
ATOM     19  C   UNL     1      -4.801 -12.776  16.656  0.00  0.00    +0.029 A 
ATOM     20  C   UNL     1      -4.578 -10.568  17.612  0.00  0.00    +0.029 A 
ATOM     23  C   UNL     1      -5.807 -13.073  17.576  0.00  0.00    +0.005 A 
ATOM     24  C   UNL     1      -5.584 -10.865  18.532  0.00  0.00    +0.005 A 
ATOM     25  C   UNL     1      -6.199 -12.118  18.513  0.00  0.00    -0.050 A 
ATOM     27  C   UNL     1      -7.273 -12.435  19.497  0.00  0.00    +0.044 C 
ENDBRANCH   1  16
ENDBRANCH   8   1
ENDBRANCH  13   8
ENDBRANCH  11  13
TORSDOF 9
ENDMDL
MODEL 6
REMARK VINA RESULT:      -6.4     31.938     34.298
REMARK  Name = 75536711
REMARK  10 active torsions:
REMARK  status: ('A' for Active; 'I' for Inactive)
REMARK    1  A    between atoms: S_1  and  N_8
REMARK    2  A    between atoms: S_1  and  C_16
REMARK    3  A    between atoms: O_3  and  C_10
REMARK    4  A    between atoms: O_6  and  C_17
REMARK    5  A    between atoms: N_7  and  C_9
REMARK    6  A    between atoms: N_7  and  C_14
REMARK    7  A    between atoms: N_8  and  C_13
REMARK    8  A    between atoms: C_11  and  C_13
REMARK    9  A    between atoms: C_14  and  C_15
REMARK   10  A    between atoms: C_25  and  C_27
REMARK                            x       y       z     vdW  Elec       q    Type
REMARK                         _______ _______ _______ _____ _____    ______ ____
ROOT
ATOM      2  O   UNL     1      13.069   4.523   1.573  0.00  0.00    -0.371 OA
ATOM      9  C   UNL     1      10.981   4.338   2.671  0.00  0.00    +0.111 C 
ATOM     10  C   UNL     1      10.905   5.520   1.722  0.00  0.00    +0.164 C 
ATOM     11  C   UNL     1      12.335   5.712   1.221  0.00  0.00    +0.164 C 
ATOM     12  C   UNL     1      12.155   3.557   2.104  0.00  0.00    +0.181 C 
ENDROOT
BRANCH  10   3
ATOM      3  O   UNL     1      10.072   5.142   0.623  0.00  0.00    -0.388 OA
ATOM     29  H   UNL     1       9.982   5.921   0.047  0.00  0.00    +0.210 HD
ENDBRANCH  10   3
BRANCH   9   7
ATOM      7  N   UNL     1      11.256   4.763   4.042  0.00  0.00    -0.305 NA
ATOM     28  H   UNL     1      11.495   5.756   4.042  0.00  0.00    +0.123 HD
BRANCH   7  14
ATOM     14  C   UNL     1      10.093   4.563   4.898  0.00  0.00    +0.120 C 
BRANCH  14  15
ATOM     15  C   UNL     1       9.776   5.791   5.711  0.00  0.00    +0.008 A 
ATOM     17  C   UNL     1      10.793   6.518   6.329  0.00  0.00    +0.121 A 
ATOM     18  C   UNL     1       8.448   6.198   5.840  0.00  0.00    +0.008 A 
ATOM     21  C   UNL     1      10.483   7.653   7.078  0.00  0.00    +0.046 A 
ATOM     22  C   UNL     1       8.138   7.334   6.589  0.00  0.00    +0.001 A 
ATOM     26  C   UNL     1       9.155   8.061   7.208  0.00  0.00    +0.004 A 
BRANCH  17   6
ATOM      6  O   UNL     1      12.095   6.134   6.211  0.00  0.00    -0.506 OA
ATOM     31  H   UNL     1      12.623   6.892   5.908  0.00  0.00    +0.292 HD
ENDBRANCH  17   6
ENDBRANCH  14  15
ENDBRANCH   7  14
ENDBRANCH   9   7
BRANCH  11  13
ATOM     13  C   UNL     1      13.041   6.909   1.840  0.00  0.00    +0.140 C 
BRANCH  13   8
ATOM      8  N   UNL     1      12.377   7.275   3.106  0.00  0.00    -0.187 NA
ATOM     30  H   UNL     1      11.572   6.688   3.360  0.00  0.00    +0.148 HD
BRANCH   8   1
ATOM      1  S   UNL     1      12.325   8.902   3.602  0.00  0.00    +0.058 S 
ATOM      4  O   UNL     1      12.881   9.740   2.557  0.00  0.00    -0.153 OA
ATOM      5  O   UNL     1      12.827   8.998   4.959  0.00  0.00    -0.153 OA
BRANCH   1  16
ATOM     16  C   UNL     1      10.584   9.202   3.674  0.00  0.00    +0.105 A 
ATOM     19  C   UNL     1       9.702   8.351   3.009  0.00  0.00    +0.029 A 
ATOM     20  C   UNL     1      10.094  10.292   4.393  0.00  0.00    +0.029 A 
ATOM     23  C   UNL     1       8.329   8.589   3.063  0.00  0.00    +0.005 A 
ATOM     24  C   UNL     1       8.720  10.530   4.447  0.00  0.00    +0.005 A 
ATOM     25  C   UNL     1       7.838   9.678   3.781  0.00  0.00    -0.050 A 
ATOM     27  C   UNL     1       6.370   9.933   3.839  0.00  0.00    +0.044 C 
ENDBRANCH   1  16
ENDBRANCH   8   1
ENDBRANCH  13   8
ENDBRANCH  11  13
TORSDOF 9
ENDMDL
MODEL 7
REMARK VINA RESULT:      -6.4     31.866     35.422
REMARK  Name = 75536711
REMARK  10 active torsions:
REMARK  status: ('A' for Active; 'I' for Inactive)
REMARK    1  A    between atoms: S_1  and  N_8
REMARK    2  A    between atoms: S_1  and  C_16
REMARK    3  A    between atoms: O_3  and  C_10
REMARK    4  A    between atoms: O_6  and  C_17
REMARK    5  A    between atoms: N_7  and  C_9
REMARK    6  A    between atoms: N_7  and  C_14
REMARK    7  A    between atoms: N_8  and  C_13
REMARK    8  A    between atoms: C_11  and  C_13
REMARK    9  A    between atoms: C_14  and  C_15
REMARK   10  A    between atoms: C_25  and  C_27
REMARK                            x       y       z     vdW  Elec       q    Type
REMARK                         _______ _______ _______ _____ _____    ______ ____
ROOT
ATOM      2  O   UNL     1      14.608   7.456   6.532  0.00  0.00    -0.371 OA
ATOM      9  C   UNL     1      13.838   8.061   4.378  0.00  0.00    +0.111 C 
ATOM     10  C   UNL     1      12.747   8.403   5.376  0.00  0.00    +0.164 C 
ATOM     11  C   UNL     1      13.216   7.790   6.694  0.00  0.00    +0.164 C 
ATOM     12  C   UNL     1      15.062   7.966   5.273  0.00  0.00    +0.181 C 
ENDROOT
BRANCH  10   3
ATOM      3  O   UNL     1      12.709   9.826   5.509  0.00  0.00    -0.388 OA
ATOM     29  H   UNL     1      13.523  10.095   5.970  0.00  0.00    +0.210 HD
ENDBRANCH  10   3
BRANCH   9   7
ATOM      7  N   UNL     1      13.582   6.784   3.715  0.00  0.00    -0.305 NA
ATOM     28  H   UNL     1      12.835   6.294   4.210  0.00  0.00    +0.123 HD
BRANCH   7  14
ATOM     14  C   UNL     1      13.172   6.983   2.330  0.00  0.00    +0.120 C 
BRANCH  14  15
ATOM     15  C   UNL     1      13.278   5.714   1.526  0.00  0.00    +0.008 A 
ATOM     17  C   UNL     1      12.632   4.549   1.944  0.00  0.00    +0.121 A 
ATOM     18  C   UNL     1      14.031   5.711   0.352  0.00  0.00    +0.008 A 
ATOM     21  C   UNL     1      12.740   3.383   1.187  0.00  0.00    +0.046 A 
ATOM     22  C   UNL     1      14.139   4.544  -0.405  0.00  0.00    +0.001 A 
ATOM     26  C   UNL     1      13.493   3.380   0.013  0.00  0.00    +0.004 A 
BRANCH  17   6
ATOM      6  O   UNL     1      11.892   4.536   3.087  0.00  0.00    -0.506 OA
ATOM     31  H   UNL     1      12.038   3.693   3.550  0.00  0.00    +0.292 HD
ENDBRANCH  17   6
ENDBRANCH  14  15
ENDBRANCH   7  14
ENDBRANCH   9   7
BRANCH  11  13
ATOM     13  C   UNL     1      12.463   6.526   7.080  0.00  0.00    +0.140 C 
BRANCH  13   8
ATOM      8  N   UNL     1      11.734   6.006   5.907  0.00  0.00    -0.187 NA
ATOM     30  H   UNL     1      12.025   6.403   5.004  0.00  0.00    +0.148 HD
BRANCH   8   1
ATOM      1  S   UNL     1      10.101   5.550   6.051  0.00  0.00    +0.058 S 
ATOM      4  O   UNL     1       9.668   5.746   7.422  0.00  0.00    -0.153 OA
ATOM      5  O   UNL     1       9.910   4.268   5.402  0.00  0.00    -0.153 OA
BRANCH   1  16
ATOM     16  C   UNL     1       9.297   6.762   5.047  0.00  0.00    +0.105 A 
ATOM     19  C   UNL     1       9.471   6.747   3.663  0.00  0.00    +0.029 A 
ATOM     20  C   UNL     1       8.491   7.735   5.639  0.00  0.00    +0.029 A 
ATOM     23  C   UNL     1       8.838   7.705   2.870  0.00  0.00    +0.005 A 
ATOM     24  C   UNL     1       7.859   8.693   4.846  0.00  0.00    +0.005 A 
ATOM     25  C   UNL     1       8.033   8.678   3.461  0.00  0.00    -0.050 A 
ATOM     27  C   UNL     1       7.357   9.702   2.614  0.00  0.00    +0.044 C 
ENDBRANCH   1  16
ENDBRANCH   8   1
ENDBRANCH  13   8
ENDBRANCH  11  13
TORSDOF 9
ENDMDL
MODEL 8
REMARK VINA RESULT:      -6.3     21.770     24.278
REMARK  Name = 75536711
REMARK  10 active torsions:
REMARK  status: ('A' for Active; 'I' for Inactive)
REMARK    1  A    between atoms: S_1  and  N_8
REMARK    2  A    between atoms: S_1  and  C_16
REMARK    3  A    between atoms: O_3  and  C_10
REMARK    4  A    between atoms: O_6  and  C_17
REMARK    5  A    between atoms: N_7  and  C_9
REMARK    6  A    between atoms: N_7  and  C_14
REMARK    7  A    between atoms: N_8  and  C_13
REMARK    8  A    between atoms: C_11  and  C_13
REMARK    9  A    between atoms: C_14  and  C_15
REMARK   10  A    between atoms: C_25  and  C_27
REMARK                            x       y       z     vdW  Elec       q    Type
REMARK                         _______ _______ _______ _____ _____    ______ ____
ROOT
ATOM      2  O   UNL     1      -3.948 -14.329  13.444  0.00  0.00    -0.371 OA
ATOM      9  C   UNL     1      -3.696 -14.204  11.094  0.00  0.00    +0.111 C 
ATOM     10  C   UNL     1      -2.586 -15.087  11.636  0.00  0.00    +0.164 C 
ATOM     11  C   UNL     1      -2.677 -14.943  13.154  0.00  0.00    +0.164 C 
ATOM     12  C   UNL     1      -4.704 -14.237  12.231  0.00  0.00    +0.181 C 
ENDROOT
BRANCH  10   3
ATOM      3  O   UNL     1      -2.889 -16.437  11.275  0.00  0.00    -0.388 OA
ATOM     29  H   UNL     1      -3.272 -16.419  10.381  0.00  0.00    +0.210 HD
ENDBRANCH  10   3
BRANCH   9   7
ATOM      7  N   UNL     1      -3.231 -12.839  10.853  0.00  0.00    -0.305 NA
ATOM     28  H   UNL     1      -2.242 -12.862  10.603  0.00  0.00    +0.123 HD
BRANCH   7  14
ATOM     14  C   UNL     1      -3.975 -12.215   9.766  0.00  0.00    +0.120 C 
BRANCH  14  15
ATOM     15  C   UNL     1      -4.805 -11.054  10.249  0.00  0.00    +0.008 A 
ATOM     17  C   UNL     1      -4.206  -9.836  10.574  0.00  0.00    +0.121 A 
ATOM     18  C   UNL     1      -6.186 -11.207  10.369  0.00  0.00    +0.008 A 
ATOM     21  C   UNL     1      -4.989  -8.771  11.019  0.00  0.00    +0.046 A 
ATOM     22  C   UNL     1      -6.969 -10.142  10.814  0.00  0.00    +0.001 A 
ATOM     26  C   UNL     1      -6.371  -8.924  11.139  0.00  0.00    +0.004 A 
BRANCH  17   6
ATOM      6  O   UNL     1      -2.859  -9.671  10.460  0.00  0.00    -0.506 OA
ATOM     31  H   UNL     1      -2.410 -10.415  10.895  0.00  0.00    +0.292 HD
ENDBRANCH  17   6
ENDBRANCH  14  15
ENDBRANCH   7  14
ENDBRANCH   9   7
BRANCH  11  13
ATOM     13  C   UNL     1      -1.580 -14.074  13.749  0.00  0.00    +0.140 C 
BRANCH  13   8
ATOM      8  N   UNL     1      -2.169 -13.119  14.707  0.00  0.00    -0.187 NA
ATOM     30  H   UNL     1      -3.030 -13.440  15.168  0.00  0.00    +0.148 HD
BRANCH   8   1
ATOM      1  S   UNL     1      -2.025 -11.445  14.440  0.00  0.00    +0.058 S 
ATOM      4  O   UNL     1      -2.016 -11.186  13.012  0.00  0.00    -0.153 OA
ATOM      5  O   UNL     1      -0.967 -10.921  15.282  0.00  0.00    -0.153 OA
BRANCH   1  16
ATOM     16  C   UNL     1      -3.551 -10.841  15.093  0.00  0.00    +0.105 A 
ATOM     19  C   UNL     1      -4.616 -10.565  14.236  0.00  0.00    +0.029 A 
ATOM     20  C   UNL     1      -3.690 -10.638  16.467  0.00  0.00    +0.029 A 
ATOM     23  C   UNL     1      -5.821 -10.085  14.751  0.00  0.00    +0.005 A 
ATOM     24  C   UNL     1      -4.895 -10.158  16.982  0.00  0.00    +0.005 A 
ATOM     25  C   UNL     1      -5.960  -9.882  16.124  0.00  0.00    -0.050 A 
ATOM     27  C   UNL     1      -7.248  -9.370  16.675  0.00  0.00    +0.044 C 
ENDBRANCH   1  16
ENDBRANCH   8   1
ENDBRANCH  13   8
ENDBRANCH  11  13
TORSDOF 9
ENDMDL
MODEL 9
REMARK VINA RESULT:      -6.3      9.124     13.004
REMARK  Name = 75536711
REMARK  10 active torsions:
REMARK  status: ('A' for Active; 'I' for Inactive)
REMARK    1  A    between atoms: S_1  and  N_8
REMARK    2  A    between atoms: S_1  and  C_16
REMARK    3  A    between atoms: O_3  and  C_10
REMARK    4  A    between atoms: O_6  and  C_17
REMARK    5  A    between atoms: N_7  and  C_9
REMARK    6  A    between atoms: N_7  and  C_14
REMARK    7  A    between atoms: N_8  and  C_13
REMARK    8  A    between atoms: C_11  and  C_13
REMARK    9  A    between atoms: C_14  and  C_15
REMARK   10  A    between atoms: C_25  and  C_27
REMARK                            x       y       z     vdW  Elec       q    Type
REMARK                         _______ _______ _______ _____ _____    ______ ____
ROOT
ATOM      2  O   UNL     1     -12.434   9.562  14.484  0.00  0.00    -0.371 OA
ATOM      9  C   UNL     1     -10.474   8.415  15.155  0.00  0.00    +0.111 C 
ATOM     10  C   UNL     1     -10.978   7.770  13.876  0.00  0.00    +0.164 C 
ATOM     11  C   UNL     1     -12.345   8.406  13.629  0.00  0.00    +0.164 C 
ATOM     12  C   UNL     1     -11.164   9.770  15.113  0.00  0.00    +0.181 C 
ENDROOT
BRANCH  10   3
ATOM      3  O   UNL     1     -10.090   8.145  12.821  0.00  0.00    -0.388 OA
ATOM     29  H   UNL     1      -9.275   8.479  13.233  0.00  0.00    +0.210 HD
ENDBRANCH  10   3
BRANCH   9   7
ATOM      7  N   UNL     1     -10.885   7.662  16.338  0.00  0.00    -0.305 NA
ATOM     28  H   UNL     1     -10.300   6.830  16.424  0.00  0.00    +0.123 HD
BRANCH   7  14
ATOM     14  C   UNL     1     -10.740   8.463  17.547  0.00  0.00    +0.120 C 
BRANCH  14  15
ATOM     15  C   UNL     1     -11.696   8.027  18.626  0.00  0.00    +0.008 A 
ATOM     17  C   UNL     1     -13.075   8.082  18.422  0.00  0.00    +0.121 A 
ATOM     18  C   UNL     1     -11.189   7.565  19.841  0.00  0.00    +0.008 A 
ATOM     21  C   UNL     1     -13.947   7.674  19.431  0.00  0.00    +0.046 A 
ATOM     22  C   UNL     1     -12.061   7.157  20.851  0.00  0.00    +0.001 A 
ATOM     26  C   UNL     1     -13.440   7.212  20.646  0.00  0.00    +0.004 A 
BRANCH  17   6
ATOM      6  O   UNL     1     -13.587   8.529  17.241  0.00  0.00    -0.506 OA
ATOM     31  H   UNL     1     -13.958   7.776  16.750  0.00  0.00    +0.292 HD
ENDBRANCH  17   6
ENDBRANCH  14  15
ENDBRANCH   7  14
ENDBRANCH   9   7
BRANCH  11  13
ATOM     13  C   UNL     1     -13.512   7.484  13.948  0.00  0.00    +0.140 C 
BRANCH  13   8
ATOM      8  N   UNL     1     -14.041   6.904  12.699  0.00  0.00    -0.187 NA
ATOM     30  H   UNL     1     -13.743   7.380  11.838  0.00  0.00    +0.148 HD
BRANCH   8   1
ATOM      1  S   UNL     1     -15.583   6.185  12.680  0.00  0.00    +0.058 S 
ATOM      4  O   UNL     1     -16.575   7.186  12.335  0.00  0.00    -0.153 OA
ATOM      5  O   UNL     1     -15.744   5.380  13.875  0.00  0.00    -0.153 OA
BRANCH   1  16
ATOM     16  C   UNL     1     -15.444   5.066  11.319  0.00  0.00    +0.105 A 
ATOM     19  C   UNL     1     -15.810   5.477  10.038  0.00  0.00    +0.029 A 
ATOM     20  C   UNL     1     -14.969   3.770  11.527  0.00  0.00    +0.029 A 
ATOM     23  C   UNL     1     -15.703   4.594   8.963  0.00  0.00    +0.005 A 
ATOM     24  C   UNL     1     -14.862   2.887  10.453  0.00  0.00    +0.005 A 
ATOM     25  C   UNL     1     -15.229   3.299   9.171  0.00  0.00    -0.050 A 
ATOM     27  C   UNL     1     -15.113   2.354   8.023  0.00  0.00    +0.044 C 
ENDBRANCH   1  16
ENDBRANCH   8   1
ENDBRANCH  13   8
ENDBRANCH  11  13
TORSDOF 9
ENDMDL
MODEL 10
REMARK VINA RESULT:      -6.3     17.408     18.913
REMARK  Name = 75536711
REMARK  10 active torsions:
REMARK  status: ('A' for Active; 'I' for Inactive)
REMARK    1  A    between atoms: S_1  and  N_8
REMARK    2  A    between atoms: S_1  and  C_16
REMARK    3  A    between atoms: O_3  and  C_10
REMARK    4  A    between atoms: O_6  and  C_17
REMARK    5  A    between atoms: N_7  and  C_9
REMARK    6  A    between atoms: N_7  and  C_14
REMARK    7  A    between atoms: N_8  and  C_13
REMARK    8  A    between atoms: C_11  and  C_13
REMARK    9  A    between atoms: C_14  and  C_15
REMARK   10  A    between atoms: C_25  and  C_27
REMARK                            x       y       z     vdW  Elec       q    Type
REMARK                         _______ _______ _______ _____ _____    ______ ____
ROOT
ATOM      2  O   UNL     1     -11.814 -11.721  18.415  0.00  0.00    -0.371 OA
ATOM      9  C   UNL     1     -10.344 -11.119  20.169  0.00  0.00    +0.111 C 
ATOM     10  C   UNL     1     -11.253  -9.934  19.895  0.00  0.00    +0.164 C 
ATOM     11  C   UNL     1     -12.012 -10.309  18.624  0.00  0.00    +0.164 C 
ATOM     12  C   UNL     1     -11.128 -12.264  19.549  0.00  0.00    +0.181 C 
ENDROOT
BRANCH  10   3
ATOM      3  O   UNL     1     -12.178  -9.836  20.980  0.00  0.00    -0.388 OA
ATOM     29  H   UNL     1     -12.925 -10.425  20.778  0.00  0.00    +0.210 HD
ENDBRANCH  10   3
BRANCH   9   7
ATOM      7  N   UNL     1      -9.046 -10.967  19.515  0.00  0.00    -0.305 NA
ATOM     28  H   UNL     1      -8.548 -10.183  19.939  0.00  0.00    +0.123 HD
BRANCH   7  14
ATOM     14  C   UNL     1      -8.237 -12.170  19.665  0.00  0.00    +0.120 C 
BRANCH  14  15
ATOM     15  C   UNL     1      -6.908 -12.043  18.968  0.00  0.00    +0.008 A 
ATOM     17  C   UNL     1      -6.100 -10.924  19.173  0.00  0.00    +0.121 A 
ATOM     18  C   UNL     1      -6.488 -13.060  18.111  0.00  0.00    +0.008 A 
ATOM     21  C   UNL     1      -4.872 -10.823  18.520  0.00  0.00    +0.046 A 
ATOM     22  C   UNL     1      -5.259 -12.959  17.458  0.00  0.00    +0.001 A 
ATOM     26  C   UNL     1      -4.451 -11.840  17.662  0.00  0.00    +0.004 A 
BRANCH  17   6
ATOM      6  O   UNL     1      -6.495  -9.923  20.008  0.00  0.00    -0.506 OA
ATOM     31  H   UNL     1      -6.209  -9.071  19.639  0.00  0.00    +0.292 HD
ENDBRANCH  17   6
ENDBRANCH  14  15
ENDBRANCH   7  14
ENDBRANCH   9   7
BRANCH  11  13
ATOM     13  C   UNL     1     -11.527  -9.571  17.385  0.00  0.00    +0.140 C 
BRANCH  13   8
ATOM      8  N   UNL     1     -10.279 -10.189  16.897  0.00  0.00    -0.187 NA
ATOM     30  H   UNL     1     -10.059 -11.105  17.306  0.00  0.00    +0.148 HD
BRANCH   8   1
ATOM      1  S   UNL     1      -8.958  -9.210  16.458  0.00  0.00    +0.058 S 
ATOM      4  O   UNL     1      -8.236  -8.815  17.654  0.00  0.00    -0.153 OA
ATOM      5  O   UNL     1      -9.406  -8.208  15.512  0.00  0.00    -0.153 OA
BRANCH   1  16
ATOM     16  C   UNL     1      -7.945 -10.349  15.563  0.00  0.00    +0.105 A 
ATOM     19  C   UNL     1      -6.659  -9.979  15.171  0.00  0.00    +0.029 A 
ATOM     20  C   UNL     1      -8.434 -11.617  15.246  0.00  0.00    +0.029 A 
ATOM     23  C   UNL     1      -5.861 -10.877  14.461  0.00  0.00    +0.005 A 
ATOM     24  C   UNL     1      -7.636 -12.515  14.537  0.00  0.00    +0.005 A 
ATOM     25  C   UNL     1      -6.349 -12.144  14.144  0.00  0.00    -0.050 A 
ATOM     27  C   UNL     1      -5.496 -13.104  13.387  0.00  0.00    +0.044 C 
ENDBRANCH   1  16
ENDBRANCH   8   1
ENDBRANCH  13   8
ENDBRANCH  11  13
TORSDOF 9
ENDMDL
