MODEL 1
REMARK VINA RESULT:      -7.3      0.000      0.000
REMARK  Name = 26743880
REMARK  6 active torsions:
REMARK  status: ('A' for Active; 'I' for Inactive)
REMARK    1  A    between atoms: O_1  and  C_10
REMARK    2  A    between atoms: N_3  and  C_12
REMARK    3  A    between atoms: C_8  and  C_13
REMARK    4  A    between atoms: C_12  and  C_14
REMARK    5  A    between atoms: C_15  and  C_16
REMARK    6  A    between atoms: C_21  and  C_24
REMARK                            x       y       z     vdW  Elec       q    Type
REMARK                         _______ _______ _______ _____ _____    ______ ____
ROOT
ATOM      3  N   UNL     1      12.330   8.556  19.829  0.00  0.00    -0.282 NA
ATOM      8  C   UNL     1      13.115   8.334  21.061  0.00  0.00    +0.149 C 
ATOM      9  C   UNL     1      12.225   7.432  21.936  0.00  0.00    +0.061 C 
ATOM     10  C   UNL     1      10.945   7.240  21.132  0.00  0.00    +0.130 C 
ATOM     11  C   UNL     1      10.923   8.443  20.207  0.00  0.00    +0.117 C 
ENDROOT
BRANCH   8  13
ATOM      2  O   UNL     1      14.497   6.649  19.957  0.00  0.00    -0.336 OA
ATOM      4  N   UNL     1      15.651   8.085  21.231  0.00  0.00    -0.190 NA
ATOM      7  N   UNL     1      15.841   6.268  19.855  0.00  0.00    -0.056 NA
ATOM     13  C   UNL     1      14.474   7.726  20.785  0.00  0.00    +0.245 A 
ATOM     15  C   UNL     1      16.458   7.162  20.634  0.00  0.00    +0.202 A 
BRANCH  15  16
ATOM     16  C   UNL     1      17.878   7.160  20.835  0.00  0.00    +0.023 A 
ATOM     19  C   UNL     1      18.624   6.021  20.534  0.00  0.00    +0.015 A 
ATOM     20  C   UNL     1      18.513   8.299  21.332  0.00  0.00    +0.012 A 
ATOM     21  C   UNL     1      20.005   6.019  20.730  0.00  0.00    -0.050 A 
ATOM     22  C   UNL     1      19.895   8.297  21.526  0.00  0.00    +0.001 A 
ATOM     23  C   UNL     1      20.641   7.157  21.225  0.00  0.00    +0.003 A 
ATOM     24  C   UNL     1      20.803   4.800  20.408  0.00  0.00    +0.044 C 
ENDBRANCH  15  16
ENDBRANCH   8  13
BRANCH  10   1
ATOM      1  O   UNL     1       9.817   7.212  21.984  0.00  0.00    -0.390 OA
ATOM     25  H   UNL     1       9.025   7.252  21.422  0.00  0.00    +0.210 HD
ENDBRANCH  10   1
BRANCH   3  12
ATOM     12  C   UNL     1      12.623   9.829  19.183  0.00  0.00    +0.159 C 
BRANCH  12  14
ATOM      5  N   UNL     1      13.264  10.699  16.922  0.00  0.00    -0.347 N 
ATOM      6  N   UNL     1      13.510   8.513  17.221  0.00  0.00    -0.239 NA
ATOM     14  C   UNL     1      13.136   9.642  17.780  0.00  0.00    +0.121 A 
ATOM     17  C   UNL     1      13.748  10.212  15.741  0.00  0.00    +0.104 A 
ATOM     18  C   UNL     1      13.891   8.860  15.950  0.00  0.00    +0.130 A 
ATOM     26  H   UNL     1      13.043  11.665  17.122  0.00  0.00    +0.167 HD
ENDBRANCH  12  14
ENDBRANCH   3  12
TORSDOF 5
ENDMDL
MODEL 2
REMARK VINA RESULT:      -7.1      2.162      3.820
REMARK  Name = 26743880
REMARK  6 active torsions:
REMARK  status: ('A' for Active; 'I' for Inactive)
REMARK    1  A    between atoms: O_1  and  C_10
REMARK    2  A    between atoms: N_3  and  C_12
REMARK    3  A    between atoms: C_8  and  C_13
REMARK    4  A    between atoms: C_12  and  C_14
REMARK    5  A    between atoms: C_15  and  C_16
REMARK    6  A    between atoms: C_21  and  C_24
REMARK                            x       y       z     vdW  Elec       q    Type
REMARK                         _______ _______ _______ _____ _____    ______ ____
ROOT
ATOM      3  N   UNL     1      11.996   8.328  19.954  0.00  0.00    -0.282 NA
ATOM      8  C   UNL     1      12.878   7.268  19.423  0.00  0.00    +0.149 C 
ATOM      9  C   UNL     1      12.645   7.287  17.901  0.00  0.00    +0.061 C 
ATOM     10  C   UNL     1      11.582   8.357  17.678  0.00  0.00    +0.130 C 
ATOM     11  C   UNL     1      10.878   8.443  19.019  0.00  0.00    +0.117 C 
ENDROOT
BRANCH   8  13
ATOM      2  O   UNL     1      14.721   8.763  20.007  0.00  0.00    -0.336 OA
ATOM      4  N   UNL     1      15.286   6.596  19.946  0.00  0.00    -0.190 NA
ATOM      7  N   UNL     1      16.082   8.706  20.331  0.00  0.00    -0.056 NA
ATOM     13  C   UNL     1      14.331   7.479  19.795  0.00  0.00    +0.245 A 
ATOM     15  C   UNL     1      16.341   7.396  20.275  0.00  0.00    +0.202 A 
BRANCH  15  16
ATOM     16  C   UNL     1      17.643   6.855  20.542  0.00  0.00    +0.023 A 
ATOM     19  C   UNL     1      18.410   7.366  21.589  0.00  0.00    +0.015 A 
ATOM     20  C   UNL     1      18.140   5.817  19.753  0.00  0.00    +0.012 A 
ATOM     21  C   UNL     1      19.675   6.839  21.848  0.00  0.00    -0.050 A 
ATOM     22  C   UNL     1      19.406   5.290  20.014  0.00  0.00    +0.001 A 
ATOM     23  C   UNL     1      20.173   5.801  21.061  0.00  0.00    +0.003 A 
ATOM     24  C   UNL     1      20.496   7.385  22.967  0.00  0.00    +0.044 C 
ENDBRANCH  15  16
ENDBRANCH   8  13
BRANCH  10   1
ATOM      1  O   UNL     1      10.697   7.976  16.643  0.00  0.00    -0.390 OA
ATOM     25  H   UNL     1      10.455   8.781  16.154  0.00  0.00    +0.210 HD
ENDBRANCH  10   1
BRANCH   3  12
ATOM     12  C   UNL     1      11.548   8.073  21.316  0.00  0.00    +0.159 C 
BRANCH  12  14
ATOM      5  N   UNL     1      12.934   9.852  22.408  0.00  0.00    -0.347 N 
ATOM      6  N   UNL     1      10.757   9.921  22.841  0.00  0.00    -0.239 NA
ATOM     14  C   UNL     1      11.709   9.283  22.197  0.00  0.00    +0.121 A 
ATOM     17  C   UNL     1      12.752  10.920  23.241  0.00  0.00    +0.104 A 
ATOM     18  C   UNL     1      11.401  10.941  23.495  0.00  0.00    +0.130 A 
ATOM     26  H   UNL     1      13.815   9.543  22.019  0.00  0.00    +0.167 HD
ENDBRANCH  12  14
ENDBRANCH   3  12
TORSDOF 5
ENDMDL
MODEL 3
REMARK VINA RESULT:      -6.9      3.660      7.180
REMARK  Name = 26743880
REMARK  6 active torsions:
REMARK  status: ('A' for Active; 'I' for Inactive)
REMARK    1  A    between atoms: O_1  and  C_10
REMARK    2  A    between atoms: N_3  and  C_12
REMARK    3  A    between atoms: C_8  and  C_13
REMARK    4  A    between atoms: C_12  and  C_14
REMARK    5  A    between atoms: C_15  and  C_16
REMARK    6  A    between atoms: C_21  and  C_24
REMARK                            x       y       z     vdW  Elec       q    Type
REMARK                         _______ _______ _______ _____ _____    ______ ____
ROOT
ATOM      3  N   UNL     1      13.678   7.628  19.906  0.00  0.00    -0.282 NA
ATOM      8  C   UNL     1      13.268   8.061  21.258  0.00  0.00    +0.149 C 
ATOM      9  C   UNL     1      14.514   7.840  22.136  0.00  0.00    +0.061 C 
ATOM     10  C   UNL     1      15.554   7.237  21.200  0.00  0.00    +0.130 C 
ATOM     11  C   UNL     1      14.722   6.622  20.092  0.00  0.00    +0.117 C 
ENDROOT
BRANCH   8  13
ATOM      2  O   UNL     1      13.209  10.301  20.282  0.00  0.00    -0.336 OA
ATOM      4  N   UNL     1      11.990  10.084  22.150  0.00  0.00    -0.190 NA
ATOM      7  N   UNL     1      12.634  11.556  20.521  0.00  0.00    -0.056 NA
ATOM     13  C   UNL     1      12.779   9.494  21.287  0.00  0.00    +0.245 A 
ATOM     15  C   UNL     1      11.930  11.348  21.638  0.00  0.00    +0.202 A 
BRANCH  15  16
ATOM     16  C   UNL     1      11.158  12.380  22.267  0.00  0.00    +0.023 A 
ATOM     19  C   UNL     1      10.662  13.441  21.508  0.00  0.00    +0.015 A 
ATOM     20  C   UNL     1      10.903  12.323  23.637  0.00  0.00    +0.012 A 
ATOM     21  C   UNL     1       9.910  14.444  22.120  0.00  0.00    -0.050 A 
ATOM     22  C   UNL     1      10.151  13.326  24.248  0.00  0.00    +0.001 A 
ATOM     23  C   UNL     1       9.654  14.387  23.490  0.00  0.00    +0.003 A 
ATOM     24  C   UNL     1       9.380  15.578  21.309  0.00  0.00    +0.044 C 
ENDBRANCH  15  16
ENDBRANCH   8  13
BRANCH  10   1
ATOM      1  O   UNL     1      16.332   6.266  21.874  0.00  0.00    -0.390 OA
ATOM     25  H   UNL     1      15.788   5.904  22.594  0.00  0.00    +0.210 HD
ENDBRANCH  10   1
BRANCH   3  12
ATOM     12  C   UNL     1      12.571   7.128  19.103  0.00  0.00    +0.159 C 
BRANCH  12  14
ATOM      5  N   UNL     1      13.191   8.947  17.495  0.00  0.00    -0.347 N 
ATOM      6  N   UNL     1      11.190   8.032  17.194  0.00  0.00    -0.239 NA
ATOM     14  C   UNL     1      12.282   8.021  17.925  0.00  0.00    +0.121 A 
ATOM     17  C   UNL     1      12.642   9.591  16.422  0.00  0.00    +0.104 A 
ATOM     18  C   UNL     1      11.408   9.009  16.256  0.00  0.00    +0.130 A 
ATOM     26  H   UNL     1      14.102   9.125  17.895  0.00  0.00    +0.167 HD
ENDBRANCH  12  14
ENDBRANCH   3  12
TORSDOF 5
ENDMDL
MODEL 4
REMARK VINA RESULT:      -6.8      3.423      6.834
REMARK  Name = 26743880
REMARK  6 active torsions:
REMARK  status: ('A' for Active; 'I' for Inactive)
REMARK    1  A    between atoms: O_1  and  C_10
REMARK    2  A    between atoms: N_3  and  C_12
REMARK    3  A    between atoms: C_8  and  C_13
REMARK    4  A    between atoms: C_12  and  C_14
REMARK    5  A    between atoms: C_15  and  C_16
REMARK    6  A    between atoms: C_21  and  C_24
REMARK                            x       y       z     vdW  Elec       q    Type
REMARK                         _______ _______ _______ _____ _____    ______ ____
ROOT
ATOM      3  N   UNL     1      13.956   7.582  19.686  0.00  0.00    -0.282 NA
ATOM      8  C   UNL     1      13.752   7.382  21.136  0.00  0.00    +0.149 C 
ATOM      9  C   UNL     1      15.159   7.502  21.751  0.00  0.00    +0.061 C 
ATOM     10  C   UNL     1      16.090   7.723  20.565  0.00  0.00    +0.130 C 
ATOM     11  C   UNL     1      15.319   7.143  19.394  0.00  0.00    +0.117 C 
ENDROOT
BRANCH   8  13
ATOM      2  O   UNL     1      11.642   7.845  22.278  0.00  0.00    -0.336 OA
ATOM      4  N   UNL     1      12.838   9.675  21.790  0.00  0.00    -0.190 NA
ATOM      7  N   UNL     1      10.899   8.934  22.751  0.00  0.00    -0.056 NA
ATOM     13  C   UNL     1      12.768   8.369  21.728  0.00  0.00    +0.245 A 
ATOM     15  C   UNL     1      11.669   9.976  22.426  0.00  0.00    +0.202 A 
BRANCH  15  16
ATOM     16  C   UNL     1      11.300  11.330  22.723  0.00  0.00    +0.023 A 
ATOM     19  C   UNL     1      11.076  11.719  24.044  0.00  0.00    +0.015 A 
ATOM     20  C   UNL     1      11.166  12.258  21.690  0.00  0.00    +0.012 A 
ATOM     21  C   UNL     1      10.717  13.036  24.332  0.00  0.00    -0.050 A 
ATOM     22  C   UNL     1      10.808  13.575  21.979  0.00  0.00    +0.001 A 
ATOM     23  C   UNL     1      10.584  13.964  23.300  0.00  0.00    +0.003 A 
ATOM     24  C   UNL     1      10.477  13.451  25.745  0.00  0.00    +0.044 C 
ENDBRANCH  15  16
ENDBRANCH   8  13
BRANCH  10   1
ATOM      1  O   UNL     1      17.322   7.057  20.765  0.00  0.00    -0.390 OA
ATOM     25  H   UNL     1      17.128   6.111  20.881  0.00  0.00    +0.210 HD
ENDBRANCH  10   1
BRANCH   3  12
ATOM     12  C   UNL     1      12.969   6.890  18.867  0.00  0.00    +0.159 C 
BRANCH  12  14
ATOM      5  N   UNL     1      11.049   8.047  17.749  0.00  0.00    -0.347 N 
ATOM      6  N   UNL     1      13.048   8.407  16.853  0.00  0.00    -0.239 NA
ATOM     14  C   UNL     1      12.390   7.788  17.807  0.00  0.00    +0.121 A 
ATOM     17  C   UNL     1      10.839   8.884  16.690  0.00  0.00    +0.104 A 
ATOM     18  C   UNL     1      12.087   9.092  16.153  0.00  0.00    +0.130 A 
ATOM     26  H   UNL     1      10.340   7.687  18.374  0.00  0.00    +0.167 HD
ENDBRANCH  12  14
ENDBRANCH   3  12
TORSDOF 5
ENDMDL
MODEL 5
REMARK VINA RESULT:      -6.6      4.260      7.624
REMARK  Name = 26743880
REMARK  6 active torsions:
REMARK  status: ('A' for Active; 'I' for Inactive)
REMARK    1  A    between atoms: O_1  and  C_10
REMARK    2  A    between atoms: N_3  and  C_12
REMARK    3  A    between atoms: C_8  and  C_13
REMARK    4  A    between atoms: C_12  and  C_14
REMARK    5  A    between atoms: C_15  and  C_16
REMARK    6  A    between atoms: C_21  and  C_24
REMARK                            x       y       z     vdW  Elec       q    Type
REMARK                         _______ _______ _______ _____ _____    ______ ____
ROOT
ATOM      3  N   UNL     1      12.998   8.708  18.730  0.00  0.00    -0.282 NA
ATOM      8  C   UNL     1      13.759   9.962  18.554  0.00  0.00    +0.149 C 
ATOM      9  C   UNL     1      13.779  10.199  17.032  0.00  0.00    +0.061 C 
ATOM     10  C   UNL     1      13.046   9.003  16.437  0.00  0.00    +0.130 C 
ATOM     11  C   UNL     1      13.184   7.934  17.504  0.00  0.00    +0.117 C 
ENDROOT
BRANCH   8  13
ATOM      2  O   UNL     1      13.390  12.363  18.819  0.00  0.00    -0.336 OA
ATOM      4  N   UNL     1      12.434  11.109  20.411  0.00  0.00    -0.190 NA
ATOM      7  N   UNL     1      12.745  13.256  19.683  0.00  0.00    -0.056 NA
ATOM     13  C   UNL     1      13.157  11.121  19.319  0.00  0.00    +0.245 A 
ATOM     15  C   UNL     1      12.205  12.442  20.595  0.00  0.00    +0.202 A 
BRANCH  15  16
ATOM     16  C   UNL     1      11.431  12.927  21.701  0.00  0.00    +0.023 A 
ATOM     19  C   UNL     1      11.551  12.326  22.954  0.00  0.00    +0.015 A 
ATOM     20  C   UNL     1      10.560  14.002  21.523  0.00  0.00    +0.012 A 
ATOM     21  C   UNL     1      10.799  12.799  24.029  0.00  0.00    -0.050 A 
ATOM     22  C   UNL     1       9.808  14.475  22.600  0.00  0.00    +0.001 A 
ATOM     23  C   UNL     1       9.928  13.873  23.853  0.00  0.00    +0.003 A 
ATOM     24  C   UNL     1      10.927  12.155  25.369  0.00  0.00    +0.044 C 
ENDBRANCH  15  16
ENDBRANCH   8  13
BRANCH  10   1
ATOM      1  O   UNL     1      13.641   8.608  15.216  0.00  0.00    -0.390 OA
ATOM     25  H   UNL     1      13.022   8.837  14.502  0.00  0.00    +0.210 HD
ENDBRANCH  10   1
BRANCH   3  12
ATOM     12  C   UNL     1      13.392   7.959  19.916  0.00  0.00    +0.159 C 
BRANCH  12  14
ATOM      5  N   UNL     1      11.836   8.589  21.776  0.00  0.00    -0.347 N 
ATOM      6  N   UNL     1      11.457   6.619  20.826  0.00  0.00    -0.239 NA
ATOM     14  C   UNL     1      12.222   7.688  20.824  0.00  0.00    +0.121 A 
ATOM     17  C   UNL     1      10.758   8.060  22.428  0.00  0.00    +0.104 A 
ATOM     18  C   UNL     1      10.544   6.844  21.825  0.00  0.00    +0.130 A 
ATOM     26  H   UNL     1      12.266   9.485  21.965  0.00  0.00    +0.167 HD
ENDBRANCH  12  14
ENDBRANCH   3  12
TORSDOF 5
ENDMDL
MODEL 6
REMARK VINA RESULT:      -6.5      1.974      5.903
REMARK  Name = 26743880
REMARK  6 active torsions:
REMARK  status: ('A' for Active; 'I' for Inactive)
REMARK    1  A    between atoms: O_1  and  C_10
REMARK    2  A    between atoms: N_3  and  C_12
REMARK    3  A    between atoms: C_8  and  C_13
REMARK    4  A    between atoms: C_12  and  C_14
REMARK    5  A    between atoms: C_15  and  C_16
REMARK    6  A    between atoms: C_21  and  C_24
REMARK                            x       y       z     vdW  Elec       q    Type
REMARK                         _______ _______ _______ _____ _____    ______ ____
ROOT
ATOM      3  N   UNL     1      13.314   7.916  20.636  0.00  0.00    -0.282 NA
ATOM      8  C   UNL     1      12.463   7.789  19.436  0.00  0.00    +0.149 C 
ATOM      9  C   UNL     1      11.130   8.454  19.827  0.00  0.00    +0.061 C 
ATOM     10  C   UNL     1      11.313   8.881  21.278  0.00  0.00    +0.130 C 
ATOM     11  C   UNL     1      12.410   7.963  21.783  0.00  0.00    +0.117 C 
ENDROOT
BRANCH   8  13
ATOM      2  O   UNL     1      12.976   7.715  17.047  0.00  0.00    -0.336 OA
ATOM      4  N   UNL     1      13.739   9.545  18.090  0.00  0.00    -0.190 NA
ATOM      7  N   UNL     1      13.624   8.480  16.069  0.00  0.00    -0.056 NA
ATOM     13  C   UNL     1      13.090   8.414  18.207  0.00  0.00    +0.245 A 
ATOM     15  C   UNL     1      14.046   9.542  16.761  0.00  0.00    +0.202 A 
BRANCH  15  16
ATOM     16  C   UNL     1      14.777  10.617  16.154  0.00  0.00    +0.023 A 
ATOM     19  C   UNL     1      14.944  10.653  14.770  0.00  0.00    +0.015 A 
ATOM     20  C   UNL     1      15.320  11.627  16.949  0.00  0.00    +0.012 A 
ATOM     21  C   UNL     1      15.654  11.699  14.180  0.00  0.00    -0.050 A 
ATOM     22  C   UNL     1      16.030  12.673  16.359  0.00  0.00    +0.001 A 
ATOM     23  C   UNL     1      16.197  12.709  14.974  0.00  0.00    +0.003 A 
ATOM     24  C   UNL     1      15.833  11.737  12.699  0.00  0.00    +0.044 C 
ENDBRANCH  15  16
ENDBRANCH   8  13
BRANCH  10   1
ATOM      1  O   UNL     1      10.112   8.715  22.005  0.00  0.00    -0.390 OA
ATOM     25  H   UNL     1      10.131   7.828  22.403  0.00  0.00    +0.210 HD
ENDBRANCH  10   1
BRANCH   3  12
ATOM     12  C   UNL     1      14.299   6.849  20.757  0.00  0.00    +0.159 C 
BRANCH  12  14
ATOM      5  N   UNL     1      16.716   6.595  21.366  0.00  0.00    -0.347 N 
ATOM      6  N   UNL     1      16.099   8.615  20.682  0.00  0.00    -0.239 NA
ATOM     14  C   UNL     1      15.695   7.388  20.924  0.00  0.00    +0.121 A 
ATOM     17  C   UNL     1      17.844   7.365  21.411  0.00  0.00    +0.104 A 
ATOM     18  C   UNL     1      17.438   8.608  20.985  0.00  0.00    +0.130 A 
ATOM     26  H   UNL     1      16.652   5.616  21.614  0.00  0.00    +0.167 HD
ENDBRANCH  12  14
ENDBRANCH   3  12
TORSDOF 5
ENDMDL
MODEL 7
REMARK VINA RESULT:      -6.4      1.910      3.560
REMARK  Name = 26743880
REMARK  6 active torsions:
REMARK  status: ('A' for Active; 'I' for Inactive)
REMARK    1  A    between atoms: O_1  and  C_10
REMARK    2  A    between atoms: N_3  and  C_12
REMARK    3  A    between atoms: C_8  and  C_13
REMARK    4  A    between atoms: C_12  and  C_14
REMARK    5  A    between atoms: C_15  and  C_16
REMARK    6  A    between atoms: C_21  and  C_24
REMARK                            x       y       z     vdW  Elec       q    Type
REMARK                         _______ _______ _______ _____ _____    ______ ____
ROOT
ATOM      3  N   UNL     1      13.192   9.123  18.778  0.00  0.00    -0.282 NA
ATOM      8  C   UNL     1      13.582   7.710  18.595  0.00  0.00    +0.149 C 
ATOM      9  C   UNL     1      13.908   7.583  17.095  0.00  0.00    +0.061 C 
ATOM     10  C   UNL     1      13.626   8.963  16.512  0.00  0.00    +0.130 C 
ATOM     11  C   UNL     1      12.648   9.572  17.498  0.00  0.00    +0.117 C 
ENDROOT
BRANCH   8  13
ATOM      2  O   UNL     1      14.466   6.410  20.466  0.00  0.00    -0.336 OA
ATOM      4  N   UNL     1      15.990   7.696  19.445  0.00  0.00    -0.190 NA
ATOM      7  N   UNL     1      15.673   6.195  21.142  0.00  0.00    -0.056 NA
ATOM     13  C   UNL     1      14.741   7.306  19.482  0.00  0.00    +0.245 A 
ATOM     15  C   UNL     1      16.524   6.987  20.482  0.00  0.00    +0.202 A 
BRANCH  15  16
ATOM     16  C   UNL     1      17.910   7.094  20.833  0.00  0.00    +0.023 A 
ATOM     19  C   UNL     1      18.797   6.072  20.492  0.00  0.00    +0.015 A 
ATOM     20  C   UNL     1      18.372   8.220  21.514  0.00  0.00    +0.012 A 
ATOM     21  C   UNL     1      20.145   6.176  20.834  0.00  0.00    -0.050 A 
ATOM     22  C   UNL     1      19.721   8.323  21.855  0.00  0.00    +0.001 A 
ATOM     23  C   UNL     1      20.608   7.301  21.514  0.00  0.00    +0.003 A 
ATOM     24  C   UNL     1      21.093   5.083  20.470  0.00  0.00    +0.044 C 
ENDBRANCH  15  16
ENDBRANCH   8  13
BRANCH  10   1
ATOM      1  O   UNL     1      13.070   8.856  15.217  0.00  0.00    -0.390 OA
ATOM     25  H   UNL     1      12.899   7.914  15.049  0.00  0.00    +0.210 HD
ENDBRANCH  10   1
BRANCH   3  12
ATOM     12  C   UNL     1      12.252   9.322  19.874  0.00  0.00    +0.159 C 
BRANCH  12  14
ATOM      5  N   UNL     1      14.111   9.823  21.477  0.00  0.00    -0.347 N 
ATOM      6  N   UNL     1      12.317  11.119  21.643  0.00  0.00    -0.239 NA
ATOM     14  C   UNL     1      12.863  10.110  21.002  0.00  0.00    +0.121 A 
ATOM     17  C   UNL     1      14.378  10.703  22.488  0.00  0.00    +0.104 A 
ATOM     18  C   UNL     1      13.255  11.493  22.571  0.00  0.00    +0.130 A 
ATOM     26  H   UNL     1      14.728   9.093  21.144  0.00  0.00    +0.167 HD
ENDBRANCH  12  14
ENDBRANCH   3  12
TORSDOF 5
ENDMDL
MODEL 8
REMARK VINA RESULT:      -6.3     25.457     28.552
REMARK  Name = 26743880
REMARK  6 active torsions:
REMARK  status: ('A' for Active; 'I' for Inactive)
REMARK    1  A    between atoms: O_1  and  C_10
REMARK    2  A    between atoms: N_3  and  C_12
REMARK    3  A    between atoms: C_8  and  C_13
REMARK    4  A    between atoms: C_12  and  C_14
REMARK    5  A    between atoms: C_15  and  C_16
REMARK    6  A    between atoms: C_21  and  C_24
REMARK                            x       y       z     vdW  Elec       q    Type
REMARK                         _______ _______ _______ _____ _____    ______ ____
ROOT
ATOM      3  N   UNL     1      -3.467 -10.626  14.702  0.00  0.00    -0.282 NA
ATOM      8  C   UNL     1      -3.523 -11.329  16.000  0.00  0.00    +0.149 C 
ATOM      9  C   UNL     1      -2.190 -10.986  16.691  0.00  0.00    +0.061 C 
ATOM     10  C   UNL     1      -1.434 -10.126  15.685  0.00  0.00    +0.130 C 
ATOM     11  C   UNL     1      -2.052 -10.511  14.354  0.00  0.00    +0.117 C 
ENDROOT
BRANCH   8  13
ATOM      2  O   UNL     1      -4.577 -10.966  18.175  0.00  0.00    -0.336 OA
ATOM      4  N   UNL     1      -5.919 -10.554  16.429  0.00  0.00    -0.190 NA
ATOM      7  N   UNL     1      -5.806 -10.566  18.714  0.00  0.00    -0.056 NA
ATOM     13  C   UNL     1      -4.729 -10.932  16.825  0.00  0.00    +0.245 A 
ATOM     15  C   UNL     1      -6.544 -10.340  17.623  0.00  0.00    +0.202 A 
BRANCH  15  16
ATOM     16  C   UNL     1      -7.908  -9.901  17.691  0.00  0.00    +0.023 A 
ATOM     19  C   UNL     1      -8.334  -8.823  16.915  0.00  0.00    +0.015 A 
ATOM     20  C   UNL     1      -8.809 -10.554  18.533  0.00  0.00    +0.012 A 
ATOM     21  C   UNL     1      -9.660  -8.396  16.982  0.00  0.00    -0.050 A 
ATOM     22  C   UNL     1     -10.136 -10.128  18.598  0.00  0.00    +0.001 A 
ATOM     23  C   UNL     1     -10.561  -9.049  17.823  0.00  0.00    +0.003 A 
ATOM     24  C   UNL     1     -10.115  -7.243  16.152  0.00  0.00    +0.044 C 
ENDBRANCH  15  16
ENDBRANCH   8  13
BRANCH  10   1
ATOM      1  O   UNL     1      -0.049 -10.411  15.724  0.00  0.00    -0.390 OA
ATOM     25  H   UNL     1       0.337 -10.099  14.888  0.00  0.00    +0.210 HD
ENDBRANCH  10   1
BRANCH   3  12
ATOM     12  C   UNL     1      -4.236 -11.288  13.657  0.00  0.00    +0.159 C 
BRANCH  12  14
ATOM      5  N   UNL     1      -6.338  -9.980  13.271  0.00  0.00    -0.347 N 
ATOM      6  N   UNL     1      -4.729  -9.689  11.769  0.00  0.00    -0.239 NA
ATOM     14  C   UNL     1      -5.074 -10.314  12.872  0.00  0.00    +0.121 A 
ATOM     17  C   UNL     1      -6.831  -9.086  12.362  0.00  0.00    +0.104 A 
ATOM     18  C   UNL     1      -5.820  -8.922  11.445  0.00  0.00    +0.130 A 
ATOM     26  H   UNL     1      -6.822 -10.328  14.088  0.00  0.00    +0.167 HD
ENDBRANCH  12  14
ENDBRANCH   3  12
TORSDOF 5
ENDMDL
MODEL 9
REMARK VINA RESULT:      -6.3     26.737     28.358
REMARK  Name = 26743880
REMARK  6 active torsions:
REMARK  status: ('A' for Active; 'I' for Inactive)
REMARK    1  A    between atoms: O_1  and  C_10
REMARK    2  A    between atoms: N_3  and  C_12
REMARK    3  A    between atoms: C_8  and  C_13
REMARK    4  A    between atoms: C_12  and  C_14
REMARK    5  A    between atoms: C_15  and  C_16
REMARK    6  A    between atoms: C_21  and  C_24
REMARK                            x       y       z     vdW  Elec       q    Type
REMARK                         _______ _______ _______ _____ _____    ______ ____
ROOT
ATOM      3  N   UNL     1      -4.124 -11.447  10.483  0.00  0.00    -0.282 NA
ATOM      8  C   UNL     1      -3.093 -10.562  11.064  0.00  0.00    +0.149 C 
ATOM      9  C   UNL     1      -3.399  -9.169  10.484  0.00  0.00    +0.061 C 
ATOM     10  C   UNL     1      -4.587  -9.381   9.553  0.00  0.00    +0.130 C 
ATOM     11  C   UNL     1      -4.505 -10.854   9.203  0.00  0.00    +0.117 C 
ENDROOT
BRANCH   8  13
ATOM      2  O   UNL     1      -1.882 -10.558  13.187  0.00  0.00    -0.336 OA
ATOM      4  N   UNL     1      -4.111 -10.612  13.406  0.00  0.00    -0.190 NA
ATOM      7  N   UNL     1      -2.138 -10.580  14.564  0.00  0.00    -0.056 NA
ATOM     13  C   UNL     1      -3.097 -10.579  12.578  0.00  0.00    +0.245 A 
ATOM     15  C   UNL     1      -3.474 -10.611  14.612  0.00  0.00    +0.202 A 
BRANCH  15  16
ATOM     16  C   UNL     1      -4.200 -10.642  15.849  0.00  0.00    +0.023 A 
ATOM     19  C   UNL     1      -3.669 -11.307  16.954  0.00  0.00    +0.015 A 
ATOM     20  C   UNL     1      -5.438 -10.006  15.945  0.00  0.00    +0.012 A 
ATOM     21  C   UNL     1      -4.375 -11.336  18.156  0.00  0.00    -0.050 A 
ATOM     22  C   UNL     1      -6.144 -10.035  17.149  0.00  0.00    +0.001 A 
ATOM     23  C   UNL     1      -5.612 -10.700  18.254  0.00  0.00    +0.003 A 
ATOM     24  C   UNL     1      -3.807 -12.047  19.338  0.00  0.00    +0.044 C 
ENDBRANCH  15  16
ENDBRANCH   8  13
BRANCH  10   1
ATOM      1  O   UNL     1      -4.478  -8.560   8.406  0.00  0.00    -0.390 OA
ATOM     25  H   UNL     1      -4.564  -9.135   7.627  0.00  0.00    +0.210 HD
ENDBRANCH  10   1
BRANCH   3  12
ATOM     12  C   UNL     1      -3.681 -12.827  10.339  0.00  0.00    +0.159 C 
BRANCH  12  14
ATOM      5  N   UNL     1      -4.724 -13.656  12.461  0.00  0.00    -0.347 N 
ATOM      6  N   UNL     1      -2.567 -14.113  12.202  0.00  0.00    -0.239 NA
ATOM     14  C   UNL     1      -3.620 -13.540  11.663  0.00  0.00    +0.121 A 
ATOM     17  C   UNL     1      -4.351 -14.346  13.580  0.00  0.00    +0.104 A 
ATOM     18  C   UNL     1      -3.015 -14.616  13.397  0.00  0.00    +0.130 A 
ATOM     26  H   UNL     1      -5.649 -13.298  12.261  0.00  0.00    +0.167 HD
ENDBRANCH  12  14
ENDBRANCH   3  12
TORSDOF 5
ENDMDL
MODEL 10
REMARK VINA RESULT:      -6.3      1.685      2.280
REMARK  Name = 26743880
REMARK  6 active torsions:
REMARK  status: ('A' for Active; 'I' for Inactive)
REMARK    1  A    between atoms: O_1  and  C_10
REMARK    2  A    between atoms: N_3  and  C_12
REMARK    3  A    between atoms: C_8  and  C_13
REMARK    4  A    between atoms: C_12  and  C_14
REMARK    5  A    between atoms: C_15  and  C_16
REMARK    6  A    between atoms: C_21  and  C_24
REMARK                            x       y       z     vdW  Elec       q    Type
REMARK                         _______ _______ _______ _____ _____    ______ ____
ROOT
ATOM      3  N   UNL     1      13.957   7.536  18.375  0.00  0.00    -0.282 NA
ATOM      8  C   UNL     1      14.654   7.630  19.675  0.00  0.00    +0.149 C 
ATOM      9  C   UNL     1      13.690   6.980  20.685  0.00  0.00    +0.061 C 
ATOM     10  C   UNL     1      12.463   6.594  19.868  0.00  0.00    +0.130 C 
ATOM     11  C   UNL     1      12.526   7.525  18.671  0.00  0.00    +0.117 C 
ENDROOT
BRANCH   8  13
ATOM      2  O   UNL     1      16.219   6.029  18.696  0.00  0.00    -0.336 OA
ATOM      4  N   UNL     1      17.047   7.168  20.438  0.00  0.00    -0.190 NA
ATOM      7  N   UNL     1      17.528   5.567  18.877  0.00  0.00    -0.056 NA
ATOM     13  C   UNL     1      16.016   6.969  19.655  0.00  0.00    +0.245 A 
ATOM     15  C   UNL     1      17.950   6.286  19.921  0.00  0.00    +0.202 A 
BRANCH  15  16
ATOM     16  C   UNL     1      19.267   6.147  20.472  0.00  0.00    +0.023 A 
ATOM     19  C   UNL     1      19.894   4.901  20.476  0.00  0.00    +0.015 A 
ATOM     20  C   UNL     1      19.921   7.259  21.003  0.00  0.00    +0.012 A 
ATOM     21  C   UNL     1      21.175   4.766  21.011  0.00  0.00    -0.050 A 
ATOM     22  C   UNL     1      21.203   7.123  21.538  0.00  0.00    +0.001 A 
ATOM     23  C   UNL     1      21.830   5.877  21.542  0.00  0.00    +0.003 A 
ATOM     24  C   UNL     1      21.845   3.433  21.015  0.00  0.00    +0.044 C 
ENDBRANCH  15  16
ENDBRANCH   8  13
BRANCH  10   1
ATOM      1  O   UNL     1      11.280   6.784  20.620  0.00  0.00    -0.390 OA
ATOM     25  H   UNL     1      11.141   7.743  20.708  0.00  0.00    +0.210 HD
ENDBRANCH  10   1
BRANCH   3  12
ATOM     12  C   UNL     1      14.318   8.604  17.452  0.00  0.00    +0.159 C 
BRANCH  12  14
ATOM      5  N   UNL     1      15.261  10.597  18.643  0.00  0.00    -0.347 N 
ATOM      6  N   UNL     1      13.090  10.683  18.184  0.00  0.00    -0.239 NA
ATOM     14  C   UNL     1      14.186   9.963  18.086  0.00  0.00    +0.121 A 
ATOM     17  C   UNL     1      14.823  11.797  19.128  0.00  0.00    +0.104 A 
ATOM     18  C   UNL     1      13.481  11.827  18.834  0.00  0.00    +0.130 A 
ATOM     26  H   UNL     1      16.208  10.245  18.687  0.00  0.00    +0.167 HD
ENDBRANCH  12  14
ENDBRANCH   3  12
TORSDOF 5
ENDMDL
