MODEL 1
REMARK VINA RESULT:      -6.1      0.000      0.000
REMARK  Name = 38027722
REMARK  14 active torsions:
REMARK  status: ('A' for Active; 'I' for Inactive)
REMARK    1  A    between atoms: S_1  and  N_6
REMARK    2  A    between atoms: S_1  and  C_21
REMARK    3  A    between atoms: O_5  and  C_28
REMARK    4  A    between atoms: O_5  and  C_29
REMARK    5  A    between atoms: N_6  and  C_15
REMARK    6  A    between atoms: N_7  and  C_22
REMARK    7  A    between atoms: C_8  and  C_12
REMARK    8  A    between atoms: C_9  and  C_15
REMARK    9  A    between atoms: C_11  and  C_16
REMARK   10  A    between atoms: C_12  and  C_17
REMARK   11  A    between atoms: C_12  and  C_18
REMARK   12  A    between atoms: C_13  and  C_19
REMARK   13  A    between atoms: C_16  and  C_20
REMARK   14  A    between atoms: C_22  and  C_23
REMARK                            x       y       z     vdW  Elec       q    Type
REMARK                         _______ _______ _______ _____ _____    ______ ____
ROOT
ATOM      8  C   UNL     1      -5.707 -10.645  15.183  0.00  0.00    +0.000 C 
ATOM      9  C   UNL     1      -6.545 -10.589  16.485  0.00  0.00    +0.030 C 
ATOM     10  C   UNL     1      -4.776 -11.867  15.196  0.00  0.00    +0.012 C 
ATOM     11  C   UNL     1      -3.811 -11.852  16.397  0.00  0.00    +0.023 C 
ATOM     13  C   UNL     1      -4.530 -11.536  17.692  0.00  0.00    -0.073 C 
ATOM     14  C   UNL     1      -5.756 -10.983  17.712  0.00  0.00    -0.023 C 
ATOM     19  C   UNL     1      -3.825 -11.910  18.967  0.00  0.00    +0.039 C 
ENDROOT
BRANCH   8  12
ATOM     12  C   UNL     1      -6.596 -10.683  13.937  0.00  0.00    -0.013 C 
ATOM     17  C   UNL     1      -6.129  -9.647  12.918  0.00  0.00    +0.007 C 
ATOM     18  C   UNL     1      -6.597 -12.080  13.325  0.00  0.00    +0.007 C 
ENDBRANCH   8  12
BRANCH   9  15
ATOM     15  C   UNL     1      -7.151  -9.197  16.694  0.00  0.00    +0.113 C 
BRANCH  15   6
ATOM      6  N   UNL     1      -8.158  -9.267  17.766  0.00  0.00    -0.194 NA
ATOM     30  H   UNL     1      -7.940  -9.959  18.495  0.00  0.00    +0.148 HD
BRANCH   6   1
ATOM      1  S   UNL     1      -9.812  -9.111  17.369  0.00  0.00    +0.027 S 
ATOM      3  O   UNL     1     -10.110  -9.900  16.189  0.00  0.00    -0.158 OA
ATOM      4  O   UNL     1     -10.172  -7.708  17.433  0.00  0.00    -0.158 OA
ATOM     21  C   UNL     1     -10.559  -9.916  18.768  0.00  0.00    +0.214 C 
ENDBRANCH   6   1
ENDBRANCH  15   6
ENDBRANCH   9  15
BRANCH  11  16
ATOM     16  C   UNL     1      -2.651 -10.879  16.160  0.00  0.00    +0.103 C 
BRANCH  16  20
ATOM      2  O   UNL     1      -1.269 -12.181  14.660  0.00  0.00    -0.276 OA
ATOM      7  N   UNL     1      -2.104 -10.128  13.958  0.00  0.00    -0.311 N 
ATOM     20  C   UNL     1      -1.926 -11.164  14.864  0.00  0.00    +0.214 C 
ATOM     31  H   UNL     1      -2.668  -9.326  14.218  0.00  0.00    +0.149 HD
BRANCH   7  22
ATOM     22  C   UNL     1      -1.522 -10.130  12.635  0.00  0.00    +0.139 C 
BRANCH  22  23
ATOM     23  C   UNL     1      -2.549 -10.379  11.569  0.00  0.00    -0.030 A 
ATOM     24  C   UNL     1      -2.865  -9.372  10.656  0.00  0.00    +0.009 A 
ATOM     25  C   UNL     1      -3.186 -11.617  11.490  0.00  0.00    +0.009 A 
ATOM     26  C   UNL     1      -3.817  -9.604   9.664  0.00  0.00    +0.046 A 
ATOM     27  C   UNL     1      -4.139 -11.849  10.497  0.00  0.00    +0.046 A 
ATOM     28  C   UNL     1      -4.454 -10.842   9.584  0.00  0.00    +0.120 A 
BRANCH  28   5
ATOM      5  O   UNL     1      -5.382 -11.069   8.615  0.00  0.00    -0.495 OA
ATOM     29  C   UNL     1      -5.263 -10.309   7.413  0.00  0.00    +0.277 C 
ENDBRANCH  28   5
ENDBRANCH  22  23
ENDBRANCH   7  22
ENDBRANCH  16  20
ENDBRANCH  11  16
TORSDOF 9
ENDMDL
MODEL 2
REMARK VINA RESULT:      -6.0      2.897      7.358
REMARK  Name = 38027722
REMARK  14 active torsions:
REMARK  status: ('A' for Active; 'I' for Inactive)
REMARK    1  A    between atoms: S_1  and  N_6
REMARK    2  A    between atoms: S_1  and  C_21
REMARK    3  A    between atoms: O_5  and  C_28
REMARK    4  A    between atoms: O_5  and  C_29
REMARK    5  A    between atoms: N_6  and  C_15
REMARK    6  A    between atoms: N_7  and  C_22
REMARK    7  A    between atoms: C_8  and  C_12
REMARK    8  A    between atoms: C_9  and  C_15
REMARK    9  A    between atoms: C_11  and  C_16
REMARK   10  A    between atoms: C_12  and  C_17
REMARK   11  A    between atoms: C_12  and  C_18
REMARK   12  A    between atoms: C_13  and  C_19
REMARK   13  A    between atoms: C_16  and  C_20
REMARK   14  A    between atoms: C_22  and  C_23
REMARK                            x       y       z     vdW  Elec       q    Type
REMARK                         _______ _______ _______ _____ _____    ______ ____
ROOT
ATOM      8  C   UNL     1      -5.011 -10.651  10.973  0.00  0.00    +0.000 C 
ATOM      9  C   UNL     1      -4.540  -9.719   9.828  0.00  0.00    +0.030 C 
ATOM     10  C   UNL     1      -4.417 -10.195  12.314  0.00  0.00    +0.012 C 
ATOM     11  C   UNL     1      -2.876 -10.184  12.295  0.00  0.00    +0.023 C 
ATOM     13  C   UNL     1      -2.333  -9.512  11.051  0.00  0.00    -0.073 C 
ATOM     14  C   UNL     1      -3.094  -9.301   9.963  0.00  0.00    -0.023 C 
ATOM     19  C   UNL     1      -0.904  -9.047  11.102  0.00  0.00    +0.039 C 
ENDROOT
BRANCH   8  12
ATOM     12  C   UNL     1      -6.538 -10.701  11.073  0.00  0.00    -0.013 C 
ATOM     17  C   UNL     1      -6.966 -11.552  12.265  0.00  0.00    +0.007 C 
ATOM     18  C   UNL     1      -7.112  -9.292  11.180  0.00  0.00    +0.007 C 
ENDBRANCH   8  12
BRANCH   9  15
ATOM     15  C   UNL     1      -4.756 -10.373   8.458  0.00  0.00    +0.113 C 
BRANCH  15   6
ATOM      6  N   UNL     1      -5.291  -9.369   7.525  0.00  0.00    -0.194 NA
ATOM     30  H   UNL     1      -4.808  -8.461   7.570  0.00  0.00    +0.148 HD
BRANCH   6   1
ATOM      1  S   UNL     1      -6.976  -9.293   7.254  0.00  0.00    +0.027 S 
ATOM      3  O   UNL     1      -7.510  -8.071   7.824  0.00  0.00    -0.158 OA
ATOM      4  O   UNL     1      -7.555 -10.581   7.585  0.00  0.00    -0.158 OA
ATOM     21  C   UNL     1      -7.014  -9.133   5.483  0.00  0.00    +0.214 C 
ENDBRANCH   6   1
ENDBRANCH  15   6
ENDBRANCH   9  15
BRANCH  11  16
ATOM     16  C   UNL     1      -2.313 -11.602  12.445  0.00  0.00    +0.103 C 
BRANCH  16  20
ATOM      2  O   UNL     1      -2.265 -13.236  14.228  0.00  0.00    -0.276 OA
ATOM      7  N   UNL     1      -2.316 -10.972  14.750  0.00  0.00    -0.311 N 
ATOM     20  C   UNL     1      -2.294 -12.057  13.886  0.00  0.00    +0.214 C 
ATOM     31  H   UNL     1      -2.338 -10.030  14.372  0.00  0.00    +0.149 HD
BRANCH   7  22
ATOM     22  C   UNL     1      -2.307 -11.109  16.189  0.00  0.00    +0.139 C 
BRANCH  22  23
ATOM     23  C   UNL     1      -3.666 -10.883  16.784  0.00  0.00    -0.030 A 
ATOM     24  C   UNL     1      -3.970 -11.396  18.045  0.00  0.00    +0.009 A 
ATOM     25  C   UNL     1      -4.625 -10.157  16.077  0.00  0.00    +0.009 A 
ATOM     26  C   UNL     1      -5.232 -11.183  18.600  0.00  0.00    +0.046 A 
ATOM     27  C   UNL     1      -5.887  -9.944  16.632  0.00  0.00    +0.046 A 
ATOM     28  C   UNL     1      -6.191 -10.457  17.893  0.00  0.00    +0.120 A 
BRANCH  28   5
ATOM      5  O   UNL     1      -7.422 -10.249  18.434  0.00  0.00    -0.495 OA
ATOM     29  C   UNL     1      -8.437  -9.751  17.564  0.00  0.00    +0.277 C 
ENDBRANCH  28   5
ENDBRANCH  22  23
ENDBRANCH   7  22
ENDBRANCH  16  20
ENDBRANCH  11  16
TORSDOF 9
ENDMDL
MODEL 3
REMARK VINA RESULT:      -5.6     19.475     22.192
REMARK  Name = 38027722
REMARK  14 active torsions:
REMARK  status: ('A' for Active; 'I' for Inactive)
REMARK    1  A    between atoms: S_1  and  N_6
REMARK    2  A    between atoms: S_1  and  C_21
REMARK    3  A    between atoms: O_5  and  C_28
REMARK    4  A    between atoms: O_5  and  C_29
REMARK    5  A    between atoms: N_6  and  C_15
REMARK    6  A    between atoms: N_7  and  C_22
REMARK    7  A    between atoms: C_8  and  C_12
REMARK    8  A    between atoms: C_9  and  C_15
REMARK    9  A    between atoms: C_11  and  C_16
REMARK   10  A    between atoms: C_12  and  C_17
REMARK   11  A    between atoms: C_12  and  C_18
REMARK   12  A    between atoms: C_13  and  C_19
REMARK   13  A    between atoms: C_16  and  C_20
REMARK   14  A    between atoms: C_22  and  C_23
REMARK                            x       y       z     vdW  Elec       q    Type
REMARK                         _______ _______ _______ _____ _____    ______ ____
ROOT
ATOM      8  C   UNL     1     -13.356   8.959  20.971  0.00  0.00    +0.000 C 
ATOM      9  C   UNL     1     -13.648   8.560  22.440  0.00  0.00    +0.030 C 
ATOM     10  C   UNL     1     -12.155   9.914  20.903  0.00  0.00    +0.012 C 
ATOM     11  C   UNL     1     -12.384  11.198  21.722  0.00  0.00    +0.023 C 
ATOM     13  C   UNL     1     -12.930  10.896  23.102  0.00  0.00    -0.073 C 
ATOM     14  C   UNL     1     -13.480   9.708  23.408  0.00  0.00    -0.023 C 
ATOM     19  C   UNL     1     -12.791  11.978  24.138  0.00  0.00    +0.039 C 
ENDROOT
BRANCH   8  12
ATOM     12  C   UNL     1     -13.096   7.734  20.090  0.00  0.00    -0.013 C 
ATOM     17  C   UNL     1     -13.364   8.065  18.625  0.00  0.00    +0.007 C 
ATOM     18  C   UNL     1     -11.667   7.236  20.279  0.00  0.00    +0.007 C 
ENDBRANCH   8  12
BRANCH   9  15
ATOM     15  C   UNL     1     -15.055   7.972  22.585  0.00  0.00    +0.113 C 
BRANCH  15   6
ATOM      6  N   UNL     1     -14.995   6.788  23.456  0.00  0.00    -0.194 NA
ATOM     30  H   UNL     1     -14.474   6.941  24.330  0.00  0.00    +0.148 HD
BRANCH   6   1
ATOM      1  S   UNL     1     -14.812   5.241  22.753  0.00  0.00    +0.027 S 
ATOM      3  O   UNL     1     -15.499   4.251  23.560  0.00  0.00    -0.158 OA
ATOM      4  O   UNL     1     -13.420   5.063  22.386  0.00  0.00    -0.158 OA
ATOM     21  C   UNL     1     -15.735   5.457  21.249  0.00  0.00    +0.214 C 
ENDBRANCH   6   1
ENDBRANCH  15   6
ENDBRANCH   9  15
BRANCH  11  16
ATOM     16  C   UNL     1     -13.296  12.176  20.972  0.00  0.00    +0.103 C 
BRANCH  16  20
ATOM      2  O   UNL     1     -13.753  12.098  18.597  0.00  0.00    -0.276 OA
ATOM      7  N   UNL     1     -11.599  12.569  19.335  0.00  0.00    -0.311 N 
ATOM     20  C   UNL     1     -12.944  12.270  19.505  0.00  0.00    +0.214 C 
ATOM     31  H   UNL     1     -11.007  12.695  20.149  0.00  0.00    +0.149 HD
BRANCH   7  22
ATOM     22  C   UNL     1     -10.983  12.717  18.036  0.00  0.00    +0.139 C 
BRANCH  22  23
ATOM     23  C   UNL     1     -10.817  11.399  17.339  0.00  0.00    -0.030 A 
ATOM     24  C   UNL     1     -11.281  11.236  16.033  0.00  0.00    +0.009 A 
ATOM     25  C   UNL     1     -10.197  10.336  17.995  0.00  0.00    +0.009 A 
ATOM     26  C   UNL     1     -11.123  10.012  15.384  0.00  0.00    +0.046 A 
ATOM     27  C   UNL     1     -10.040   9.111  17.346  0.00  0.00    +0.046 A 
ATOM     28  C   UNL     1     -10.503   8.949  16.040  0.00  0.00    +0.120 A 
BRANCH  28   5
ATOM      5  O   UNL     1     -10.349   7.754  15.407  0.00  0.00    -0.495 OA
ATOM     29  C   UNL     1     -10.439   7.760  13.982  0.00  0.00    +0.277 C 
ENDBRANCH  28   5
ENDBRANCH  22  23
ENDBRANCH   7  22
ENDBRANCH  16  20
ENDBRANCH  11  16
TORSDOF 9
ENDMDL
MODEL 4
REMARK VINA RESULT:      -5.5      1.797      2.199
REMARK  Name = 38027722
REMARK  14 active torsions:
REMARK  status: ('A' for Active; 'I' for Inactive)
REMARK    1  A    between atoms: S_1  and  N_6
REMARK    2  A    between atoms: S_1  and  C_21
REMARK    3  A    between atoms: O_5  and  C_28
REMARK    4  A    between atoms: O_5  and  C_29
REMARK    5  A    between atoms: N_6  and  C_15
REMARK    6  A    between atoms: N_7  and  C_22
REMARK    7  A    between atoms: C_8  and  C_12
REMARK    8  A    between atoms: C_9  and  C_15
REMARK    9  A    between atoms: C_11  and  C_16
REMARK   10  A    between atoms: C_12  and  C_17
REMARK   11  A    between atoms: C_12  and  C_18
REMARK   12  A    between atoms: C_13  and  C_19
REMARK   13  A    between atoms: C_16  and  C_20
REMARK   14  A    between atoms: C_22  and  C_23
REMARK                            x       y       z     vdW  Elec       q    Type
REMARK                         _______ _______ _______ _____ _____    ______ ____
ROOT
ATOM      8  C   UNL     1      -6.305 -11.138  15.935  0.00  0.00    +0.000 C 
ATOM      9  C   UNL     1      -6.938 -11.309  17.338  0.00  0.00    +0.030 C 
ATOM     10  C   UNL     1      -5.139 -12.120  15.749  0.00  0.00    +0.012 C 
ATOM     11  C   UNL     1      -4.038 -11.925  16.809  0.00  0.00    +0.023 C 
ATOM     13  C   UNL     1      -4.613 -11.815  18.205  0.00  0.00    -0.073 C 
ATOM     14  C   UNL     1      -5.914 -11.552  18.423  0.00  0.00    -0.023 C 
ATOM     19  C   UNL     1      -3.668 -12.058  19.349  0.00  0.00    +0.039 C 
ENDROOT
BRANCH   8  12
ATOM     12  C   UNL     1      -7.334 -11.338  14.818  0.00  0.00    -0.013 C 
ATOM     17  C   UNL     1      -8.376 -12.372  15.234  0.00  0.00    +0.007 C 
ATOM     18  C   UNL     1      -8.000 -10.012  14.464  0.00  0.00    +0.007 C 
ENDBRANCH   8  12
BRANCH   9  15
ATOM     15  C   UNL     1      -7.797 -10.095  17.710  0.00  0.00    +0.113 C 
BRANCH  15   6
ATOM      6  N   UNL     1      -8.234 -10.225  19.109  0.00  0.00    -0.194 NA
ATOM     30  H   UNL     1      -7.472 -10.449  19.763  0.00  0.00    +0.148 HD
BRANCH   6   1
ATOM      1  S   UNL     1      -9.736 -10.964  19.450  0.00  0.00    +0.027 S 
ATOM      3  O   UNL     1     -10.488 -10.142  20.379  0.00  0.00    -0.158 OA
ATOM      4  O   UNL     1      -9.508 -12.370  19.721  0.00  0.00    -0.158 OA
ATOM     21  C   UNL     1     -10.523 -10.851  17.859  0.00  0.00    +0.214 C 
ENDBRANCH   6   1
ENDBRANCH  15   6
ENDBRANCH   9  15
BRANCH  11  16
ATOM     16  C   UNL     1      -3.163 -10.710  16.478  0.00  0.00    +0.103 C 
BRANCH  16  20
ATOM      2  O   UNL     1      -1.267 -11.543  15.225  0.00  0.00    -0.276 OA
ATOM      7  N   UNL     1      -2.932 -10.348  14.126  0.00  0.00    -0.311 N 
ATOM     20  C   UNL     1      -2.332 -10.930  15.234  0.00  0.00    +0.214 C 
ATOM     31  H   UNL     1      -3.817  -9.862  14.233  0.00  0.00    +0.149 HD
BRANCH   7  22
ATOM     22  C   UNL     1      -2.358 -10.400  12.801  0.00  0.00    +0.139 C 
BRANCH  22  23
ATOM     23  C   UNL     1      -3.341  -9.981  11.746  0.00  0.00    -0.030 A 
ATOM     24  C   UNL     1      -4.711 -10.051  12.002  0.00  0.00    +0.009 A 
ATOM     25  C   UNL     1      -2.884  -9.520  10.512  0.00  0.00    +0.009 A 
ATOM     26  C   UNL     1      -5.623  -9.658  11.023  0.00  0.00    +0.046 A 
ATOM     27  C   UNL     1      -3.798  -9.128   9.532  0.00  0.00    +0.046 A 
ATOM     28  C   UNL     1      -5.167  -9.197   9.788  0.00  0.00    +0.120 A 
BRANCH  28   5
ATOM      5  O   UNL     1      -6.058  -8.814   8.833  0.00  0.00    -0.495 OA
ATOM     29  C   UNL     1      -7.351  -8.407   9.279  0.00  0.00    +0.277 C 
ENDBRANCH  28   5
ENDBRANCH  22  23
ENDBRANCH   7  22
ENDBRANCH  16  20
ENDBRANCH  11  16
TORSDOF 9
ENDMDL
MODEL 5
REMARK VINA RESULT:      -5.5      3.215      7.886
REMARK  Name = 38027722
REMARK  14 active torsions:
REMARK  status: ('A' for Active; 'I' for Inactive)
REMARK    1  A    between atoms: S_1  and  N_6
REMARK    2  A    between atoms: S_1  and  C_21
REMARK    3  A    between atoms: O_5  and  C_28
REMARK    4  A    between atoms: O_5  and  C_29
REMARK    5  A    between atoms: N_6  and  C_15
REMARK    6  A    between atoms: N_7  and  C_22
REMARK    7  A    between atoms: C_8  and  C_12
REMARK    8  A    between atoms: C_9  and  C_15
REMARK    9  A    between atoms: C_11  and  C_16
REMARK   10  A    between atoms: C_12  and  C_17
REMARK   11  A    between atoms: C_12  and  C_18
REMARK   12  A    between atoms: C_13  and  C_19
REMARK   13  A    between atoms: C_16  and  C_20
REMARK   14  A    between atoms: C_22  and  C_23
REMARK                            x       y       z     vdW  Elec       q    Type
REMARK                         _______ _______ _______ _____ _____    ______ ____
ROOT
ATOM      8  C   UNL     1      -5.523 -10.310  10.562  0.00  0.00    +0.000 C 
ATOM      9  C   UNL     1      -4.814  -9.448   9.488  0.00  0.00    +0.030 C 
ATOM     10  C   UNL     1      -5.021  -9.939  11.966  0.00  0.00    +0.012 C 
ATOM     11  C   UNL     1      -3.499 -10.133  12.110  0.00  0.00    +0.023 C 
ATOM     13  C   UNL     1      -2.742  -9.538  10.941  0.00  0.00    -0.073 C 
ATOM     14  C   UNL     1      -3.348  -9.226   9.782  0.00  0.00    -0.023 C 
ATOM     19  C   UNL     1      -1.278  -9.266  11.150  0.00  0.00    +0.039 C 
ENDROOT
BRANCH   8  12
ATOM     12  C   UNL     1      -7.046 -10.158  10.499  0.00  0.00    -0.013 C 
ATOM     17  C   UNL     1      -7.706 -11.510  10.247  0.00  0.00    +0.007 C 
ATOM     18  C   UNL     1      -7.572  -9.531  11.786  0.00  0.00    +0.007 C 
ENDBRANCH   8  12
BRANCH   9  15
ATOM     15  C   UNL     1      -4.967 -10.065   8.093  0.00  0.00    +0.113 C 
BRANCH  15   6
ATOM      6  N   UNL     1      -4.420 -11.430   8.109  0.00  0.00    -0.194 NA
ATOM     30  H   UNL     1      -3.543 -11.521   8.640  0.00  0.00    +0.148 HD
BRANCH   6   1
ATOM      1  S   UNL     1      -4.528 -12.390   6.699  0.00  0.00    +0.027 S 
ATOM      3  O   UNL     1      -3.719 -13.583   6.854  0.00  0.00    -0.158 OA
ATOM      4  O   UNL     1      -4.367 -11.530   5.542  0.00  0.00    -0.158 OA
ATOM     21  C   UNL     1      -6.238 -12.875   6.766  0.00  0.00    +0.214 C 
ENDBRANCH   6   1
ENDBRANCH  15   6
ENDBRANCH   9  15
BRANCH  11  16
ATOM     16  C   UNL     1      -3.147 -11.613  12.296  0.00  0.00    +0.103 C 
BRANCH  16  20
ATOM      2  O   UNL     1      -2.808 -13.113  14.164  0.00  0.00    -0.276 OA
ATOM      7  N   UNL     1      -2.802 -10.816  14.523  0.00  0.00    -0.311 N 
ATOM     20  C   UNL     1      -2.901 -11.962  13.746  0.00  0.00    +0.214 C 
ATOM     31  H   UNL     1      -2.892  -9.904  14.084  0.00  0.00    +0.149 HD
BRANCH   7  22
ATOM     22  C   UNL     1      -2.570 -10.848  15.949  0.00  0.00    +0.139 C 
BRANCH  22  23
ATOM     23  C   UNL     1      -3.852 -10.798  16.728  0.00  0.00    -0.030 A 
ATOM     24  C   UNL     1      -4.937 -10.069  16.240  0.00  0.00    +0.009 A 
ATOM     25  C   UNL     1      -3.960 -11.483  17.938  0.00  0.00    +0.009 A 
ATOM     26  C   UNL     1      -6.130 -10.026  16.962  0.00  0.00    +0.046 A 
ATOM     27  C   UNL     1      -5.153 -11.439  18.660  0.00  0.00    +0.046 A 
ATOM     28  C   UNL     1      -6.238 -10.711  18.172  0.00  0.00    +0.120 A 
BRANCH  28   5
ATOM      5  O   UNL     1      -7.402 -10.669  18.876  0.00  0.00    -0.495 OA
ATOM     29  C   UNL     1      -7.786 -11.858  19.564  0.00  0.00    +0.277 C 
ENDBRANCH  28   5
ENDBRANCH  22  23
ENDBRANCH   7  22
ENDBRANCH  16  20
ENDBRANCH  11  16
TORSDOF 9
ENDMDL
MODEL 6
REMARK VINA RESULT:      -5.5     19.440     20.956
REMARK  Name = 38027722
REMARK  14 active torsions:
REMARK  status: ('A' for Active; 'I' for Inactive)
REMARK    1  A    between atoms: S_1  and  N_6
REMARK    2  A    between atoms: S_1  and  C_21
REMARK    3  A    between atoms: O_5  and  C_28
REMARK    4  A    between atoms: O_5  and  C_29
REMARK    5  A    between atoms: N_6  and  C_15
REMARK    6  A    between atoms: N_7  and  C_22
REMARK    7  A    between atoms: C_8  and  C_12
REMARK    8  A    between atoms: C_9  and  C_15
REMARK    9  A    between atoms: C_11  and  C_16
REMARK   10  A    between atoms: C_12  and  C_17
REMARK   11  A    between atoms: C_12  and  C_18
REMARK   12  A    between atoms: C_13  and  C_19
REMARK   13  A    between atoms: C_16  and  C_20
REMARK   14  A    between atoms: C_22  and  C_23
REMARK                            x       y       z     vdW  Elec       q    Type
REMARK                         _______ _______ _______ _____ _____    ______ ____
ROOT
ATOM      8  C   UNL     1     -15.833   6.708  22.008  0.00  0.00    +0.000 C 
ATOM      9  C   UNL     1     -15.051   5.419  22.363  0.00  0.00    +0.030 C 
ATOM     10  C   UNL     1     -15.356   7.270  20.659  0.00  0.00    +0.012 C 
ATOM     11  C   UNL     1     -13.851   7.598  20.664  0.00  0.00    +0.023 C 
ATOM     13  C   UNL     1     -13.031   6.470  21.255  0.00  0.00    -0.073 C 
ATOM     14  C   UNL     1     -13.585   5.498  22.001  0.00  0.00    -0.023 C 
ATOM     19  C   UNL     1     -11.562   6.459  20.932  0.00  0.00    +0.039 C 
ENDROOT
BRANCH   8  12
ATOM     12  C   UNL     1     -17.344   6.462  21.962  0.00  0.00    -0.013 C 
ATOM     17  C   UNL     1     -18.077   7.730  21.535  0.00  0.00    +0.007 C 
ATOM     18  C   UNL     1     -17.667   5.307  21.019  0.00  0.00    +0.007 C 
ENDBRANCH   8  12
BRANCH   9  15
ATOM     15  C   UNL     1     -15.190   5.080  23.851  0.00  0.00    +0.113 C 
BRANCH  15   6
ATOM      6  N   UNL     1     -15.050   3.626  24.028  0.00  0.00    -0.194 NA
ATOM     30  H   UNL     1     -14.246   3.222  23.529  0.00  0.00    +0.148 HD
BRANCH   6   1
ATOM      1  S   UNL     1     -16.452   2.651  24.076  0.00  0.00    +0.027 S 
ATOM      3  O   UNL     1     -16.304   1.627  25.092  0.00  0.00    -0.158 OA
ATOM      4  O   UNL     1     -16.816   2.300  22.716  0.00  0.00    -0.158 OA
ATOM     21  C   UNL     1     -17.649   3.831  24.659  0.00  0.00    +0.214 C 
ENDBRANCH   6   1
ENDBRANCH  15   6
ENDBRANCH   9  15
BRANCH  11  16
ATOM     16  C   UNL     1     -13.576   8.918  21.394  0.00  0.00    +0.103 C 
BRANCH  16  20
ATOM      2  O   UNL     1     -13.711  10.955  20.095  0.00  0.00    -0.276 OA
ATOM      7  N   UNL     1     -11.744   9.715  20.082  0.00  0.00    -0.311 N 
ATOM     20  C   UNL     1     -13.051   9.985  20.461  0.00  0.00    +0.214 C 
ATOM     31  H   UNL     1     -11.280   8.886  20.439  0.00  0.00    +0.149 HD
BRANCH   7  22
ATOM     22  C   UNL     1     -10.990  10.567  19.191  0.00  0.00    +0.139 C 
BRANCH  22  23
ATOM     23  C   UNL     1     -10.906   9.997  17.805  0.00  0.00    -0.030 A 
ATOM     24  C   UNL     1     -11.147  10.813  16.699  0.00  0.00    +0.009 A 
ATOM     25  C   UNL     1     -10.585   8.652  17.622  0.00  0.00    +0.009 A 
ATOM     26  C   UNL     1     -11.066  10.284  15.411  0.00  0.00    +0.046 A 
ATOM     27  C   UNL     1     -10.505   8.123  16.334  0.00  0.00    +0.046 A 
ATOM     28  C   UNL     1     -10.745   8.939  15.228  0.00  0.00    +0.120 A 
BRANCH  28   5
ATOM      5  O   UNL     1     -10.665   8.423  13.971  0.00  0.00    -0.495 OA
ATOM     29  C   UNL     1     -11.545   8.969  12.990  0.00  0.00    +0.277 C 
ENDBRANCH  28   5
ENDBRANCH  22  23
ENDBRANCH   7  22
ENDBRANCH  16  20
ENDBRANCH  11  16
TORSDOF 9
ENDMDL
MODEL 7
REMARK VINA RESULT:      -5.3     23.622     26.587
REMARK  Name = 38027722
REMARK  14 active torsions:
REMARK  status: ('A' for Active; 'I' for Inactive)
REMARK    1  A    between atoms: S_1  and  N_6
REMARK    2  A    between atoms: S_1  and  C_21
REMARK    3  A    between atoms: O_5  and  C_28
REMARK    4  A    between atoms: O_5  and  C_29
REMARK    5  A    between atoms: N_6  and  C_15
REMARK    6  A    between atoms: N_7  and  C_22
REMARK    7  A    between atoms: C_8  and  C_12
REMARK    8  A    between atoms: C_9  and  C_15
REMARK    9  A    between atoms: C_11  and  C_16
REMARK   10  A    between atoms: C_12  and  C_17
REMARK   11  A    between atoms: C_12  and  C_18
REMARK   12  A    between atoms: C_13  and  C_19
REMARK   13  A    between atoms: C_16  and  C_20
REMARK   14  A    between atoms: C_22  and  C_23
REMARK                            x       y       z     vdW  Elec       q    Type
REMARK                         _______ _______ _______ _____ _____    ______ ____
ROOT
ATOM      8  C   UNL     1      12.063   7.803   6.106  0.00  0.00    +0.000 C 
ATOM      9  C   UNL     1      10.777   8.595   6.451  0.00  0.00    +0.030 C 
ATOM     10  C   UNL     1      12.321   7.832   4.592  0.00  0.00    +0.012 C 
ATOM     11  C   UNL     1      11.150   7.233   3.790  0.00  0.00    +0.023 C 
ATOM     13  C   UNL     1       9.814   7.771   4.258  0.00  0.00    -0.073 C 
ATOM     14  C   UNL     1       9.669   8.388   5.445  0.00  0.00    -0.023 C 
ATOM     19  C   UNL     1       8.654   7.624   3.312  0.00  0.00    +0.039 C 
ENDROOT
BRANCH   8  12
ATOM     12  C   UNL     1      13.284   8.350   6.851  0.00  0.00    -0.013 C 
ATOM     17  C   UNL     1      14.531   7.548   6.490  0.00  0.00    +0.007 C 
ATOM     18  C   UNL     1      13.483   9.829   6.535  0.00  0.00    +0.007 C 
ENDBRANCH   8  12
BRANCH   9  15
ATOM     15  C   UNL     1      10.267   8.240   7.852  0.00  0.00    +0.113 C 
BRANCH  15   6
ATOM      6  N   UNL     1       9.379   7.070   7.758  0.00  0.00    -0.194 NA
ATOM     30  H   UNL     1       8.387   7.288   7.924  0.00  0.00    +0.148 HD
BRANCH   6   1
ATOM      1  S   UNL     1       9.913   5.566   8.366  0.00  0.00    +0.027 S 
ATOM      3  O   UNL     1       9.010   5.107   9.404  0.00  0.00    -0.158 OA
ATOM      4  O   UNL     1      11.341   5.646   8.607  0.00  0.00    -0.158 OA
ATOM     21  C   UNL     1       9.673   4.534   6.937  0.00  0.00    +0.214 C 
ENDBRANCH   6   1
ENDBRANCH  15   6
ENDBRANCH   9  15
BRANCH  11  16
ATOM     16  C   UNL     1      11.173   5.701   3.839  0.00  0.00    +0.103 C 
BRANCH  16  20
ATOM      2  O   UNL     1      10.877   5.611   1.439  0.00  0.00    -0.276 OA
ATOM      7  N   UNL     1      11.991   3.881   2.522  0.00  0.00    -0.311 N 
ATOM     20  C   UNL     1      11.314   5.091   2.463  0.00  0.00    +0.214 C 
ATOM     31  H   UNL     1      12.315   3.532   3.419  0.00  0.00    +0.149 HD
BRANCH   7  22
ATOM     22  C   UNL     1      12.267   3.074   1.356  0.00  0.00    +0.139 C 
BRANCH  22  23
ATOM     23  C   UNL     1      13.499   3.535   0.633  0.00  0.00    -0.030 A 
ATOM     24  C   UNL     1      13.419   3.924  -0.705  0.00  0.00    +0.009 A 
ATOM     25  C   UNL     1      14.724   3.578   1.299  0.00  0.00    +0.009 A 
ATOM     26  C   UNL     1      14.563   4.355  -1.376  0.00  0.00    +0.046 A 
ATOM     27  C   UNL     1      15.868   4.009   0.628  0.00  0.00    +0.046 A 
ATOM     28  C   UNL     1      15.788   4.397  -0.709  0.00  0.00    +0.120 A 
BRANCH  28   5
ATOM      5  O   UNL     1      16.904   4.819  -1.364  0.00  0.00    -0.495 OA
ATOM     29  C   UNL     1      16.857   4.821  -2.790  0.00  0.00    +0.277 C 
ENDBRANCH  28   5
ENDBRANCH  22  23
ENDBRANCH   7  22
ENDBRANCH  16  20
ENDBRANCH  11  16
TORSDOF 9
ENDMDL
MODEL 8
REMARK VINA RESULT:      -5.3     23.521     26.468
REMARK  Name = 38027722
REMARK  14 active torsions:
REMARK  status: ('A' for Active; 'I' for Inactive)
REMARK    1  A    between atoms: S_1  and  N_6
REMARK    2  A    between atoms: S_1  and  C_21
REMARK    3  A    between atoms: O_5  and  C_28
REMARK    4  A    between atoms: O_5  and  C_29
REMARK    5  A    between atoms: N_6  and  C_15
REMARK    6  A    between atoms: N_7  and  C_22
REMARK    7  A    between atoms: C_8  and  C_12
REMARK    8  A    between atoms: C_9  and  C_15
REMARK    9  A    between atoms: C_11  and  C_16
REMARK   10  A    between atoms: C_12  and  C_17
REMARK   11  A    between atoms: C_12  and  C_18
REMARK   12  A    between atoms: C_13  and  C_19
REMARK   13  A    between atoms: C_16  and  C_20
REMARK   14  A    between atoms: C_22  and  C_23
REMARK                            x       y       z     vdW  Elec       q    Type
REMARK                         _______ _______ _______ _____ _____    ______ ____
ROOT
ATOM      8  C   UNL     1       9.512   6.526   5.715  0.00  0.00    +0.000 C 
ATOM      9  C   UNL     1       9.899   8.020   5.848  0.00  0.00    +0.030 C 
ATOM     10  C   UNL     1      10.690   5.714   5.155  0.00  0.00    +0.012 C 
ATOM     11  C   UNL     1      11.146   6.225   3.775  0.00  0.00    +0.023 C 
ATOM     13  C   UNL     1      11.292   7.732   3.752  0.00  0.00    -0.073 C 
ATOM     14  C   UNL     1      10.739   8.518   4.693  0.00  0.00    -0.023 C 
ATOM     19  C   UNL     1      12.126   8.316   2.646  0.00  0.00    +0.039 C 
ENDROOT
BRANCH   8  12
ATOM     12  C   UNL     1       9.065   5.934   7.055  0.00  0.00    -0.013 C 
ATOM     17  C   UNL     1       9.783   4.614   7.319  0.00  0.00    +0.007 C 
ATOM     18  C   UNL     1       9.319   6.924   8.187  0.00  0.00    +0.007 C 
ENDBRANCH   8  12
BRANCH   9  15
ATOM     15  C   UNL     1       8.655   8.904   5.991  0.00  0.00    +0.113 C 
BRANCH  15   6
ATOM      6  N   UNL     1       7.699   8.565   4.926  0.00  0.00    -0.194 NA
ATOM     30  H   UNL     1       7.778   7.596   4.590  0.00  0.00    +0.148 HD
BRANCH   6   1
ATOM      1  S   UNL     1       7.330   9.730   3.732  0.00  0.00    +0.027 S 
ATOM      3  O   UNL     1       8.127  10.923   3.948  0.00  0.00    -0.158 OA
ATOM      4  O   UNL     1       5.888   9.815   3.600  0.00  0.00    -0.158 OA
ATOM     21  C   UNL     1       7.949   8.914   2.279  0.00  0.00    +0.214 C 
ENDBRANCH   6   1
ENDBRANCH  15   6
ENDBRANCH   9  15
BRANCH  11  16
ATOM     16  C   UNL     1      10.197   5.748   2.669  0.00  0.00    +0.103 C 
BRANCH  16  20
ATOM      2  O   UNL     1      10.079   3.885   1.130  0.00  0.00    -0.276 OA
ATOM      7  N   UNL     1      12.021   4.234   2.359  0.00  0.00    -0.311 N 
ATOM     20  C   UNL     1      10.726   4.526   1.955  0.00  0.00    +0.214 C 
ATOM     31  H   UNL     1      12.475   4.825   3.049  0.00  0.00    +0.149 HD
BRANCH   7  22
ATOM     22  C   UNL     1      12.776   3.116   1.842  0.00  0.00    +0.139 C 
BRANCH  22  23
ATOM     23  C   UNL     1      13.733   3.535   0.765  0.00  0.00    -0.030 A 
ATOM     24  C   UNL     1      15.072   3.776   1.077  0.00  0.00    +0.009 A 
ATOM     25  C   UNL     1      13.286   3.680  -0.548  0.00  0.00    +0.009 A 
ATOM     26  C   UNL     1      15.963   4.162   0.075  0.00  0.00    +0.046 A 
ATOM     27  C   UNL     1      14.178   4.067  -1.550  0.00  0.00    +0.046 A 
ATOM     28  C   UNL     1      15.516   4.308  -1.238  0.00  0.00    +0.120 A 
BRANCH  28   5
ATOM      5  O   UNL     1      16.385   4.684  -2.215  0.00  0.00    -0.495 OA
ATOM     29  C   UNL     1      17.774   4.475  -1.962  0.00  0.00    +0.277 C 
ENDBRANCH  28   5
ENDBRANCH  22  23
ENDBRANCH   7  22
ENDBRANCH  16  20
ENDBRANCH  11  16
TORSDOF 9
ENDMDL
MODEL 9
REMARK VINA RESULT:      -5.2     23.770     26.157
REMARK  Name = 38027722
REMARK  14 active torsions:
REMARK  status: ('A' for Active; 'I' for Inactive)
REMARK    1  A    between atoms: S_1  and  N_6
REMARK    2  A    between atoms: S_1  and  C_21
REMARK    3  A    between atoms: O_5  and  C_28
REMARK    4  A    between atoms: O_5  and  C_29
REMARK    5  A    between atoms: N_6  and  C_15
REMARK    6  A    between atoms: N_7  and  C_22
REMARK    7  A    between atoms: C_8  and  C_12
REMARK    8  A    between atoms: C_9  and  C_15
REMARK    9  A    between atoms: C_11  and  C_16
REMARK   10  A    between atoms: C_12  and  C_17
REMARK   11  A    between atoms: C_12  and  C_18
REMARK   12  A    between atoms: C_13  and  C_19
REMARK   13  A    between atoms: C_16  and  C_20
REMARK   14  A    between atoms: C_22  and  C_23
REMARK                            x       y       z     vdW  Elec       q    Type
REMARK                         _______ _______ _______ _____ _____    ______ ____
ROOT
ATOM      8  C   UNL     1       8.983   8.350   3.373  0.00  0.00    +0.000 C 
ATOM      9  C   UNL     1       8.041   7.865   4.503  0.00  0.00    +0.030 C 
ATOM     10  C   UNL     1       9.440   7.164   2.510  0.00  0.00    +0.012 C 
ATOM     11  C   UNL     1      10.179   6.093   3.335  0.00  0.00    +0.023 C 
ATOM     13  C   UNL     1       9.436   5.754   4.611  0.00  0.00    -0.073 C 
ATOM     14  C   UNL     1       8.475   6.551   5.112  0.00  0.00    -0.023 C 
ATOM     19  C   UNL     1       9.792   4.454   5.278  0.00  0.00    +0.039 C 
ENDROOT
BRANCH   8  12
ATOM     12  C   UNL     1       8.314   9.406   2.490  0.00  0.00    -0.013 C 
ATOM     17  C   UNL     1       9.054  10.736   2.597  0.00  0.00    +0.007 C 
ATOM     18  C   UNL     1       8.260   8.933   1.041  0.00  0.00    +0.007 C 
ENDBRANCH   8  12
BRANCH   9  15
ATOM     15  C   UNL     1       7.912   8.920   5.608  0.00  0.00    +0.113 C 
BRANCH  15   6
ATOM      6  N   UNL     1       9.252   9.240   6.126  0.00  0.00    -0.194 NA
ATOM     30  H   UNL     1       9.997   9.177   5.420  0.00  0.00    +0.148 HD
BRANCH   6   1
ATOM      1  S   UNL     1       9.683   8.727   7.698  0.00  0.00    +0.027 S 
ATOM      3  O   UNL     1       8.668   7.831   8.218  0.00  0.00    -0.158 OA
ATOM      4  O   UNL     1      10.112   9.884   8.460  0.00  0.00    -0.158 OA
ATOM     21  C   UNL     1      11.132   7.760   7.338  0.00  0.00    +0.214 C 
ENDBRANCH   6   1
ENDBRANCH  15   6
ENDBRANCH   9  15
BRANCH  11  16
ATOM     16  C   UNL     1      11.619   6.523   3.635  0.00  0.00    +0.103 C 
BRANCH  16  20
ATOM      2  O   UNL     1      13.551   6.483   2.180  0.00  0.00    -0.276 OA
ATOM      7  N   UNL     1      12.313   4.540   2.496  0.00  0.00    -0.311 N 
ATOM     20  C   UNL     1      12.612   5.881   2.694  0.00  0.00    +0.214 C 
ATOM     31  H   UNL     1      11.513   4.130   2.967  0.00  0.00    +0.149 HD
BRANCH   7  22
ATOM     22  C   UNL     1      13.095   3.677   1.640  0.00  0.00    +0.139 C 
BRANCH  22  23
ATOM     23  C   UNL     1      12.650   3.752   0.208  0.00  0.00    -0.030 A 
ATOM     24  C   UNL     1      11.312   4.004  -0.094  0.00  0.00    +0.009 A 
ATOM     25  C   UNL     1      13.576   3.574  -0.820  0.00  0.00    +0.009 A 
ATOM     26  C   UNL     1      10.899   4.077  -1.424  0.00  0.00    +0.046 A 
ATOM     27  C   UNL     1      13.162   3.646  -2.151  0.00  0.00    +0.046 A 
ATOM     28  C   UNL     1      11.824   3.898  -2.453  0.00  0.00    +0.120 A 
BRANCH  28   5
ATOM      5  O   UNL     1      11.421   3.971  -3.751  0.00  0.00    -0.495 OA
ATOM     29  C   UNL     1      11.797   5.137  -4.482  0.00  0.00    +0.277 C 
ENDBRANCH  28   5
ENDBRANCH  22  23
ENDBRANCH   7  22
ENDBRANCH  16  20
ENDBRANCH  11  16
TORSDOF 9
ENDMDL
MODEL 10
REMARK VINA RESULT:      -5.2     23.224     26.992
REMARK  Name = 38027722
REMARK  14 active torsions:
REMARK  status: ('A' for Active; 'I' for Inactive)
REMARK    1  A    between atoms: S_1  and  N_6
REMARK    2  A    between atoms: S_1  and  C_21
REMARK    3  A    between atoms: O_5  and  C_28
REMARK    4  A    between atoms: O_5  and  C_29
REMARK    5  A    between atoms: N_6  and  C_15
REMARK    6  A    between atoms: N_7  and  C_22
REMARK    7  A    between atoms: C_8  and  C_12
REMARK    8  A    between atoms: C_9  and  C_15
REMARK    9  A    between atoms: C_11  and  C_16
REMARK   10  A    between atoms: C_12  and  C_17
REMARK   11  A    between atoms: C_12  and  C_18
REMARK   12  A    between atoms: C_13  and  C_19
REMARK   13  A    between atoms: C_16  and  C_20
REMARK   14  A    between atoms: C_22  and  C_23
REMARK                            x       y       z     vdW  Elec       q    Type
REMARK                         _______ _______ _______ _____ _____    ______ ____
ROOT
ATOM      8  C   UNL     1      12.836   5.615   0.008  0.00  0.00    +0.000 C 
ATOM      9  C   UNL     1      12.760   4.110   0.364  0.00  0.00    +0.030 C 
ATOM     10  C   UNL     1      13.001   6.461   1.280  0.00  0.00    +0.012 C 
ATOM     11  C   UNL     1      11.841   6.252   2.273  0.00  0.00    +0.023 C 
ATOM     13  C   UNL     1      11.528   4.784   2.472  0.00  0.00    -0.073 C 
ATOM     14  C   UNL     1      11.958   3.839   1.616  0.00  0.00    -0.023 C 
ATOM     19  C   UNL     1      10.746   4.419   3.704  0.00  0.00    +0.039 C 
ENDROOT
BRANCH   8  12
ATOM     12  C   UNL     1      13.981   5.912  -0.964  0.00  0.00    -0.013 C 
ATOM     17  C   UNL     1      14.231   7.415  -1.050  0.00  0.00    +0.007 C 
ATOM     18  C   UNL     1      15.248   5.178  -0.536  0.00  0.00    +0.007 C 
ENDBRANCH   8  12
BRANCH   9  15
ATOM     15  C   UNL     1      12.183   3.294  -0.797  0.00  0.00    +0.113 C 
BRANCH  15   6
ATOM      6  N   UNL     1      10.787   3.700  -1.024  0.00  0.00    -0.194 NA
ATOM     30  H   UNL     1      10.099   3.117  -0.529  0.00  0.00    +0.148 HD
BRANCH   6   1
ATOM      1  S   UNL     1      10.315   4.238  -2.575  0.00  0.00    +0.027 S 
ATOM      3  O   UNL     1       9.398   3.283  -3.168  0.00  0.00    -0.158 OA
ATOM      4  O   UNL     1      11.498   4.673  -3.293  0.00  0.00    -0.158 OA
ATOM     21  C   UNL     1       9.388   5.693  -2.147  0.00  0.00    +0.214 C 
ENDBRANCH   6   1
ENDBRANCH  15   6
ENDBRANCH   9  15
BRANCH  11  16
ATOM     16  C   UNL     1      10.593   7.025   1.833  0.00  0.00    +0.103 C 
BRANCH  16  20
ATOM      2  O   UNL     1       8.559   7.428   3.081  0.00  0.00    -0.276 OA
ATOM      7  N   UNL     1      10.604   8.066   3.985  0.00  0.00    -0.311 N 
ATOM     20  C   UNL     1       9.783   7.514   3.012  0.00  0.00    +0.214 C 
ATOM     31  H   UNL     1      11.608   8.091   3.838  0.00  0.00    +0.149 HD
BRANCH   7  22
ATOM     22  C   UNL     1      10.100   8.616   5.223  0.00  0.00    +0.139 C 
BRANCH  22  23
ATOM     23  C   UNL     1      10.140   7.615   6.340  0.00  0.00    -0.030 A 
ATOM     24  C   UNL     1      11.345   7.002   6.684  0.00  0.00    +0.009 A 
ATOM     25  C   UNL     1       8.973   7.300   7.036  0.00  0.00    +0.009 A 
ATOM     26  C   UNL     1      11.382   6.074   7.725  0.00  0.00    +0.046 A 
ATOM     27  C   UNL     1       9.011   6.371   8.076  0.00  0.00    +0.046 A 
ATOM     28  C   UNL     1      10.216   5.758   8.421  0.00  0.00    +0.120 A 
BRANCH  28   5
ATOM      5  O   UNL     1      10.253   4.853   9.436  0.00  0.00    -0.495 OA
ATOM     29  C   UNL     1       9.045   4.650  10.169  0.00  0.00    +0.277 C 
ENDBRANCH  28   5
ENDBRANCH  22  23
ENDBRANCH   7  22
ENDBRANCH  16  20
ENDBRANCH  11  16
TORSDOF 9
ENDMDL
