REMARK  Name = 75536929
REMARK  4 active torsions:
REMARK  status: ('A' for Active; 'I' for Inactive)
REMARK    1  A    between atoms: O_3  and  C_8
REMARK    2  A    between atoms: O_3  and  C_16
REMARK    3  A    between atoms: N_4  and  C_11
REMARK    4  A    between atoms: C_11  and  C_13
REMARK                            x       y       z     vdW  Elec       q    Type
REMARK                         _______ _______ _______ _____ _____    ______ ____
ROOT
ATOM      2  O   UNL     1       0.668   3.551  -0.532  0.00  0.00    -0.375 OA
ATOM      4  N   UNL     1      -1.100   1.225   0.558  0.00  0.00    -0.292 NA
ATOM      7  C   UNL     1       0.074   0.447   0.148  0.00  0.00    +0.131 C 
ATOM      8  C   UNL     1       1.280   1.212  -0.420  0.00  0.00    +0.215 C 
ATOM      9  C   UNL     1      -0.783   2.513   1.177  0.00  0.00    +0.113 C 
ATOM     10  C   UNL     1       0.912   2.388  -1.315  0.00  0.00    +0.205 C 
ATOM     12  C   UNL     1      -0.605   3.581   0.097  0.00  0.00    +0.175 C 
ENDROOT
BRANCH   8   3
ATOM      3  O   UNL     1       2.062   0.299  -1.191  0.00  0.00    -0.468 OA
BRANCH   3  16
ATOM      5  N   UNL     1       3.140  -0.192   0.810  0.00  0.00    -0.219 NA
ATOM      6  N   UNL     1       4.765  -2.029  -0.551  0.00  0.00    -0.256 NA
ATOM     16  C   UNL     1       3.016  -0.410  -0.514  0.00  0.00    +0.234 A 
ATOM     20  C   UNL     1       3.815  -1.312  -1.183  0.00  0.00    +0.177 A 
ATOM     21  C   UNL     1       4.090  -0.909   1.442  0.00  0.00    +0.134 A 
ATOM     22  C   UNL     1       4.889  -1.811   0.774  0.00  0.00    +0.130 A 
ENDBRANCH   3  16
ENDBRANCH   8   3
BRANCH   4  11
ATOM     11  C   UNL     1      -1.965   0.416   1.417  0.00  0.00    +0.122 C 
BRANCH  11  13
ATOM      1  F   UNL     1      -4.199   0.941  -0.245  0.00  0.00    -0.205 F 
ATOM     13  C   UNL     1      -2.682  -0.656   0.640  0.00  0.00    +0.002 A 
ATOM     14  C   UNL     1      -3.776  -0.328  -0.160  0.00  0.00    +0.128 A 
ATOM     15  C   UNL     1      -2.249  -1.980   0.722  0.00  0.00    +0.008 A 
ATOM     17  C   UNL     1      -4.438  -1.323  -0.879  0.00  0.00    +0.038 A 
ATOM     18  C   UNL     1      -2.911  -2.975   0.003  0.00  0.00    +0.000 A 
ATOM     19  C   UNL     1      -4.005  -2.647  -0.797  0.00  0.00    +0.003 A 
ENDBRANCH  11  13
ENDBRANCH   4  11
TORSDOF 4
