MODEL 1
REMARK VINA RESULT:      -7.2      0.000      0.000
REMARK  Name = 45361572
REMARK  8 active torsions:
REMARK  status: ('A' for Active; 'I' for Inactive)
REMARK    1  A    between atoms: O_1  and  C_10
REMARK    2  A    between atoms: N_4  and  C_14
REMARK    3  A    between atoms: C_7  and  C_17
REMARK    4  A    between atoms: C_9  and  C_19
REMARK    5  A    between atoms: C_12  and  C_18
REMARK    6  A    between atoms: C_18  and  C_20
REMARK    7  A    between atoms: C_18  and  C_21
REMARK    8  A    between atoms: C_22  and  C_27
REMARK                            x       y       z     vdW  Elec       q    Type
REMARK                         _______ _______ _______ _____ _____    ______ ____
ROOT
ATOM      7  C   UNL     1      -5.130 -11.213  17.640  0.00  0.00    -0.027 C 
ATOM      8  C   UNL     1      -5.760 -10.521  16.385  0.00  0.00    +0.028 C 
ATOM      9  C   UNL     1      -7.329 -10.556  16.458  0.00  0.00    +0.012 C 
ATOM     10  C   UNL     1      -5.140 -11.068  15.068  0.00  0.00    +0.122 C 
ATOM     11  C   UNL     1      -3.591 -11.062  17.593  0.00  0.00    +0.007 C 
ATOM     12  C   UNL     1      -3.594 -11.010  15.070  0.00  0.00    +0.029 C 
ATOM     13  C   UNL     1      -5.635 -10.501  18.915  0.00  0.00    +0.009 C 
ATOM     14  C   UNL     1      -7.822  -9.904  17.780  0.00  0.00    +0.076 C 
ATOM     15  C   UNL     1      -2.975 -11.632  16.322  0.00  0.00    +0.007 C 
ATOM     16  C   UNL     1      -7.152 -10.479  19.028  0.00  0.00    +0.023 C 
ATOM     17  C   UNL     1      -5.479 -12.721  17.725  0.00  0.00    +0.011 C 
ATOM     19  C   UNL     1      -8.016  -9.866  15.267  0.00  0.00    +0.010 C 
ENDROOT
BRANCH  14   4
ATOM      3  O   UNL     1      -9.754  -7.796  17.521  0.00  0.00    -0.270 OA
ATOM      4  N   UNL     1      -9.257 -10.023  17.934  0.00  0.00    -0.308 N 
ATOM     22  C   UNL     1     -10.109  -8.940  17.789  0.00  0.00    +0.244 C 
ATOM     33  H   UNL     1      -9.611 -10.914  18.265  0.00  0.00    +0.149 HD
BRANCH  22  27
ATOM      6  N   UNL     1     -14.265  -9.757  18.410  0.00  0.00    -0.263 NA
ATOM     27  C   UNL     1     -11.551  -9.222  18.004  0.00  0.00    +0.040 A 
ATOM     29  C   UNL     1     -11.967  -9.899  19.146  0.00  0.00    +0.033 A 
ATOM     30  C   UNL     1     -12.491  -8.813  17.065  0.00  0.00    +0.033 A 
ATOM     31  C   UNL     1     -13.322 -10.140  19.300  0.00  0.00    +0.111 A 
ATOM     32  C   UNL     1     -13.823  -9.102  17.312  0.00  0.00    +0.111 A 
ENDBRANCH  22  27
ENDBRANCH  14   4
BRANCH  10   1
ATOM      1  O   UNL     1      -5.576 -10.270  13.967  0.00  0.00    -0.391 OA
ATOM     34  H   UNL     1      -6.481  -9.968  14.154  0.00  0.00    +0.210 HD
ENDBRANCH  10   1
BRANCH  12  18
ATOM     18  C   UNL     1      -2.998 -11.672  13.821  0.00  0.00    +0.078 C 
ATOM     20  C   UNL     1      -1.911 -12.665  14.194  0.00  0.00    +0.017 C 
BRANCH  18  21
ATOM      2  O   UNL     1      -1.673  -9.752  13.410  0.00  0.00    -0.275 OA
ATOM      5  N   UNL     1      -2.818 -10.631  11.589  0.00  0.00    -0.301 N 
ATOM     21  C   UNL     1      -2.432 -10.597  12.929  0.00  0.00    +0.219 C 
ATOM     23  C   UNL     1      -3.684 -11.647  10.979  0.00  0.00    +0.108 C 
ATOM     24  C   UNL     1      -2.312  -9.618  10.660  0.00  0.00    +0.108 C 
ATOM     25  C   UNL     1      -4.858 -10.995  10.253  0.00  0.00    +0.019 C 
ATOM     26  C   UNL     1      -3.460  -8.927   9.929  0.00  0.00    +0.019 C 
ATOM     28  C   UNL     1      -4.378  -9.944   9.253  0.00  0.00    +0.003 C 
ENDBRANCH  18  21
ENDBRANCH  12  18
TORSDOF 5
ENDMDL
MODEL 2
REMARK VINA RESULT:      -6.8      1.769      2.033
REMARK  Name = 45361572
REMARK  8 active torsions:
REMARK  status: ('A' for Active; 'I' for Inactive)
REMARK    1  A    between atoms: O_1  and  C_10
REMARK    2  A    between atoms: N_4  and  C_14
REMARK    3  A    between atoms: C_7  and  C_17
REMARK    4  A    between atoms: C_9  and  C_19
REMARK    5  A    between atoms: C_12  and  C_18
REMARK    6  A    between atoms: C_18  and  C_20
REMARK    7  A    between atoms: C_18  and  C_21
REMARK    8  A    between atoms: C_22  and  C_27
REMARK                            x       y       z     vdW  Elec       q    Type
REMARK                         _______ _______ _______ _____ _____    ______ ____
ROOT
ATOM      7  C   UNL     1      -4.783 -11.318  17.290  0.00  0.00    -0.027 C 
ATOM      8  C   UNL     1      -5.750 -10.541  16.336  0.00  0.00    +0.028 C 
ATOM      9  C   UNL     1      -7.217 -10.550  16.899  0.00  0.00    +0.012 C 
ATOM     10  C   UNL     1      -5.597 -11.020  14.864  0.00  0.00    +0.122 C 
ATOM     11  C   UNL     1      -3.333 -11.194  16.767  0.00  0.00    +0.007 C 
ATOM     12  C   UNL     1      -4.127 -10.992  14.380  0.00  0.00    +0.029 C 
ATOM     13  C   UNL     1      -4.835 -10.673  18.694  0.00  0.00    +0.009 C 
ATOM     14  C   UNL     1      -7.245  -9.969  18.340  0.00  0.00    +0.076 C 
ATOM     15  C   UNL     1      -3.169 -11.699  15.340  0.00  0.00    +0.007 C 
ATOM     16  C   UNL     1      -6.237 -10.630  19.282  0.00  0.00    +0.023 C 
ATOM     17  C   UNL     1      -5.143 -12.821  17.406  0.00  0.00    +0.011 C 
ATOM     19  C   UNL     1      -8.218  -9.777  16.023  0.00  0.00    +0.010 C 
ENDROOT
BRANCH  14   4
ATOM      3  O   UNL     1      -8.555 -12.371  19.210  0.00  0.00    -0.270 OA
ATOM      4  N   UNL     1      -8.562 -10.069  18.934  0.00  0.00    -0.308 N 
ATOM     22  C   UNL     1      -9.109 -11.281  19.321  0.00  0.00    +0.244 C 
ATOM     33  H   UNL     1      -9.122  -9.223  18.953  0.00  0.00    +0.149 HD
BRANCH  22  27
ATOM      6  N   UNL     1     -13.061 -11.098  20.955  0.00  0.00    -0.263 NA
ATOM     27  C   UNL     1     -10.480 -11.216  19.889  0.00  0.00    +0.040 A 
ATOM     29  C   UNL     1     -11.091 -12.370  20.370  0.00  0.00    +0.033 A 
ATOM     30  C   UNL     1     -11.159 -10.004  19.942  0.00  0.00    +0.033 A 
ATOM     31  C   UNL     1     -12.370 -12.258  20.888  0.00  0.00    +0.111 A 
ATOM     32  C   UNL     1     -12.435  -9.998  20.479  0.00  0.00    +0.111 A 
ENDBRANCH  22  27
ENDBRANCH  14   4
BRANCH  10   1
ATOM      1  O   UNL     1      -6.328 -10.150  14.000  0.00  0.00    -0.391 OA
ATOM     34  H   UNL     1      -6.012  -9.242  14.149  0.00  0.00    +0.210 HD
ENDBRANCH  10   1
BRANCH  12  18
ATOM     18  C   UNL     1      -3.979 -11.590  12.975  0.00  0.00    +0.078 C 
ATOM     20  C   UNL     1      -3.033 -12.777  12.983  0.00  0.00    +0.017 C 
BRANCH  18  21
ATOM      2  O   UNL     1      -2.368  -9.996  12.284  0.00  0.00    -0.275 OA
ATOM      5  N   UNL     1      -4.272 -10.185  10.965  0.00  0.00    -0.301 N 
ATOM     21  C   UNL     1      -3.460 -10.519  12.049  0.00  0.00    +0.219 C 
ATOM     23  C   UNL     1      -5.554 -10.820  10.635  0.00  0.00    +0.108 C 
ATOM     24  C   UNL     1      -3.837  -9.153  10.021  0.00  0.00    +0.108 C 
ATOM     25  C   UNL     1      -6.655  -9.773  10.487  0.00  0.00    +0.019 C 
ATOM     26  C   UNL     1      -4.905  -8.075   9.863  0.00  0.00    +0.019 C 
ATOM     28  C   UNL     1      -6.257  -8.684   9.493  0.00  0.00    +0.003 C 
ENDBRANCH  18  21
ENDBRANCH  12  18
TORSDOF 5
ENDMDL
MODEL 3
REMARK VINA RESULT:      -6.7      2.792      4.538
REMARK  Name = 45361572
REMARK  8 active torsions:
REMARK  status: ('A' for Active; 'I' for Inactive)
REMARK    1  A    between atoms: O_1  and  C_10
REMARK    2  A    between atoms: N_4  and  C_14
REMARK    3  A    between atoms: C_7  and  C_17
REMARK    4  A    between atoms: C_9  and  C_19
REMARK    5  A    between atoms: C_12  and  C_18
REMARK    6  A    between atoms: C_18  and  C_20
REMARK    7  A    between atoms: C_18  and  C_21
REMARK    8  A    between atoms: C_22  and  C_27
REMARK                            x       y       z     vdW  Elec       q    Type
REMARK                         _______ _______ _______ _____ _____    ______ ____
ROOT
ATOM      7  C   UNL     1      -9.487 -10.840  18.351  0.00  0.00    -0.027 C 
ATOM      8  C   UNL     1      -8.823  -9.934  17.261  0.00  0.00    +0.028 C 
ATOM      9  C   UNL     1      -9.913  -9.297  16.326  0.00  0.00    +0.012 C 
ATOM     10  C   UNL     1      -7.671 -10.681  16.531  0.00  0.00    +0.122 C 
ATOM     11  C   UNL     1      -8.400 -11.360  19.321  0.00  0.00    +0.007 C 
ATOM     12  C   UNL     1      -6.640 -11.289  17.513  0.00  0.00    +0.029 C 
ATOM     13  C   UNL     1     -10.485  -9.992  19.172  0.00  0.00    +0.009 C 
ATOM     14  C   UNL     1     -10.953  -8.509  17.169  0.00  0.00    +0.076 C 
ATOM     15  C   UNL     1      -7.289 -12.127  18.616  0.00  0.00    +0.007 C 
ATOM     16  C   UNL     1     -11.551  -9.327  18.315  0.00  0.00    +0.023 C 
ATOM     17  C   UNL     1     -10.231 -12.055  17.741  0.00  0.00    +0.011 C 
ATOM     19  C   UNL     1      -9.331  -8.368  15.245  0.00  0.00    +0.010 C 
ENDROOT
BRANCH  14   4
ATOM      3  O   UNL     1     -11.384  -5.781  16.384  0.00  0.00    -0.270 OA
ATOM      4  N   UNL     1     -12.037  -8.005  16.351  0.00  0.00    -0.308 N 
ATOM     22  C   UNL     1     -12.158  -6.664  16.026  0.00  0.00    +0.244 C 
ATOM     33  H   UNL     1     -12.775  -8.660  16.113  0.00  0.00    +0.149 HD
BRANCH  22  27
ATOM      6  N   UNL     1     -15.563  -5.634  13.646  0.00  0.00    -0.263 NA
ATOM     27  C   UNL     1     -13.339  -6.305  15.201  0.00  0.00    +0.040 A 
ATOM     29  C   UNL     1     -14.588  -6.840  15.499  0.00  0.00    +0.033 A 
ATOM     30  C   UNL     1     -13.202  -5.434  14.126  0.00  0.00    +0.033 A 
ATOM     31  C   UNL     1     -15.658  -6.477  14.699  0.00  0.00    +0.111 A 
ATOM     32  C   UNL     1     -14.334  -5.133  13.387  0.00  0.00    +0.111 A 
ENDBRANCH  22  27
ENDBRANCH  14   4
BRANCH  10   1
ATOM      1  O   UNL     1      -6.954  -9.763  15.705  0.00  0.00    -0.391 OA
ATOM     34  H   UNL     1      -7.586  -9.109  15.363  0.00  0.00    +0.210 HD
ENDBRANCH  10   1
BRANCH  12  18
ATOM     18  C   UNL     1      -5.586 -12.130  16.783  0.00  0.00    +0.078 C 
ATOM     20  C   UNL     1      -5.687 -13.593  17.174  0.00  0.00    +0.017 C 
BRANCH  18  21
ATOM      2  O   UNL     1      -3.978 -11.264  18.293  0.00  0.00    -0.275 OA
ATOM      5  N   UNL     1      -3.301 -11.508  16.083  0.00  0.00    -0.301 N 
ATOM     21  C   UNL     1      -4.220 -11.595  17.129  0.00  0.00    +0.219 C 
ATOM     23  C   UNL     1      -3.544 -11.935  14.699  0.00  0.00    +0.108 C 
ATOM     24  C   UNL     1      -1.953 -10.996  16.339  0.00  0.00    +0.108 C 
ATOM     25  C   UNL     1      -3.238 -10.803  13.721  0.00  0.00    +0.019 C 
ATOM     26  C   UNL     1      -1.617  -9.847  15.392  0.00  0.00    +0.019 C 
ATOM     28  C   UNL     1      -1.830 -10.250  13.934  0.00  0.00    +0.003 C 
ENDBRANCH  18  21
ENDBRANCH  12  18
TORSDOF 5
ENDMDL
MODEL 4
REMARK VINA RESULT:      -6.5     18.344     20.142
REMARK  Name = 45361572
REMARK  8 active torsions:
REMARK  status: ('A' for Active; 'I' for Inactive)
REMARK    1  A    between atoms: O_1  and  C_10
REMARK    2  A    between atoms: N_4  and  C_14
REMARK    3  A    between atoms: C_7  and  C_17
REMARK    4  A    between atoms: C_9  and  C_19
REMARK    5  A    between atoms: C_12  and  C_18
REMARK    6  A    between atoms: C_18  and  C_20
REMARK    7  A    between atoms: C_18  and  C_21
REMARK    8  A    between atoms: C_22  and  C_27
REMARK                            x       y       z     vdW  Elec       q    Type
REMARK                         _______ _______ _______ _____ _____    ______ ____
ROOT
ATOM      7  C   UNL     1     -15.242   7.570  20.465  0.00  0.00    -0.027 C 
ATOM      8  C   UNL     1     -13.893   6.864  20.831  0.00  0.00    +0.028 C 
ATOM      9  C   UNL     1     -14.099   5.844  22.007  0.00  0.00    +0.012 C 
ATOM     10  C   UNL     1     -12.752   7.900  21.036  0.00  0.00    +0.122 C 
ATOM     11  C   UNL     1     -15.029   8.481  19.233  0.00  0.00    +0.007 C 
ATOM     12  C   UNL     1     -12.612   8.876  19.844  0.00  0.00    +0.029 C 
ATOM     13  C   UNL     1     -16.285   6.496  20.082  0.00  0.00    +0.009 C 
ATOM     14  C   UNL     1     -15.204   4.814  21.641  0.00  0.00    +0.076 C 
ATOM     15  C   UNL     1     -13.939   9.523  19.444  0.00  0.00    +0.007 C 
ATOM     16  C   UNL     1     -16.508   5.462  21.175  0.00  0.00    +0.023 C 
ATOM     17  C   UNL     1     -15.797   8.430  21.628  0.00  0.00    +0.011 C 
ATOM     19  C   UNL     1     -12.816   5.091  22.400  0.00  0.00    +0.010 C 
ENDROOT
BRANCH  14   4
ATOM      3  O   UNL     1     -16.311   5.560  24.182  0.00  0.00    -0.270 OA
ATOM      4  N   UNL     1     -15.501   3.929  22.748  0.00  0.00    -0.308 N 
ATOM     22  C   UNL     1     -16.036   4.388  23.940  0.00  0.00    +0.244 C 
ATOM     33  H   UNL     1     -15.195   2.965  22.660  0.00  0.00    +0.149 HD
BRANCH  22  27
ATOM      6  N   UNL     1     -16.671   1.418  26.956  0.00  0.00    -0.263 NA
ATOM     27  C   UNL     1     -16.258   3.358  24.986  0.00  0.00    +0.040 A 
ATOM     29  C   UNL     1     -16.096   3.681  26.329  0.00  0.00    +0.033 A 
ATOM     30  C   UNL     1     -16.627   2.066  24.628  0.00  0.00    +0.033 A 
ATOM     31  C   UNL     1     -16.312   2.684  27.266  0.00  0.00    +0.111 A 
ATOM     32  C   UNL     1     -16.820   1.142  25.641  0.00  0.00    +0.111 A 
ENDBRANCH  22  27
ENDBRANCH  14   4
BRANCH  10   1
ATOM      1  O   UNL     1     -11.503   7.218  21.153  0.00  0.00    -0.391 OA
ATOM     34  H   UNL     1     -10.841   7.854  21.473  0.00  0.00    +0.210 HD
ENDBRANCH  10   1
BRANCH  12  18
ATOM     18  C   UNL     1     -11.572   9.968  20.121  0.00  0.00    +0.078 C 
ATOM     20  C   UNL     1     -11.975  10.819  21.312  0.00  0.00    +0.017 C 
BRANCH  18  21
ATOM      2  O   UNL     1     -11.911  11.970  18.899  0.00  0.00    -0.275 OA
ATOM      5  N   UNL     1     -10.777  10.265  17.801  0.00  0.00    -0.301 N 
ATOM     21  C   UNL     1     -11.439  10.830  18.891  0.00  0.00    +0.219 C 
ATOM     23  C   UNL     1     -10.168   8.929  17.776  0.00  0.00    +0.108 C 
ATOM     24  C   UNL     1     -10.611  11.038  16.569  0.00  0.00    +0.108 C 
ATOM     25  C   UNL     1     -10.690   8.117  16.593  0.00  0.00    +0.019 C 
ATOM     26  C   UNL     1     -11.142  10.266  15.364  0.00  0.00    +0.019 C 
ATOM     28  C   UNL     1     -10.516   8.875  15.278  0.00  0.00    +0.003 C 
ENDBRANCH  18  21
ENDBRANCH  12  18
TORSDOF 5
ENDMDL
MODEL 5
REMARK VINA RESULT:      -6.3      3.560      8.691
REMARK  Name = 45361572
REMARK  8 active torsions:
REMARK  status: ('A' for Active; 'I' for Inactive)
REMARK    1  A    between atoms: O_1  and  C_10
REMARK    2  A    between atoms: N_4  and  C_14
REMARK    3  A    between atoms: C_7  and  C_17
REMARK    4  A    between atoms: C_9  and  C_19
REMARK    5  A    between atoms: C_12  and  C_18
REMARK    6  A    between atoms: C_18  and  C_20
REMARK    7  A    between atoms: C_18  and  C_21
REMARK    8  A    between atoms: C_22  and  C_27
REMARK                            x       y       z     vdW  Elec       q    Type
REMARK                         _______ _______ _______ _____ _____    ______ ____
ROOT
ATOM      7  C   UNL     1      -3.587 -11.199  11.227  0.00  0.00    -0.027 C 
ATOM      8  C   UNL     1      -5.021 -10.851  11.750  0.00  0.00    +0.028 C 
ATOM      9  C   UNL     1      -5.781  -9.935  10.725  0.00  0.00    +0.012 C 
ATOM     10  C   UNL     1      -4.975 -10.323  13.212  0.00  0.00    +0.122 C 
ATOM     11  C   UNL     1      -2.910 -12.190  12.203  0.00  0.00    +0.007 C 
ATOM     12  C   UNL     1      -4.206 -11.270  14.163  0.00  0.00    +0.029 C 
ATOM     13  C   UNL     1      -3.707 -11.897   9.853  0.00  0.00    +0.009 C 
ATOM     14  C   UNL     1      -5.830 -10.614   9.328  0.00  0.00    +0.076 C 
ATOM     15  C   UNL     1      -2.827 -11.661  13.628  0.00  0.00    +0.007 C 
ATOM     16  C   UNL     1      -4.459 -11.066   8.824  0.00  0.00    +0.023 C 
ATOM     17  C   UNL     1      -2.686  -9.946  11.086  0.00  0.00    +0.011 C 
ATOM     19  C   UNL     1      -7.212  -9.576  11.163  0.00  0.00    +0.010 C 
ENDROOT
BRANCH  14   4
ATOM      3  O   UNL     1      -7.824 -11.338   7.393  0.00  0.00    -0.270 OA
ATOM      4  N   UNL     1      -6.423  -9.747   8.330  0.00  0.00    -0.308 N 
ATOM     22  C   UNL     1      -7.382 -10.194   7.437  0.00  0.00    +0.244 C 
ATOM     33  H   UNL     1      -6.024  -8.819   8.235  0.00  0.00    +0.149 HD
BRANCH  22  27
ATOM      6  N   UNL     1      -8.793  -7.297   4.619  0.00  0.00    -0.263 NA
ATOM     27  C   UNL     1      -7.870  -9.188   6.460  0.00  0.00    +0.040 A 
ATOM     29  C   UNL     1      -8.869  -8.291   6.821  0.00  0.00    +0.033 A 
ATOM     30  C   UNL     1      -7.331  -9.139   5.179  0.00  0.00    +0.033 A 
ATOM     31  C   UNL     1      -9.292  -7.373   5.873  0.00  0.00    +0.111 A 
ATOM     32  C   UNL     1      -7.823  -8.184   4.304  0.00  0.00    +0.111 A 
ENDBRANCH  22  27
ENDBRANCH  14   4
BRANCH  10   1
ATOM      1  O   UNL     1      -6.304 -10.223  13.725  0.00  0.00    -0.391 OA
ATOM     34  H   UNL     1      -6.856 -10.876  13.263  0.00  0.00    +0.210 HD
ENDBRANCH  10   1
BRANCH  12  18
ATOM     18  C   UNL     1      -4.059 -10.672  15.568  0.00  0.00    +0.078 C 
ATOM     20  C   UNL     1      -2.599 -10.564  15.967  0.00  0.00    +0.017 C 
BRANCH  18  21
ATOM      2  O   UNL     1      -4.457 -12.728  16.677  0.00  0.00    -0.275 OA
ATOM      5  N   UNL     1      -5.848 -10.955  17.247  0.00  0.00    -0.301 N 
ATOM     21  C   UNL     1      -4.800 -11.549  16.544  0.00  0.00    +0.219 C 
ATOM     23  C   UNL     1      -6.251  -9.547  17.143  0.00  0.00    +0.108 C 
ATOM     24  C   UNL     1      -6.617 -11.743  18.212  0.00  0.00    +0.108 C 
ATOM     25  C   UNL     1      -7.739  -9.431  16.822  0.00  0.00    +0.019 C 
ATOM     26  C   UNL     1      -8.111 -11.669  17.910  0.00  0.00    +0.019 C 
ATOM     28  C   UNL     1      -8.586 -10.220  17.818  0.00  0.00    +0.003 C 
ENDBRANCH  18  21
ENDBRANCH  12  18
TORSDOF 5
ENDMDL
MODEL 6
REMARK VINA RESULT:      -6.2     24.920     28.005
REMARK  Name = 45361572
REMARK  8 active torsions:
REMARK  status: ('A' for Active; 'I' for Inactive)
REMARK    1  A    between atoms: O_1  and  C_10
REMARK    2  A    between atoms: N_4  and  C_14
REMARK    3  A    between atoms: C_7  and  C_17
REMARK    4  A    between atoms: C_9  and  C_19
REMARK    5  A    between atoms: C_12  and  C_18
REMARK    6  A    between atoms: C_18  and  C_20
REMARK    7  A    between atoms: C_18  and  C_21
REMARK    8  A    between atoms: C_22  and  C_27
REMARK                            x       y       z     vdW  Elec       q    Type
REMARK                         _______ _______ _______ _____ _____    ______ ____
ROOT
ATOM      7  C   UNL     1      13.209   4.553   0.891  0.00  0.00    -0.027 C 
ATOM      8  C   UNL     1      11.822   5.155   0.488  0.00  0.00    +0.028 C 
ATOM      9  C   UNL     1      11.005   5.576   1.762  0.00  0.00    +0.012 C 
ATOM     10  C   UNL     1      11.072   4.228  -0.510  0.00  0.00    +0.122 C 
ATOM     11  C   UNL     1      14.031   4.255  -0.385  0.00  0.00    +0.007 C 
ATOM     12  C   UNL     1      11.938   3.849  -1.735  0.00  0.00    +0.029 C 
ATOM     13  C   UNL     1      13.990   5.597   1.722  0.00  0.00    +0.009 C 
ATOM     14  C   UNL     1      11.830   6.568   2.629  0.00  0.00    +0.076 C 
ATOM     15  C   UNL     1      13.318   3.315  -1.348  0.00  0.00    +0.007 C 
ATOM     16  C   UNL     1      13.235   6.063   2.958  0.00  0.00    +0.023 C 
ATOM     17  C   UNL     1      13.073   3.245   1.711  0.00  0.00    +0.011 C 
ATOM     19  C   UNL     1       9.638   6.204   1.438  0.00  0.00    +0.010 C 
ENDROOT
BRANCH  14   4
ATOM      3  O   UNL     1      10.714   4.700   4.502  0.00  0.00    -0.270 OA
ATOM      4  N   UNL     1      11.154   6.886   3.870  0.00  0.00    -0.308 N 
ATOM     22  C   UNL     1      10.648   5.908   4.709  0.00  0.00    +0.244 C 
ATOM     33  H   UNL     1      10.964   7.867   4.050  0.00  0.00    +0.149 HD
BRANCH  22  27
ATOM      6  N   UNL     1       8.668   7.329   8.228  0.00  0.00    -0.263 NA
ATOM     27  C   UNL     1       9.960   6.400   5.930  0.00  0.00    +0.040 A 
ATOM     29  C   UNL     1       9.019   7.420   5.838  0.00  0.00    +0.033 A 
ATOM     30  C   UNL     1      10.254   5.844   7.170  0.00  0.00    +0.033 A 
ATOM     31  C   UNL     1       8.407   7.845   7.006  0.00  0.00    +0.111 A 
ATOM     32  C   UNL     1       9.587   6.340   8.278  0.00  0.00    +0.111 A 
ENDBRANCH  22  27
ENDBRANCH  14   4
BRANCH  10   1
ATOM      1  O   UNL     1       9.921   4.904  -1.018  0.00  0.00    -0.391 OA
ATOM     34  H   UNL     1      10.225   5.616  -1.607  0.00  0.00    +0.210 HD
ENDBRANCH  10   1
BRANCH  12  18
ATOM     18  C   UNL     1      11.231   2.832  -2.640  0.00  0.00    +0.078 C 
ATOM     20  C   UNL     1      11.767   1.430  -2.411  0.00  0.00    +0.017 C 
BRANCH  18  21
ATOM      2  O   UNL     1      12.562   3.126  -4.578  0.00  0.00    -0.275 OA
ATOM      5  N   UNL     1      10.324   3.728  -4.756  0.00  0.00    -0.301 N 
ATOM     21  C   UNL     1      11.440   3.239  -4.076  0.00  0.00    +0.219 C 
ATOM     23  C   UNL     1       8.969   3.832  -4.200  0.00  0.00    +0.108 C 
ATOM     24  C   UNL     1      10.448   4.145  -6.154  0.00  0.00    +0.108 C 
ATOM     25  C   UNL     1       8.428   5.252  -4.355  0.00  0.00    +0.019 C 
ATOM     26  C   UNL     1       9.936   5.570  -6.345  0.00  0.00    +0.019 C 
ATOM     28  C   UNL     1       8.515   5.724  -5.805  0.00  0.00    +0.003 C 
ENDBRANCH  18  21
ENDBRANCH  12  18
TORSDOF 5
ENDMDL
MODEL 7
REMARK VINA RESULT:      -6.1     25.351     31.157
REMARK  Name = 45361572
REMARK  8 active torsions:
REMARK  status: ('A' for Active; 'I' for Inactive)
REMARK    1  A    between atoms: O_1  and  C_10
REMARK    2  A    between atoms: N_4  and  C_14
REMARK    3  A    between atoms: C_7  and  C_17
REMARK    4  A    between atoms: C_9  and  C_19
REMARK    5  A    between atoms: C_12  and  C_18
REMARK    6  A    between atoms: C_18  and  C_20
REMARK    7  A    between atoms: C_18  and  C_21
REMARK    8  A    between atoms: C_22  and  C_27
REMARK                            x       y       z     vdW  Elec       q    Type
REMARK                         _______ _______ _______ _____ _____    ______ ____
ROOT
ATOM      7  C   UNL     1      14.422   6.833   1.058  0.00  0.00    -0.027 C 
ATOM      8  C   UNL     1      14.238   7.123   2.585  0.00  0.00    +0.028 C 
ATOM      9  C   UNL     1      15.615   7.042   3.338  0.00  0.00    +0.012 C 
ATOM     10  C   UNL     1      13.094   6.260   3.190  0.00  0.00    +0.122 C 
ATOM     11  C   UNL     1      13.072   7.031   0.330  0.00  0.00    +0.007 C 
ATOM     12  C   UNL     1      11.773   6.383   2.394  0.00  0.00    +0.029 C 
ATOM     13  C   UNL     1      15.428   7.848   0.469  0.00  0.00    +0.009 C 
ATOM     14  C   UNL     1      16.641   8.012   2.690  0.00  0.00    +0.076 C 
ATOM     15  C   UNL     1      11.958   6.159   0.892  0.00  0.00    +0.007 C 
ATOM     16  C   UNL     1      16.775   7.834   1.177  0.00  0.00    +0.023 C 
ATOM     17  C   UNL     1      14.928   5.394   0.783  0.00  0.00    +0.011 C 
ATOM     19  C   UNL     1      15.512   7.346   4.843  0.00  0.00    +0.010 C 
ENDROOT
BRANCH  14   4
ATOM      3  O   UNL     1      18.128  10.065   4.039  0.00  0.00    -0.270 OA
ATOM      4  N   UNL     1      17.955   7.879   3.285  0.00  0.00    -0.308 N 
ATOM     22  C   UNL     1      18.592   8.935   3.917  0.00  0.00    +0.244 C 
ATOM     33  H   UNL     1      18.445   7.006   3.124  0.00  0.00    +0.149 HD
BRANCH  22  27
ATOM      6  N   UNL     1      22.493   8.091   5.464  0.00  0.00    -0.263 NA
ATOM     27  C   UNL     1      19.946   8.642   4.452  0.00  0.00    +0.040 A 
ATOM     29  C   UNL     1      20.393   7.328   4.542  0.00  0.00    +0.033 A 
ATOM     30  C   UNL     1      20.773   9.681   4.867  0.00  0.00    +0.033 A 
ATOM     31  C   UNL     1      21.662   7.108   5.050  0.00  0.00    +0.111 A 
ATOM     32  C   UNL     1      22.025   9.355   5.361  0.00  0.00    +0.111 A 
ENDBRANCH  22  27
ENDBRANCH  14   4
BRANCH  10   1
ATOM      1  O   UNL     1      12.813   6.703   4.518  0.00  0.00    -0.391 OA
ATOM     34  H   UNL     1      13.658   6.906   4.953  0.00  0.00    +0.210 HD
ENDBRANCH  10   1
BRANCH  12  18
ATOM     18  C   UNL     1      10.697   5.428   2.926  0.00  0.00    +0.078 C 
ATOM     20  C   UNL     1      10.168   4.530   1.822  0.00  0.00    +0.017 C 
BRANCH  18  21
ATOM      2  O   UNL     1       9.041   7.119   2.822  0.00  0.00    -0.275 OA
ATOM      5  N   UNL     1       9.207   5.952   4.825  0.00  0.00    -0.301 N 
ATOM     21  C   UNL     1       9.574   6.246   3.512  0.00  0.00    +0.219 C 
ATOM     23  C   UNL     1       9.793   4.891   5.655  0.00  0.00    +0.108 C 
ATOM     24  C   UNL     1       8.126   6.705   5.465  0.00  0.00    +0.108 C 
ATOM     25  C   UNL     1      10.285   5.454   6.986  0.00  0.00    +0.019 C 
ATOM     26  C   UNL     1       8.588   7.302   6.792  0.00  0.00    +0.019 C 
ATOM     28  C   UNL     1       9.183   6.230   7.703  0.00  0.00    +0.003 C 
ENDBRANCH  18  21
ENDBRANCH  12  18
TORSDOF 5
ENDMDL
MODEL 8
REMARK VINA RESULT:      -6.0      3.858      6.798
REMARK  Name = 45361572
REMARK  8 active torsions:
REMARK  status: ('A' for Active; 'I' for Inactive)
REMARK    1  A    between atoms: O_1  and  C_10
REMARK    2  A    between atoms: N_4  and  C_14
REMARK    3  A    between atoms: C_7  and  C_17
REMARK    4  A    between atoms: C_9  and  C_19
REMARK    5  A    between atoms: C_12  and  C_18
REMARK    6  A    between atoms: C_18  and  C_20
REMARK    7  A    between atoms: C_18  and  C_21
REMARK    8  A    between atoms: C_22  and  C_27
REMARK                            x       y       z     vdW  Elec       q    Type
REMARK                         _______ _______ _______ _____ _____    ______ ____
ROOT
ATOM      7  C   UNL     1      -3.938 -10.873  11.113  0.00  0.00    -0.027 C 
ATOM      8  C   UNL     1      -5.392 -10.559  11.599  0.00  0.00    +0.028 C 
ATOM      9  C   UNL     1      -5.595 -11.022  13.086  0.00  0.00    +0.012 C 
ATOM     10  C   UNL     1      -6.451 -11.081  10.586  0.00  0.00    +0.122 C 
ATOM     11  C   UNL     1      -3.737 -10.304   9.688  0.00  0.00    +0.007 C 
ATOM     12  C   UNL     1      -6.184 -10.592   9.143  0.00  0.00    +0.029 C 
ATOM     13  C   UNL     1      -2.930 -10.167  12.048  0.00  0.00    +0.009 C 
ATOM     14  C   UNL     1      -4.529 -10.364  14.006  0.00  0.00    +0.076 C 
ATOM     15  C   UNL     1      -4.747 -10.843   8.684  0.00  0.00    +0.007 C 
ATOM     16  C   UNL     1      -3.096 -10.557  13.509  0.00  0.00    +0.023 C 
ATOM     17  C   UNL     1      -3.634 -12.392  11.089  0.00  0.00    +0.011 C 
ATOM     19  C   UNL     1      -6.998 -10.717  13.641  0.00  0.00    +0.010 C 
ENDROOT
BRANCH  14   4
ATOM      3  O   UNL     1      -5.576  -8.959  16.280  0.00  0.00    -0.270 OA
ATOM      4  N   UNL     1      -4.614 -10.859  15.365  0.00  0.00    -0.308 N 
ATOM     22  C   UNL     1      -5.138 -10.099  16.398  0.00  0.00    +0.244 C 
ATOM     33  H   UNL     1      -4.168 -11.750  15.557  0.00  0.00    +0.149 HD
BRANCH  22  27
ATOM      6  N   UNL     1      -5.116 -11.952  20.257  0.00  0.00    -0.263 NA
ATOM     27  C   UNL     1      -5.130 -10.741  17.737  0.00  0.00    +0.040 A 
ATOM     29  C   UNL     1      -4.108 -11.617  18.086  0.00  0.00    +0.033 A 
ATOM     30  C   UNL     1      -6.145 -10.469  18.648  0.00  0.00    +0.033 A 
ATOM     31  C   UNL     1      -4.146 -12.191  19.345  0.00  0.00    +0.111 A 
ATOM     32  C   UNL     1      -6.092 -11.095  19.883  0.00  0.00    +0.111 A 
ENDBRANCH  22  27
ENDBRANCH  14   4
BRANCH  10   1
ATOM      1  O   UNL     1      -7.742 -10.591  10.951  0.00  0.00    -0.391 OA
ATOM     34  H   UNL     1      -8.409 -11.148  10.515  0.00  0.00    +0.210 HD
ENDBRANCH  10   1
BRANCH  12  18
ATOM     18  C   UNL     1      -7.159 -11.221   8.140  0.00  0.00    +0.078 C 
ATOM     20  C   UNL     1      -6.609 -12.521   7.583  0.00  0.00    +0.017 C 
BRANCH  18  21
ATOM      2  O   UNL     1      -6.654 -10.251   6.037  0.00  0.00    -0.275 OA
ATOM      5  N   UNL     1      -8.472  -9.362   7.180  0.00  0.00    -0.301 N 
ATOM     21  C   UNL     1      -7.399 -10.239   7.021  0.00  0.00    +0.219 C 
ATOM     23  C   UNL     1      -9.402  -9.352   8.316  0.00  0.00    +0.108 C 
ATOM     24  C   UNL     1      -8.768  -8.377   6.137  0.00  0.00    +0.108 C 
ATOM     25  C   UNL     1      -9.480  -7.961   8.941  0.00  0.00    +0.019 C 
ATOM     26  C   UNL     1      -8.833  -6.968   6.721  0.00  0.00    +0.019 C 
ATOM     28  C   UNL     1      -9.810  -6.900   7.894  0.00  0.00    +0.003 C 
ENDBRANCH  18  21
ENDBRANCH  12  18
TORSDOF 5
ENDMDL
MODEL 9
REMARK VINA RESULT:      -5.9      5.245      9.412
REMARK  Name = 45361572
REMARK  8 active torsions:
REMARK  status: ('A' for Active; 'I' for Inactive)
REMARK    1  A    between atoms: O_1  and  C_10
REMARK    2  A    between atoms: N_4  and  C_14
REMARK    3  A    between atoms: C_7  and  C_17
REMARK    4  A    between atoms: C_9  and  C_19
REMARK    5  A    between atoms: C_12  and  C_18
REMARK    6  A    between atoms: C_18  and  C_20
REMARK    7  A    between atoms: C_18  and  C_21
REMARK    8  A    between atoms: C_22  and  C_27
REMARK                            x       y       z     vdW  Elec       q    Type
REMARK                         _______ _______ _______ _____ _____    ______ ____
ROOT
ATOM      7  C   UNL     1     -12.184  -8.939  13.318  0.00  0.00    -0.027 C 
ATOM      8  C   UNL     1     -11.625  -7.732  14.143  0.00  0.00    +0.028 C 
ATOM      9  C   UNL     1     -10.924  -8.231  15.457  0.00  0.00    +0.012 C 
ATOM     10  C   UNL     1     -12.708  -6.633  14.339  0.00  0.00    +0.122 C 
ATOM     11  C   UNL     1     -12.766  -8.425  11.981  0.00  0.00    +0.007 C 
ATOM     12  C   UNL     1     -13.360  -6.196  13.006  0.00  0.00    +0.029 C 
ATOM     13  C   UNL     1     -11.023  -9.905  12.987  0.00  0.00    +0.009 C 
ATOM     14  C   UNL     1      -9.808  -9.257  15.117  0.00  0.00    +0.076 C 
ATOM     15  C   UNL     1     -13.855  -7.377  12.169  0.00  0.00    +0.007 C 
ATOM     16  C   UNL     1     -10.287 -10.401  14.223  0.00  0.00    +0.023 C 
ATOM     17  C   UNL     1     -13.291  -9.715  14.077  0.00  0.00    +0.011 C 
ATOM     19  C   UNL     1     -10.324  -7.095  16.304  0.00  0.00    +0.010 C 
ENDROOT
BRANCH  14   4
ATOM      3  O   UNL     1      -7.011  -9.662  15.622  0.00  0.00    -0.270 OA
ATOM      4  N   UNL     1      -9.218  -9.825  16.312  0.00  0.00    -0.308 N 
ATOM     22  C   UNL     1      -7.850  -9.980  16.460  0.00  0.00    +0.244 C 
ATOM     33  H   UNL     1      -9.857 -10.213  16.999  0.00  0.00    +0.149 HD
BRANCH  22  27
ATOM      6  N   UNL     1      -6.569 -11.776  20.129  0.00  0.00    -0.263 NA
ATOM     27  C   UNL     1      -7.407 -10.602  17.734  0.00  0.00    +0.040 A 
ATOM     29  C   UNL     1      -6.083 -10.484  18.145  0.00  0.00    +0.033 A 
ATOM     30  C   UNL     1      -8.312 -11.306  18.520  0.00  0.00    +0.033 A 
ATOM     31  C   UNL     1      -5.718 -11.084  19.339  0.00  0.00    +0.111 A 
ATOM     32  C   UNL     1      -7.847 -11.870  19.697  0.00  0.00    +0.111 A 
ENDBRANCH  22  27
ENDBRANCH  14   4
BRANCH  10   1
ATOM      1  O   UNL     1     -12.107  -5.465  14.900  0.00  0.00    -0.391 OA
ATOM     34  H   UNL     1     -11.191  -5.413  14.578  0.00  0.00    +0.210 HD
ENDBRANCH  10   1
BRANCH  12  18
ATOM     18  C   UNL     1     -14.513  -5.210  13.232  0.00  0.00    +0.078 C 
ATOM     20  C   UNL     1     -15.679  -5.882  13.934  0.00  0.00    +0.017 C 
BRANCH  18  21
ATOM      2  O   UNL     1     -16.090  -4.930  11.486  0.00  0.00    -0.275 OA
ATOM      5  N   UNL     1     -14.027  -3.900  11.195  0.00  0.00    -0.301 N 
ATOM     21  C   UNL     1     -14.955  -4.671  11.895  0.00  0.00    +0.219 C 
ATOM     23  C   UNL     1     -12.687  -3.539  11.675  0.00  0.00    +0.108 C 
ATOM     24  C   UNL     1     -14.381  -3.343   9.888  0.00  0.00    +0.108 C 
ATOM     25  C   UNL     1     -11.622  -3.928  10.653  0.00  0.00    +0.019 C 
ATOM     26  C   UNL     1     -13.349  -3.729   8.833  0.00  0.00    +0.019 C 
ATOM     28  C   UNL     1     -11.937  -3.350   9.274  0.00  0.00    +0.003 C 
ENDBRANCH  18  21
ENDBRANCH  12  18
TORSDOF 5
ENDMDL
MODEL 10
REMARK VINA RESULT:      -5.9     18.645     19.861
REMARK  Name = 45361572
REMARK  8 active torsions:
REMARK  status: ('A' for Active; 'I' for Inactive)
REMARK    1  A    between atoms: O_1  and  C_10
REMARK    2  A    between atoms: N_4  and  C_14
REMARK    3  A    between atoms: C_7  and  C_17
REMARK    4  A    between atoms: C_9  and  C_19
REMARK    5  A    between atoms: C_12  and  C_18
REMARK    6  A    between atoms: C_18  and  C_20
REMARK    7  A    between atoms: C_18  and  C_21
REMARK    8  A    between atoms: C_22  and  C_27
REMARK                            x       y       z     vdW  Elec       q    Type
REMARK                         _______ _______ _______ _____ _____    ______ ____
ROOT
ATOM      7  C   UNL     1     -12.647   8.422  20.534  0.00  0.00    -0.027 C 
ATOM      8  C   UNL     1     -13.873   8.190  19.589  0.00  0.00    +0.028 C 
ATOM      9  C   UNL     1     -14.816   7.072  20.162  0.00  0.00    +0.012 C 
ATOM     10  C   UNL     1     -13.418   7.991  18.115  0.00  0.00    +0.122 C 
ATOM     11  C   UNL     1     -11.801   9.603  20.002  0.00  0.00    +0.007 C 
ATOM     12  C   UNL     1     -12.487   9.124  17.621  0.00  0.00    +0.029 C 
ATOM     13  C   UNL     1     -13.161   8.806  21.941  0.00  0.00    +0.009 C 
ATOM     14  C   UNL     1     -15.266   7.433  21.604  0.00  0.00    +0.076 C 
ATOM     15  C   UNL     1     -11.321   9.395  18.572  0.00  0.00    +0.007 C 
ATOM     16  C   UNL     1     -14.102   7.771  22.537  0.00  0.00    +0.023 C 
ATOM     17  C   UNL     1     -11.739   7.171  20.647  0.00  0.00    +0.011 C 
ATOM     19  C   UNL     1     -16.060   6.812  19.294  0.00  0.00    +0.010 C 
ENDROOT
BRANCH  14   4
ATOM      3  O   UNL     1     -14.445   4.706  21.969  0.00  0.00    -0.270 OA
ATOM      4  N   UNL     1     -16.043   6.369  22.206  0.00  0.00    -0.308 N 
ATOM     22  C   UNL     1     -15.555   5.080  22.337  0.00  0.00    +0.244 C 
ATOM     33  H   UNL     1     -17.010   6.578  22.430  0.00  0.00    +0.149 HD
BRANCH  22  27
ATOM      6  N   UNL     1     -18.233   2.248  24.107  0.00  0.00    -0.263 NA
ATOM     27  C   UNL     1     -16.485   4.098  22.951  0.00  0.00    +0.040 A 
ATOM     29  C   UNL     1     -16.083   3.351  24.053  0.00  0.00    +0.033 A 
ATOM     30  C   UNL     1     -17.761   3.922  22.428  0.00  0.00    +0.033 A 
ATOM     31  C   UNL     1     -16.985   2.447  24.588  0.00  0.00    +0.111 A 
ATOM     32  C   UNL     1     -18.589   2.993  23.037  0.00  0.00    +0.111 A 
ENDBRANCH  22  27
ENDBRANCH  14   4
BRANCH  10   1
ATOM      1  O   UNL     1     -14.560   8.000  17.258  0.00  0.00    -0.391 OA
ATOM     34  H   UNL     1     -14.334   8.505  16.459  0.00  0.00    +0.210 HD
ENDBRANCH  10   1
BRANCH  12  18
ATOM     18  C   UNL     1     -11.946   8.844  16.214  0.00  0.00    +0.078 C 
ATOM     20  C   UNL     1     -10.456   9.120  16.135  0.00  0.00    +0.017 C 
BRANCH  18  21
ATOM      2  O   UNL     1     -12.878  10.903  15.502  0.00  0.00    -0.275 OA
ATOM      5  N   UNL     1     -13.117   9.102  14.054  0.00  0.00    -0.301 N 
ATOM     21  C   UNL     1     -12.687   9.715  15.231  0.00  0.00    +0.219 C 
ATOM     23  C   UNL     1     -12.867   7.703  13.683  0.00  0.00    +0.108 C 
ATOM     24  C   UNL     1     -13.845   9.882  13.051  0.00  0.00    +0.108 C 
ATOM     25  C   UNL     1     -14.173   6.992  13.339  0.00  0.00    +0.019 C 
ATOM     26  C   UNL     1     -15.170   9.212  12.695  0.00  0.00    +0.019 C 
ATOM     28  C   UNL     1     -14.960   7.758  12.277  0.00  0.00    +0.003 C 
ENDBRANCH  18  21
ENDBRANCH  12  18
TORSDOF 5
ENDMDL
