MODEL 1
REMARK VINA RESULT:      -6.0      0.000      0.000
REMARK  Name = 75368653
REMARK  4 active torsions:
REMARK  status: ('A' for Active; 'I' for Inactive)
REMARK    1  A    between atoms: N_2  and  C_6
REMARK    2  A    between atoms: N_4  and  C_17
REMARK    3  A    between atoms: C_17  and  C_18
REMARK    4  A    between atoms: C_17  and  C_19
REMARK                            x       y       z     vdW  Elec       q    Type
REMARK                         _______ _______ _______ _____ _____    ______ ____
ROOT
ATOM      1  O   UNL     1      -1.742 -10.555  15.865  0.00  0.00    -0.252 OA
ATOM      2  N   UNL     1      -4.089 -10.697  15.669  0.00  0.00    -0.281 N 
ATOM      3  N   UNL     1      -2.843 -10.783  13.802  0.00  0.00    -0.278 N 
ATOM      4  N   UNL     1      -3.470 -10.332  11.098  0.00  0.00    -0.297 NA
ATOM      5  C   UNL     1      -4.197 -11.020  13.347  0.00  0.00    +0.109 C 
ATOM      7  C   UNL     1      -5.050 -10.731  14.580  0.00  0.00    +0.133 C 
ATOM      8  C   UNL     1      -4.509 -10.147  12.131  0.00  0.00    +0.108 C 
ATOM      9  C   UNL     1      -1.760 -10.794  12.842  0.00  0.00    +0.125 C 
ATOM     12  C   UNL     1      -2.761 -10.668  15.197  0.00  0.00    +0.305 C 
ATOM     13  C   UNL     1      -2.139  -9.958  11.616  0.00  0.00    +0.103 C 
ENDROOT
BRANCH   2   6
ATOM      6  C   UNL     1      -4.497 -10.555  17.046  0.00  0.00    +0.078 C 
ATOM     10  C   UNL     1      -4.131 -11.808  17.846  0.00  0.00    +0.022 C 
ATOM     11  C   UNL     1      -5.994 -10.252  17.139  0.00  0.00    +0.022 C 
ATOM     14  C   UNL     1      -4.598 -11.706  19.295  0.00  0.00    +0.002 C 
ATOM     15  C   UNL     1      -6.458 -10.152  18.590  0.00  0.00    +0.002 C 
ATOM     16  C   UNL     1      -6.090 -11.400  19.387  0.00  0.00    +0.000 C 
ENDBRANCH   2   6
BRANCH   4  17
ATOM     17  C   UNL     1      -3.792  -9.548   9.906  0.00  0.00    +0.051 C 
ATOM     18  C   UNL     1      -4.745  -8.411  10.262  0.00  0.00    +0.024 C 
ATOM     19  C   UNL     1      -4.398 -10.461   8.845  0.00  0.00    +0.024 C 
ENDBRANCH   4  17
TORSDOF 2
ENDMDL
MODEL 2
REMARK VINA RESULT:      -5.7      2.868      7.055
REMARK  Name = 75368653
REMARK  4 active torsions:
REMARK  status: ('A' for Active; 'I' for Inactive)
REMARK    1  A    between atoms: N_2  and  C_6
REMARK    2  A    between atoms: N_4  and  C_17
REMARK    3  A    between atoms: C_17  and  C_18
REMARK    4  A    between atoms: C_17  and  C_19
REMARK                            x       y       z     vdW  Elec       q    Type
REMARK                         _______ _______ _______ _____ _____    ______ ____
ROOT
ATOM      1  O   UNL     1      -4.658 -12.935  18.259  0.00  0.00    -0.252 OA
ATOM      2  N   UNL     1      -4.957 -11.095  16.814  0.00  0.00    -0.281 N 
ATOM      3  N   UNL     1      -6.414 -11.393  18.497  0.00  0.00    -0.278 N 
ATOM      4  N   UNL     1      -9.023 -10.432  18.921  0.00  0.00    -0.297 NA
ATOM      5  C   UNL     1      -6.804 -10.134  17.897  0.00  0.00    +0.109 C 
ATOM      7  C   UNL     1      -5.960 -10.061  16.627  0.00  0.00    +0.133 C 
ATOM      8  C   UNL     1      -8.315 -10.100  17.668  0.00  0.00    +0.108 C 
ATOM      9  C   UNL     1      -7.143 -11.887  19.646  0.00  0.00    +0.125 C 
ATOM     12  C   UNL     1      -5.264 -11.933  17.905  0.00  0.00    +0.305 C 
ATOM     13  C   UNL     1      -8.649 -11.779  19.397  0.00  0.00    +0.103 C 
ENDROOT
BRANCH   2   6
ATOM      6  C   UNL     1      -3.877 -11.293  15.877  0.00  0.00    +0.078 C 
ATOM     10  C   UNL     1      -2.566 -10.742  16.445  0.00  0.00    +0.022 C 
ATOM     11  C   UNL     1      -4.209 -10.657  14.525  0.00  0.00    +0.022 C 
ATOM     14  C   UNL     1      -1.417 -10.892  15.452  0.00  0.00    +0.002 C 
ATOM     15  C   UNL     1      -3.057 -10.807  13.535  0.00  0.00    +0.002 C 
ATOM     16  C   UNL     1      -1.751 -10.261  14.104  0.00  0.00    +0.000 C 
ENDBRANCH   2   6
BRANCH   4  17
ATOM     17  C   UNL     1     -10.470 -10.342  18.728  0.00  0.00    +0.051 C 
ATOM     18  C   UNL     1     -10.814  -9.134  17.861  0.00  0.00    +0.024 C 
ATOM     19  C   UNL     1     -11.159 -10.257  20.086  0.00  0.00    +0.024 C 
ENDBRANCH   4  17
TORSDOF 2
ENDMDL
MODEL 3
REMARK VINA RESULT:      -5.6     27.151     28.414
REMARK  Name = 75368653
REMARK  4 active torsions:
REMARK  status: ('A' for Active; 'I' for Inactive)
REMARK    1  A    between atoms: N_2  and  C_6
REMARK    2  A    between atoms: N_4  and  C_17
REMARK    3  A    between atoms: C_17  and  C_18
REMARK    4  A    between atoms: C_17  and  C_19
REMARK                            x       y       z     vdW  Elec       q    Type
REMARK                         _______ _______ _______ _____ _____    ______ ____
ROOT
ATOM      1  O   UNL     1      17.937   9.437  21.479  0.00  0.00    -0.252 OA
ATOM      2  N   UNL     1      17.942   7.308  20.464  0.00  0.00    -0.281 N 
ATOM      3  N   UNL     1      16.072   8.548  20.360  0.00  0.00    -0.278 N 
ATOM      4  N   UNL     1      13.389   7.871  19.859  0.00  0.00    -0.297 NA
ATOM      5  C   UNL     1      15.782   7.385  19.549  0.00  0.00    +0.109 C 
ATOM      7  C   UNL     1      16.962   6.453  19.815  0.00  0.00    +0.133 C 
ATOM      8  C   UNL     1      14.414   6.809  19.915  0.00  0.00    +0.108 C 
ATOM      9  C   UNL     1      15.072   9.586  20.494  0.00  0.00    +0.125 C 
ATOM     12  C   UNL     1      17.387   8.547  20.845  0.00  0.00    +0.305 C 
ATOM     13  C   UNL     1      13.708   8.962  20.802  0.00  0.00    +0.103 C 
ENDROOT
BRANCH   2   6
ATOM      6  C   UNL     1      19.267   6.841  20.793  0.00  0.00    +0.078 C 
ATOM     10  C   UNL     1      19.541   5.490  20.126  0.00  0.00    +0.022 C 
ATOM     11  C   UNL     1      19.452   6.761  22.310  0.00  0.00    +0.022 C 
ATOM     14  C   UNL     1      20.918   4.948  20.500  0.00  0.00    +0.002 C 
ATOM     15  C   UNL     1      20.830   6.217  22.680  0.00  0.00    +0.002 C 
ATOM     16  C   UNL     1      21.102   4.873  22.013  0.00  0.00    +0.000 C 
ENDBRANCH   2   6
BRANCH   4  17
ATOM     17  C   UNL     1      12.066   7.318  20.149  0.00  0.00    +0.051 C 
ATOM     18  C   UNL     1      11.007   8.415  20.082  0.00  0.00    +0.024 C 
ATOM     19  C   UNL     1      12.082   6.655  21.522  0.00  0.00    +0.024 C 
ENDBRANCH   4  17
TORSDOF 2
ENDMDL
MODEL 4
REMARK VINA RESULT:      -5.6      3.118      5.137
REMARK  Name = 75368653
REMARK  4 active torsions:
REMARK  status: ('A' for Active; 'I' for Inactive)
REMARK    1  A    between atoms: N_2  and  C_6
REMARK    2  A    between atoms: N_4  and  C_17
REMARK    3  A    between atoms: C_17  and  C_18
REMARK    4  A    between atoms: C_17  and  C_19
REMARK                            x       y       z     vdW  Elec       q    Type
REMARK                         _______ _______ _______ _____ _____    ______ ____
ROOT
ATOM      1  O   UNL     1      -6.620 -10.359  19.407  0.00  0.00    -0.252 OA
ATOM      2  N   UNL     1      -7.592  -9.890  17.309  0.00  0.00    -0.281 N 
ATOM      3  N   UNL     1      -5.582 -10.889  17.368  0.00  0.00    -0.278 N 
ATOM      4  N   UNL     1      -3.543 -11.131  15.445  0.00  0.00    -0.297 NA
ATOM      5  C   UNL     1      -5.935 -10.865  15.964  0.00  0.00    +0.109 C 
ATOM      7  C   UNL     1      -7.182  -9.985  15.918  0.00  0.00    +0.133 C 
ATOM      8  C   UNL     1      -4.760 -10.356  15.129  0.00  0.00    +0.108 C 
ATOM      9  C   UNL     1      -4.332 -11.497  17.774  0.00  0.00    +0.125 C 
ATOM     12  C   UNL     1      -6.601 -10.380  18.183  0.00  0.00    +0.305 C 
ATOM     13  C   UNL     1      -3.195 -11.005  16.875  0.00  0.00    +0.103 C 
ENDROOT
BRANCH   2   6
ATOM      6  C   UNL     1      -8.811  -9.225  17.704  0.00  0.00    +0.078 C 
ATOM     10  C   UNL     1      -9.903 -10.251  18.022  0.00  0.00    +0.022 C 
ATOM     11  C   UNL     1      -9.267  -8.242  16.624  0.00  0.00    +0.022 C 
ATOM     14  C   UNL     1     -11.219  -9.573  18.393  0.00  0.00    +0.002 C 
ATOM     15  C   UNL     1     -10.584  -7.567  16.998  0.00  0.00    +0.002 C 
ATOM     16  C   UNL     1     -11.670  -8.590  17.317  0.00  0.00    +0.000 C 
ENDBRANCH   2   6
BRANCH   4  17
ATOM     17  C   UNL     1      -2.427 -10.693  14.608  0.00  0.00    +0.051 C 
ATOM     18  C   UNL     1      -2.113 -11.747  13.549  0.00  0.00    +0.024 C 
ATOM     19  C   UNL     1      -1.210 -10.418  15.485  0.00  0.00    +0.024 C 
ENDBRANCH   4  17
TORSDOF 2
ENDMDL
MODEL 5
REMARK VINA RESULT:      -5.5     21.405     24.082
REMARK  Name = 75368653
REMARK  4 active torsions:
REMARK  status: ('A' for Active; 'I' for Inactive)
REMARK    1  A    between atoms: N_2  and  C_6
REMARK    2  A    between atoms: N_4  and  C_17
REMARK    3  A    between atoms: C_17  and  C_18
REMARK    4  A    between atoms: C_17  and  C_19
REMARK                            x       y       z     vdW  Elec       q    Type
REMARK                         _______ _______ _______ _____ _____    ______ ____
ROOT
ATOM      1  O   UNL     1     -16.012  -0.408  30.232  0.00  0.00    -0.252 OA
ATOM      2  N   UNL     1     -15.935   1.470  28.807  0.00  0.00    -0.281 N 
ATOM      3  N   UNL     1     -15.024   1.631  30.854  0.00  0.00    -0.278 N 
ATOM      4  N   UNL     1     -14.367   3.849  32.453  0.00  0.00    -0.297 NA
ATOM      5  C   UNL     1     -14.699   2.887  30.211  0.00  0.00    +0.109 C 
ATOM      7  C   UNL     1     -15.513   2.856  28.920  0.00  0.00    +0.133 C 
ATOM      8  C   UNL     1     -15.015   4.057  31.142  0.00  0.00    +0.108 C 
ATOM      9  C   UNL     1     -14.561   1.384  32.203  0.00  0.00    +0.125 C 
ATOM     12  C   UNL     1     -15.694   0.749  29.994  0.00  0.00    +0.305 C 
ATOM     13  C   UNL     1     -14.845   2.603  33.085  0.00  0.00    +0.103 C 
ENDROOT
BRANCH   2   6
ATOM      6  C   UNL     1     -16.648   0.978  27.653  0.00  0.00    +0.078 C 
ATOM     10  C   UNL     1     -16.458   1.922  26.462  0.00  0.00    +0.022 C 
ATOM     11  C   UNL     1     -18.132   0.782  27.976  0.00  0.00    +0.022 C 
ATOM     14  C   UNL     1     -17.245   1.453  25.242  0.00  0.00    +0.002 C 
ATOM     15  C   UNL     1     -18.916   0.314  26.753  0.00  0.00    +0.002 C 
ATOM     16  C   UNL     1     -18.723   1.253  25.566  0.00  0.00    +0.000 C 
ENDBRANCH   2   6
BRANCH   4  17
ATOM     17  C   UNL     1     -14.613   4.992  33.331  0.00  0.00    +0.051 C 
ATOM     18  C   UNL     1     -13.851   6.217  32.832  0.00  0.00    +0.024 C 
ATOM     19  C   UNL     1     -14.205   4.636  34.756  0.00  0.00    +0.024 C 
ENDBRANCH   4  17
TORSDOF 2
ENDMDL
MODEL 6
REMARK VINA RESULT:      -5.5     26.952     28.080
REMARK  Name = 75368653
REMARK  4 active torsions:
REMARK  status: ('A' for Active; 'I' for Inactive)
REMARK    1  A    between atoms: N_2  and  C_6
REMARK    2  A    between atoms: N_4  and  C_17
REMARK    3  A    between atoms: C_17  and  C_18
REMARK    4  A    between atoms: C_17  and  C_19
REMARK                            x       y       z     vdW  Elec       q    Type
REMARK                         _______ _______ _______ _____ _____    ______ ____
ROOT
ATOM      1  O   UNL     1      13.674   6.738  19.230  0.00  0.00    -0.252 OA
ATOM      2  N   UNL     1      14.192   8.587  20.601  0.00  0.00    -0.281 N 
ATOM      3  N   UNL     1      15.875   7.348  19.779  0.00  0.00    -0.278 N 
ATOM      4  N   UNL     1      18.560   7.060  20.567  0.00  0.00    -0.297 NA
ATOM      5  C   UNL     1      16.530   8.448  20.455  0.00  0.00    +0.109 C 
ATOM      7  C   UNL     1      15.393   9.147  21.197  0.00  0.00    +0.133 C 
ATOM      8  C   UNL     1      17.656   7.929  21.348  0.00  0.00    +0.108 C 
ATOM      9  C   UNL     1      16.680   6.351  19.104  0.00  0.00    +0.125 C 
ATOM     12  C   UNL     1      14.479   7.466  19.795  0.00  0.00    +0.305 C 
ATOM     13  C   UNL     1      17.828   5.903  20.011  0.00  0.00    +0.103 C 
ENDROOT
BRANCH   2   6
ATOM      6  C   UNL     1      12.873   9.061  20.945  0.00  0.00    +0.078 C 
ATOM     10  C   UNL     1      12.925  10.532  21.367  0.00  0.00    +0.022 C 
ATOM     11  C   UNL     1      12.252   8.189  22.040  0.00  0.00    +0.022 C 
ATOM     14  C   UNL     1      11.551  11.045  21.787  0.00  0.00    +0.002 C 
ATOM     15  C   UNL     1      10.878   8.706  22.458  0.00  0.00    +0.002 C 
ATOM     16  C   UNL     1      10.931  10.173  22.875  0.00  0.00    +0.000 C 
ENDBRANCH   2   6
BRANCH   4  17
ATOM     17  C   UNL     1      19.675   6.606  21.398  0.00  0.00    +0.051 C 
ATOM     18  C   UNL     1      19.711   7.388  22.708  0.00  0.00    +0.024 C 
ATOM     19  C   UNL     1      20.981   6.768  20.627  0.00  0.00    +0.024 C 
ENDBRANCH   4  17
TORSDOF 2
ENDMDL
MODEL 7
REMARK VINA RESULT:      -5.4     20.356     21.957
REMARK  Name = 75368653
REMARK  4 active torsions:
REMARK  status: ('A' for Active; 'I' for Inactive)
REMARK    1  A    between atoms: N_2  and  C_6
REMARK    2  A    between atoms: N_4  and  C_17
REMARK    3  A    between atoms: C_17  and  C_18
REMARK    4  A    between atoms: C_17  and  C_19
REMARK                            x       y       z     vdW  Elec       q    Type
REMARK                         _______ _______ _______ _____ _____    ______ ____
ROOT
ATOM      1  O   UNL     1     -15.845   7.382  19.792  0.00  0.00    -0.252 OA
ATOM      2  N   UNL     1     -13.676   6.959  20.617  0.00  0.00    -0.281 N 
ATOM      3  N   UNL     1     -15.377   5.689  21.352  0.00  0.00    -0.278 N 
ATOM      4  N   UNL     1     -15.667   4.066  23.630  0.00  0.00    -0.297 NA
ATOM      5  C   UNL     1     -14.197   5.095  21.945  0.00  0.00    +0.109 C 
ATOM      7  C   UNL     1     -13.088   6.096  21.628  0.00  0.00    +0.133 C 
ATOM      8  C   UNL     1     -14.423   4.838  23.435  0.00  0.00    +0.108 C 
ATOM      9  C   UNL     1     -16.673   5.094  21.603  0.00  0.00    +0.125 C 
ATOM     12  C   UNL     1     -15.065   6.753  20.495  0.00  0.00    +0.305 C 
ATOM     13  C   UNL     1     -16.832   4.799  23.097  0.00  0.00    +0.103 C 
ENDROOT
BRANCH   2   6
ATOM      6  C   UNL     1     -12.916   7.991  19.955  0.00  0.00    +0.078 C 
ATOM     10  C   UNL     1     -11.748   7.381  19.175  0.00  0.00    +0.022 C 
ATOM     11  C   UNL     1     -12.428   9.035  20.963  0.00  0.00    +0.022 C 
ATOM     14  C   UNL     1     -10.896   8.456  18.507  0.00  0.00    +0.002 C 
ATOM     15  C   UNL     1     -11.574  10.108  20.291  0.00  0.00    +0.002 C 
ATOM     16  C   UNL     1     -10.413   9.498  19.511  0.00  0.00    +0.000 C 
ENDBRANCH   2   6
BRANCH   4  17
ATOM     17  C   UNL     1     -15.861   3.762  25.048  0.00  0.00    +0.051 C 
ATOM     18  C   UNL     1     -16.341   2.323  25.220  0.00  0.00    +0.024 C 
ATOM     19  C   UNL     1     -16.858   4.748  25.647  0.00  0.00    +0.024 C 
ENDBRANCH   4  17
TORSDOF 2
ENDMDL
MODEL 8
REMARK VINA RESULT:      -5.4     22.266     25.277
REMARK  Name = 75368653
REMARK  4 active torsions:
REMARK  status: ('A' for Active; 'I' for Inactive)
REMARK    1  A    between atoms: N_2  and  C_6
REMARK    2  A    between atoms: N_4  and  C_17
REMARK    3  A    between atoms: C_17  and  C_18
REMARK    4  A    between atoms: C_17  and  C_19
REMARK                            x       y       z     vdW  Elec       q    Type
REMARK                         _______ _______ _______ _____ _____    ______ ____
ROOT
ATOM      1  O   UNL     1       9.879   7.312   1.512  0.00  0.00    -0.252 OA
ATOM      2  N   UNL     1      10.891   5.278   2.149  0.00  0.00    -0.281 N 
ATOM      3  N   UNL     1       9.570   6.335   3.626  0.00  0.00    -0.278 N 
ATOM      4  N   UNL     1       9.348   6.148   6.423  0.00  0.00    -0.297 NA
ATOM      5  C   UNL     1       9.917   5.088   4.275  0.00  0.00    +0.109 C 
ATOM      7  C   UNL     1      10.990   4.492   3.367  0.00  0.00    +0.133 C 
ATOM      8  C   UNL     1      10.365   5.345   5.714  0.00  0.00    +0.108 C 
ATOM      9  C   UNL     1       8.693   7.267   4.303  0.00  0.00    +0.125 C 
ATOM     12  C   UNL     1      10.084   6.420   2.325  0.00  0.00    +0.305 C 
ATOM     13  C   UNL     1       9.143   7.449   5.755  0.00  0.00    +0.103 C 
ENDROOT
BRANCH   2   6
ATOM      6  C   UNL     1      11.668   4.969   0.973  0.00  0.00    +0.078 C 
ATOM     10  C   UNL     1      10.776   4.372  -0.119  0.00  0.00    +0.022 C 
ATOM     11  C   UNL     1      12.826   4.030   1.320  0.00  0.00    +0.022 C 
ATOM     14  C   UNL     1      11.582   3.987  -1.356  0.00  0.00    +0.002 C 
ATOM     15  C   UNL     1      13.630   3.646   0.080  0.00  0.00    +0.002 C 
ATOM     16  C   UNL     1      12.739   3.055  -1.008  0.00  0.00    +0.000 C 
ENDBRANCH   2   6
BRANCH   4  17
ATOM     17  C   UNL     1       9.738   6.348   7.819  0.00  0.00    +0.051 C 
ATOM     18  C   UNL     1       9.531   5.062   8.616  0.00  0.00    +0.024 C 
ATOM     19  C   UNL     1       8.931   7.497   8.413  0.00  0.00    +0.024 C 
ENDBRANCH   4  17
TORSDOF 2
ENDMDL
MODEL 9
REMARK VINA RESULT:      -5.3      3.073      6.598
REMARK  Name = 75368653
REMARK  4 active torsions:
REMARK  status: ('A' for Active; 'I' for Inactive)
REMARK    1  A    between atoms: N_2  and  C_6
REMARK    2  A    between atoms: N_4  and  C_17
REMARK    3  A    between atoms: C_17  and  C_18
REMARK    4  A    between atoms: C_17  and  C_19
REMARK                            x       y       z     vdW  Elec       q    Type
REMARK                         _______ _______ _______ _____ _____    ______ ____
ROOT
ATOM      1  O   UNL     1      -5.979 -13.263  16.363  0.00  0.00    -0.252 OA
ATOM      2  N   UNL     1      -5.144 -11.058  16.300  0.00  0.00    -0.281 N 
ATOM      3  N   UNL     1      -7.117 -11.437  17.306  0.00  0.00    -0.278 N 
ATOM      4  N   UNL     1      -9.254  -9.730  17.961  0.00  0.00    -0.297 NA
ATOM      5  C   UNL     1      -6.846 -10.036  17.552  0.00  0.00    +0.109 C 
ATOM      7  C   UNL     1      -5.631  -9.741  16.676  0.00  0.00    +0.133 C 
ATOM      8  C   UNL     1      -8.082  -9.192  17.241  0.00  0.00    +0.108 C 
ATOM      9  C   UNL     1      -8.322 -12.031  17.845  0.00  0.00    +0.125 C 
ATOM     12  C   UNL     1      -6.068 -12.071  16.627  0.00  0.00    +0.305 C 
ATOM     13  C   UNL     1      -9.523 -11.126  17.562  0.00  0.00    +0.103 C 
ENDROOT
BRANCH   2   6
ATOM      6  C   UNL     1      -3.926 -11.238  15.548  0.00  0.00    +0.078 C 
ATOM     10  C   UNL     1      -2.734 -10.650  16.308  0.00  0.00    +0.022 C 
ATOM     11  C   UNL     1      -4.055 -10.623  14.152  0.00  0.00    +0.022 C 
ATOM     14  C   UNL     1      -1.440 -10.781  15.510  0.00  0.00    +0.002 C 
ATOM     15  C   UNL     1      -2.758 -10.755  13.358  0.00  0.00    +0.002 C 
ATOM     16  C   UNL     1      -1.571 -10.171  14.118  0.00  0.00    +0.000 C 
ENDBRANCH   2   6
BRANCH   4  17
ATOM     17  C   UNL     1     -10.429  -8.894  17.718  0.00  0.00    +0.051 C 
ATOM     18  C   UNL     1     -11.560  -9.730  17.123  0.00  0.00    +0.024 C 
ATOM     19  C   UNL     1     -10.052  -7.744  16.790  0.00  0.00    +0.024 C 
ENDBRANCH   4  17
TORSDOF 2
ENDMDL
MODEL 10
REMARK VINA RESULT:      -5.3     27.215     28.442
REMARK  Name = 75368653
REMARK  4 active torsions:
REMARK  status: ('A' for Active; 'I' for Inactive)
REMARK    1  A    between atoms: N_2  and  C_6
REMARK    2  A    between atoms: N_4  and  C_17
REMARK    3  A    between atoms: C_17  and  C_18
REMARK    4  A    between atoms: C_17  and  C_19
REMARK                            x       y       z     vdW  Elec       q    Type
REMARK                         _______ _______ _______ _____ _____    ______ ____
ROOT
ATOM      1  O   UNL     1      15.040   6.244  19.548  0.00  0.00    -0.252 OA
ATOM      2  N   UNL     1      15.266   8.258  20.756  0.00  0.00    -0.281 N 
ATOM      3  N   UNL     1      17.120   7.120  20.199  0.00  0.00    -0.278 N 
ATOM      4  N   UNL     1      19.742   7.178  21.216  0.00  0.00    -0.297 NA
ATOM      5  C   UNL     1      17.611   8.340  20.806  0.00  0.00    +0.109 C 
ATOM      7  C   UNL     1      16.354   8.989  21.382  0.00  0.00    +0.133 C 
ATOM      8  C   UNL     1      18.699   8.023  21.832  0.00  0.00    +0.108 C 
ATOM      9  C   UNL     1      18.068   6.149  19.694  0.00  0.00    +0.125 C 
ATOM     12  C   UNL     1      15.723   7.100  20.095  0.00  0.00    +0.305 C 
ATOM     13  C   UNL     1      19.170   5.907  20.728  0.00  0.00    +0.103 C 
ENDROOT
BRANCH   2   6
ATOM      6  C   UNL     1      13.884   8.629  20.948  0.00  0.00    +0.078 C 
ATOM     10  C   UNL     1      13.153   7.568  21.774  0.00  0.00    +0.022 C 
ATOM     11  C   UNL     1      13.194   8.861  19.601  0.00  0.00    +0.022 C 
ATOM     14  C   UNL     1      11.676   7.910  21.947  0.00  0.00    +0.002 C 
ATOM     15  C   UNL     1      11.717   9.202  19.779  0.00  0.00    +0.002 C 
ATOM     16  C   UNL     1      10.990   8.145  20.605  0.00  0.00    +0.000 C 
ENDBRANCH   2   6
BRANCH   4  17
ATOM     17  C   UNL     1      20.818   6.919  22.173  0.00  0.00    +0.051 C 
ATOM     18  C   UNL     1      21.344   5.496  22.006  0.00  0.00    +0.024 C 
ATOM     19  C   UNL     1      20.304   7.151  23.590  0.00  0.00    +0.024 C 
ENDBRANCH   4  17
TORSDOF 2
ENDMDL
