MODEL 1
REMARK VINA RESULT:      -6.3      0.000      0.000
REMARK  Name = 7156516
REMARK  15 active torsions:
REMARK  status: ('A' for Active; 'I' for Inactive)
REMARK    1  A    between atoms: O_2  and  C_14
REMARK    2  A    between atoms: O_3  and  C_19
REMARK    3  A    between atoms: O_5  and  C_30
REMARK    4  A    between atoms: N_7  and  CA_26
REMARK    5  A    between atoms: C_9  and  C_17
REMARK    6  A    between atoms: C_11  and  C_19
REMARK    7  A    between atoms: C_11  and  C_20
REMARK    8  A    between atoms: C_12  and  C_22
REMARK    9  A    between atoms: C_22  and  C_23
REMARK   10  A    between atoms: C_24  and  C_25
REMARK   11  A    between atoms: CA_26  and  CB_27
REMARK   12  A    between atoms: CA_26  and  C_30
REMARK   13  A    between atoms: CB_27  and  CG_31
REMARK   14  A    between atoms: CG_31  and  CD1_33
REMARK   15  A    between atoms: CG_31  and  CD2_34
REMARK                            x       y       z     vdW  Elec       q    Type
REMARK                         _______ _______ _______ _____ _____    ______ ____
ROOT
ATOM      1  S   UNL     1       9.737   8.579   0.423  0.00  0.00    -0.072 S 
ATOM      6  N   UNL     1       9.531   7.215   2.611  0.00  0.00    -0.243 NA
ATOM      9  C   UNL     1      12.346   4.930   1.297  0.00  0.00    -0.020 C 
ATOM     10  C   UNL     1      13.034   6.114   0.484  0.00  0.00    +0.011 C 
ATOM     11  C   UNL     1      14.268   5.735  -0.423  0.00  0.00    +0.021 C 
ATOM     12  C   UNL     1      11.446   5.581   2.447  0.00  0.00    +0.053 C 
ATOM     13  C   UNL     1      13.441   4.061   1.968  0.00  0.00    +0.010 C 
ATOM     14  C   UNL     1      15.239   4.830   0.385  0.00  0.00    +0.123 C 
ATOM     15  C   UNL     1      11.975   6.999  -0.235  0.00  0.00    +0.049 C 
ATOM     16  C   UNL     1      14.550   3.626   1.020  0.00  0.00    +0.032 C 
ATOM     17  C   UNL     1      11.465   4.020   0.407  0.00  0.00    +0.012 C 
ATOM     18  C   UNL     1      10.605   6.709   1.904  0.00  0.00    +0.056 A 
ATOM     20  C   UNL     1      15.043   7.032  -0.791  0.00  0.00    +0.016 C 
ATOM     21  C   UNL     1      10.872   7.343   0.707  0.00  0.00    +0.014 A 
ATOM     24  C   UNL     1       8.993   8.199   1.923  0.00  0.00    +0.110 A 
ENDROOT
BRANCH  24  25
ATOM      8  N   UNL     1       5.888  10.251   1.730  0.00  0.00    -0.263 NA
ATOM     25  C   UNL     1       7.843   8.967   2.339  0.00  0.00    +0.025 A 
ATOM     28  C   UNL     1       7.566   9.170   3.686  0.00  0.00    +0.013 A 
ATOM     29  C   UNL     1       6.981   9.523   1.408  0.00  0.00    +0.121 A 
ATOM     32  C   UNL     1       6.450   9.912   4.056  0.00  0.00    +0.020 A 
ATOM     35  C   UNL     1       5.650  10.427   3.049  0.00  0.00    +0.111 A 
ENDBRANCH  24  25
BRANCH  14   2
ATOM      2  O   UNL     1      16.301   4.364  -0.446  0.00  0.00    -0.391 OA
ATOM     36  H   UNL     1      16.265   3.392  -0.453  0.00  0.00    +0.210 HD
ENDBRANCH  14   2
BRANCH  11  19
ATOM     19  C   UNL     1      13.895   5.079  -1.772  0.00  0.00    +0.165 C 
BRANCH  19   3
ATOM      3  O   UNL     1      14.862   5.466  -2.721  0.00  0.00    -0.394 OA
ATOM     37  H   UNL     1      15.731   5.202  -2.373  0.00  0.00    +0.209 HD
ENDBRANCH  19   3
ENDBRANCH  11  19
BRANCH  12  22
ATOM     22  C   UNL     1      10.595   4.577   3.236  0.00  0.00    +0.106 C 
BRANCH  22  23
ATOM      4  O   UNL     1       9.807   4.350   5.512  0.00  0.00    -0.276 OA
ATOM      7  N   UNL     1      11.444   5.923   5.018  0.00  0.00    -0.310 N 
ATOM     23  C   ACE A   0      10.548   4.910   4.709  0.00  0.00    +0.214 C 
ATOM     38  H   UNL     1      11.963   6.372   4.269  0.00  0.00    +0.149 HD
BRANCH   7  26
ATOM     26  CA  UNL     1      11.611   6.449   6.354  0.00  0.00    +0.098 C 
BRANCH  26  27
ATOM     27  CB  UNL     1      10.720   7.683   6.577  0.00  0.00    +0.027 C 
BRANCH  27  31
ATOM     31  CG  UNL     1       9.490   7.446   7.480  0.00  0.00    -0.015 C 
ATOM     33  CD1 UNL     1       9.721   6.206   8.349  0.00  0.00    +0.007 C 
ATOM     34  CD2 UNL     1       8.198   7.279   6.680  0.00  0.00    +0.007 C 
ENDBRANCH  27  31
ENDBRANCH  26  27
BRANCH  26  30
ATOM     30  C   UNL     1      13.090   6.758   6.613  0.00  0.00    +0.178 C 
BRANCH  30   5
ATOM      5  O   UNL     1      13.603   5.935   7.652  0.00  0.00    -0.393 OA
ATOM     39  H   UNL     1      12.858   5.710   8.235  0.00  0.00    +0.209 HD
ENDBRANCH  30   5
ENDBRANCH  26  30
ENDBRANCH   7  26
ENDBRANCH  22  23
ENDBRANCH  12  22
TORSDOF 11
ENDMDL
MODEL 2
REMARK VINA RESULT:      -6.2     15.046     20.060
REMARK  Name = 7156516
REMARK  15 active torsions:
REMARK  status: ('A' for Active; 'I' for Inactive)
REMARK    1  A    between atoms: O_2  and  C_14
REMARK    2  A    between atoms: O_3  and  C_19
REMARK    3  A    between atoms: O_5  and  C_30
REMARK    4  A    between atoms: N_7  and  CA_26
REMARK    5  A    between atoms: C_9  and  C_17
REMARK    6  A    between atoms: C_11  and  C_19
REMARK    7  A    between atoms: C_11  and  C_20
REMARK    8  A    between atoms: C_12  and  C_22
REMARK    9  A    between atoms: C_22  and  C_23
REMARK   10  A    between atoms: C_24  and  C_25
REMARK   11  A    between atoms: CA_26  and  CB_27
REMARK   12  A    between atoms: CA_26  and  C_30
REMARK   13  A    between atoms: CB_27  and  CG_31
REMARK   14  A    between atoms: CG_31  and  CD1_33
REMARK   15  A    between atoms: CG_31  and  CD2_34
REMARK                            x       y       z     vdW  Elec       q    Type
REMARK                         _______ _______ _______ _____ _____    ______ ____
ROOT
ATOM      1  S   UNL     1      16.539   9.819  21.598  0.00  0.00    -0.072 S 
ATOM      6  N   UNL     1      14.474   8.658  20.560  0.00  0.00    -0.243 NA
ATOM      9  C   UNL     1      12.287  11.390  22.179  0.00  0.00    -0.020 C 
ATOM     10  C   UNL     1      13.438  12.485  22.071  0.00  0.00    +0.011 C 
ATOM     11  C   UNL     1      13.151  13.891  22.727  0.00  0.00    +0.021 C 
ATOM     12  C   UNL     1      12.593  10.247  21.104  0.00  0.00    +0.053 C 
ATOM     13  C   UNL     1      10.922  12.039  21.828  0.00  0.00    +0.010 C 
ATOM     14  C   UNL     1      11.732  14.371  22.311  0.00  0.00    +0.123 C 
ATOM     15  C   UNL     1      14.826  11.890  22.444  0.00  0.00    +0.049 C 
ATOM     16  C   UNL     1      10.645  13.335  22.577  0.00  0.00    +0.032 C 
ATOM     17  C   UNL     1      12.188  10.758  23.589  0.00  0.00    +0.012 C 
ATOM     18  C   UNL     1      14.039   9.827  21.157  0.00  0.00    +0.056 A 
ATOM     20  C   UNL     1      14.170  14.926  22.173  0.00  0.00    +0.016 C 
ATOM     21  C   UNL     1      15.028  10.588  21.747  0.00  0.00    +0.014 A 
ATOM     24  C   UNL     1      15.773   8.547  20.736  0.00  0.00    +0.110 A 
ENDROOT
BRANCH  24  25
ATOM      8  N   UNL     1      16.838   5.572  18.759  0.00  0.00    -0.263 NA
ATOM     25  C   UNL     1      16.582   7.449  20.261  0.00  0.00    +0.025 A 
ATOM     28  C   UNL     1      17.837   7.196  20.804  0.00  0.00    +0.013 A 
ATOM     29  C   UNL     1      16.132   6.616  19.250  0.00  0.00    +0.121 A 
ATOM     32  C   UNL     1      18.593   6.132  20.325  0.00  0.00    +0.020 A 
ATOM     35  C   UNL     1      18.053   5.357  19.311  0.00  0.00    +0.111 A 
ENDBRANCH  24  25
BRANCH  14   2
ATOM      2  O   UNL     1      11.391  15.578  22.990  0.00  0.00    -0.391 OA
ATOM     36  H   UNL     1      10.480  15.484  23.320  0.00  0.00    +0.210 HD
ENDBRANCH  14   2
BRANCH  11  19
ATOM     19  C   UNL     1      13.317  13.927  24.263  0.00  0.00    +0.165 C 
BRANCH  19   3
ATOM      3  O   UNL     1      13.693  15.236  24.625  0.00  0.00    -0.394 OA
ATOM     37  H   UNL     1      14.179  15.176  25.466  0.00  0.00    +0.209 HD
ENDBRANCH  19   3
ENDBRANCH  11  19
BRANCH  12  22
ATOM     22  C   UNL     1      11.653   9.036  21.177  0.00  0.00    +0.106 C 
BRANCH  22  23
ATOM      4  O   UNL     1      11.683   6.930  19.988  0.00  0.00    -0.276 OA
ATOM      7  N   UNL     1      11.994   8.911  18.815  0.00  0.00    -0.310 N 
ATOM     23  C   ACE A   0      11.772   8.153  19.956  0.00  0.00    +0.214 C 
ATOM     38  H   UNL     1      12.123   9.915  18.904  0.00  0.00    +0.149 HD
BRANCH   7  26
ATOM     26  CA  UNL     1      12.152   8.332  17.501  0.00  0.00    +0.098 C 
BRANCH  26  27
ATOM     27  CB  UNL     1      13.423   8.859  16.814  0.00  0.00    +0.027 C 
BRANCH  27  31
ATOM     31  CG  UNL     1      13.610  10.391  16.871  0.00  0.00    -0.015 C 
ATOM     33  CD1 UNL     1      13.814  10.938  15.454  0.00  0.00    +0.007 C 
ATOM     34  CD2 UNL     1      14.787  10.805  17.755  0.00  0.00    +0.007 C 
ENDBRANCH  27  31
ENDBRANCH  26  27
BRANCH  26  30
ATOM     30  C   UNL     1      10.898   8.593  16.660  0.00  0.00    +0.178 C 
BRANCH  30   5
ATOM      5  O   UNL     1       9.771   8.831  17.493  0.00  0.00    -0.393 OA
ATOM     39  H   UNL     1       9.267   8.001  17.537  0.00  0.00    +0.209 HD
ENDBRANCH  30   5
ENDBRANCH  26  30
ENDBRANCH   7  26
ENDBRANCH  22  23
ENDBRANCH  12  22
TORSDOF 11
ENDMDL
MODEL 3
REMARK VINA RESULT:      -6.2     16.681     20.883
REMARK  Name = 7156516
REMARK  15 active torsions:
REMARK  status: ('A' for Active; 'I' for Inactive)
REMARK    1  A    between atoms: O_2  and  C_14
REMARK    2  A    between atoms: O_3  and  C_19
REMARK    3  A    between atoms: O_5  and  C_30
REMARK    4  A    between atoms: N_7  and  CA_26
REMARK    5  A    between atoms: C_9  and  C_17
REMARK    6  A    between atoms: C_11  and  C_19
REMARK    7  A    between atoms: C_11  and  C_20
REMARK    8  A    between atoms: C_12  and  C_22
REMARK    9  A    between atoms: C_22  and  C_23
REMARK   10  A    between atoms: C_24  and  C_25
REMARK   11  A    between atoms: CA_26  and  CB_27
REMARK   12  A    between atoms: CA_26  and  C_30
REMARK   13  A    between atoms: CB_27  and  CG_31
REMARK   14  A    between atoms: CG_31  and  CD1_33
REMARK   15  A    between atoms: CG_31  and  CD2_34
REMARK                            x       y       z     vdW  Elec       q    Type
REMARK                         _______ _______ _______ _____ _____    ______ ____
ROOT
ATOM      1  S   UNL     1      17.960   6.272  20.261  0.00  0.00    -0.072 S 
ATOM      6  N   UNL     1      18.117   8.371  21.764  0.00  0.00    -0.243 NA
ATOM      9  C   UNL     1      14.652   9.421  20.437  0.00  0.00    -0.020 C 
ATOM     10  C   UNL     1      14.183   7.912  20.241  0.00  0.00    +0.011 C 
ATOM     11  C   UNL     1      12.777   7.682  19.563  0.00  0.00    +0.021 C 
ATOM     12  C   UNL     1      15.843   9.432  21.503  0.00  0.00    +0.053 C 
ATOM     13  C   UNL     1      13.476  10.256  21.010  0.00  0.00    +0.010 C 
ATOM     14  C   UNL     1      11.730   8.624  20.221  0.00  0.00    +0.123 C 
ATOM     15  C   UNL     1      15.320   7.037  19.638  0.00  0.00    +0.049 C 
ATOM     16  C   UNL     1      12.169  10.085  20.247  0.00  0.00    +0.032 C 
ATOM     17  C   UNL     1      15.132  10.078  19.120  0.00  0.00    +0.012 C 
ATOM     18  C   UNL     1      16.859   8.363  21.191  0.00  0.00    +0.056 A 
ATOM     20  C   UNL     1      12.317   6.221  19.833  0.00  0.00    +0.016 C 
ATOM     21  C   UNL     1      16.597   7.287  20.366  0.00  0.00    +0.014 A 
ATOM     24  C   UNL     1      18.786   7.321  21.340  0.00  0.00    +0.110 A 
ENDROOT
BRANCH  24  25
ATOM      8  N   UNL     1      21.698   6.292  23.426  0.00  0.00    -0.263 NA
ATOM     25  C   UNL     1      20.142   6.998  21.716  0.00  0.00    +0.025 A 
ATOM     28  C   UNL     1      21.178   7.067  20.791  0.00  0.00    +0.013 A 
ATOM     29  C   UNL     1      20.451   6.608  23.009  0.00  0.00    +0.121 A 
ATOM     32  C   UNL     1      22.474   6.748  21.183  0.00  0.00    +0.020 A 
ATOM     35  C   UNL     1      22.679   6.370  22.499  0.00  0.00    +0.111 A 
ENDBRANCH  24  25
BRANCH  14   2
ATOM      2  O   UNL     1      10.477   8.535  19.545  0.00  0.00    -0.391 OA
ATOM     36  H   UNL     1      10.196   9.439  19.325  0.00  0.00    +0.210 HD
ENDBRANCH  14   2
BRANCH  11  19
ATOM     19  C   UNL     1      12.772   7.840  18.026  0.00  0.00    +0.165 C 
BRANCH  19   3
ATOM      3  O   UNL     1      11.801   6.962  17.506  0.00  0.00    -0.394 OA
ATOM     37  H   UNL     1      10.954   7.440  17.495  0.00  0.00    +0.209 HD
ENDBRANCH  19   3
ENDBRANCH  11  19
BRANCH  12  22
ATOM     22  C   UNL     1      16.510  10.800  21.699  0.00  0.00    +0.106 C 
BRANCH  22  23
ATOM      4  O   UNL     1      15.577  12.884  22.498  0.00  0.00    -0.276 OA
ATOM      7  N   UNL     1      15.233  10.934  23.714  0.00  0.00    -0.310 N 
ATOM     23  C   ACE A   0      15.733  11.676  22.654  0.00  0.00    +0.214 C 
ATOM     38  H   UNL     1      15.478   9.951  23.790  0.00  0.00    +0.149 HD
BRANCH   7  26
ATOM     26  CA  UNL     1      14.452  11.512  24.784  0.00  0.00    +0.098 C 
BRANCH  26  27
ATOM     27  CB  UNL     1      13.170  12.165  24.241  0.00  0.00    +0.027 C 
BRANCH  27  31
ATOM     31  CG  UNL     1      11.858  11.663  24.882  0.00  0.00    -0.015 C 
ATOM     33  CD1 UNL     1      11.054  10.865  23.851  0.00  0.00    +0.007 C 
ATOM     34  CD2 UNL     1      11.000  12.804  25.431  0.00  0.00    +0.007 C 
ENDBRANCH  27  31
ENDBRANCH  26  27
BRANCH  26  30
ATOM     30  C   UNL     1      15.308  12.506  25.578  0.00  0.00    +0.178 C 
BRANCH  30   5
ATOM      5  O   UNL     1      14.919  13.844  25.297  0.00  0.00    -0.393 OA
ATOM     39  H   UNL     1      15.408  14.419  25.910  0.00  0.00    +0.209 HD
ENDBRANCH  30   5
ENDBRANCH  26  30
ENDBRANCH   7  26
ENDBRANCH  22  23
ENDBRANCH  12  22
TORSDOF 11
ENDMDL
MODEL 4
REMARK VINA RESULT:      -6.2     14.105     17.693
REMARK  Name = 7156516
REMARK  15 active torsions:
REMARK  status: ('A' for Active; 'I' for Inactive)
REMARK    1  A    between atoms: O_2  and  C_14
REMARK    2  A    between atoms: O_3  and  C_19
REMARK    3  A    between atoms: O_5  and  C_30
REMARK    4  A    between atoms: N_7  and  CA_26
REMARK    5  A    between atoms: C_9  and  C_17
REMARK    6  A    between atoms: C_11  and  C_19
REMARK    7  A    between atoms: C_11  and  C_20
REMARK    8  A    between atoms: C_12  and  C_22
REMARK    9  A    between atoms: C_22  and  C_23
REMARK   10  A    between atoms: C_24  and  C_25
REMARK   11  A    between atoms: CA_26  and  CB_27
REMARK   12  A    between atoms: CA_26  and  C_30
REMARK   13  A    between atoms: CB_27  and  CG_31
REMARK   14  A    between atoms: CG_31  and  CD1_33
REMARK   15  A    between atoms: CG_31  and  CD2_34
REMARK                            x       y       z     vdW  Elec       q    Type
REMARK                         _______ _______ _______ _____ _____    ______ ____
ROOT
ATOM      1  S   UNL     1      12.751  12.883  20.251  0.00  0.00    -0.072 S 
ATOM      6  N   UNL     1      12.908  10.365  20.823  0.00  0.00    -0.243 NA
ATOM      9  C   UNL     1      13.636   9.698  17.095  0.00  0.00    -0.020 C 
ATOM     10  C   UNL     1      14.358  11.104  16.903  0.00  0.00    +0.011 C 
ATOM     11  C   UNL     1      14.808  11.483  15.439  0.00  0.00    +0.021 C 
ATOM     12  C   UNL     1      13.672   9.333  18.651  0.00  0.00    +0.053 C 
ATOM     13  C   UNL     1      14.418   8.605  16.320  0.00  0.00    +0.010 C 
ATOM     14  C   UNL     1      15.532  10.268  14.795  0.00  0.00    +0.123 C 
ATOM     15  C   UNL     1      13.592  12.241  17.639  0.00  0.00    +0.049 C 
ATOM     16  C   UNL     1      14.726   8.975  14.875  0.00  0.00    +0.032 C 
ATOM     17  C   UNL     1      12.168   9.702  16.601  0.00  0.00    +0.012 C 
ATOM     18  C   UNL     1      13.258  10.513  19.493  0.00  0.00    +0.056 A 
ATOM     20  C   UNL     1      15.834  12.649  15.511  0.00  0.00    +0.016 C 
ATOM     21  C   UNL     1      13.247  11.811  19.024  0.00  0.00    +0.014 A 
ATOM     24  C   UNL     1      12.615  11.547  21.321  0.00  0.00    +0.110 A 
ENDROOT
BRANCH  24  25
ATOM      8  N   UNL     1      10.815  11.155  24.561  0.00  0.00    -0.263 NA
ATOM     25  C   UNL     1      12.195  11.790  22.681  0.00  0.00    +0.025 A 
ATOM     28  C   UNL     1      12.728  12.842  23.417  0.00  0.00    +0.013 A 
ATOM     29  C   UNL     1      11.251  10.982  23.292  0.00  0.00    +0.121 A 
ATOM     32  C   UNL     1      12.306  13.051  24.725  0.00  0.00    +0.020 A 
ATOM     35  C   UNL     1      11.356  12.188  25.246  0.00  0.00    +0.111 A 
ENDBRANCH  24  25
BRANCH  14   2
ATOM      2  O   UNL     1      15.838  10.533  13.427  0.00  0.00    -0.391 OA
ATOM     36  H   UNL     1      16.331   9.769  13.081  0.00  0.00    +0.210 HD
ENDBRANCH  14   2
BRANCH  11  19
ATOM     19  C   UNL     1      13.666  11.991  14.530  0.00  0.00    +0.165 C 
BRANCH  19   3
ATOM      3  O   UNL     1      14.237  12.829  13.551  0.00  0.00    -0.394 OA
ATOM     37  H   UNL     1      15.115  13.096  13.874  0.00  0.00    +0.209 HD
ENDBRANCH  19   3
ENDBRANCH  11  19
BRANCH  12  22
ATOM     22  C   UNL     1      12.886   8.071  19.028  0.00  0.00    +0.106 C 
BRANCH  22  23
ATOM      4  O   UNL     1      13.291   6.409  20.739  0.00  0.00    -0.276 OA
ATOM      7  N   UNL     1      15.039   7.091  19.368  0.00  0.00    -0.310 N 
ATOM     23  C   ACE A   0      13.727   7.096  19.820  0.00  0.00    +0.214 C 
ATOM     38  H   UNL     1      15.317   7.750  18.646  0.00  0.00    +0.149 HD
BRANCH   7  26
ATOM     26  CA  UNL     1      16.069   6.257  19.942  0.00  0.00    +0.098 C 
BRANCH  26  27
ATOM     27  CB  UNL     1      16.739   6.953  21.140  0.00  0.00    +0.027 C 
BRANCH  27  31
ATOM     31  CG  UNL     1      17.056   8.449  20.932  0.00  0.00    -0.015 C 
ATOM     33  CD1 UNL     1      18.512   8.726  21.322  0.00  0.00    +0.007 C 
ATOM     34  CD2 UNL     1      16.128   9.362  21.734  0.00  0.00    +0.007 C 
ENDBRANCH  27  31
ENDBRANCH  26  27
BRANCH  26  30
ATOM     30  C   UNL     1      17.087   5.865  18.866  0.00  0.00    +0.178 C 
BRANCH  30   5
ATOM      5  O   UNL     1      18.358   5.603  19.444  0.00  0.00    -0.393 OA
ATOM     39  H   UNL     1      18.256   5.679  20.408  0.00  0.00    +0.209 HD
ENDBRANCH  30   5
ENDBRANCH  26  30
ENDBRANCH   7  26
ENDBRANCH  22  23
ENDBRANCH  12  22
TORSDOF 11
ENDMDL
MODEL 5
REMARK VINA RESULT:      -6.1     24.956     28.369
REMARK  Name = 7156516
REMARK  15 active torsions:
REMARK  status: ('A' for Active; 'I' for Inactive)
REMARK    1  A    between atoms: O_2  and  C_14
REMARK    2  A    between atoms: O_3  and  C_19
REMARK    3  A    between atoms: O_5  and  C_30
REMARK    4  A    between atoms: N_7  and  CA_26
REMARK    5  A    between atoms: C_9  and  C_17
REMARK    6  A    between atoms: C_11  and  C_19
REMARK    7  A    between atoms: C_11  and  C_20
REMARK    8  A    between atoms: C_12  and  C_22
REMARK    9  A    between atoms: C_22  and  C_23
REMARK   10  A    between atoms: C_24  and  C_25
REMARK   11  A    between atoms: CA_26  and  CB_27
REMARK   12  A    between atoms: CA_26  and  C_30
REMARK   13  A    between atoms: CB_27  and  CG_31
REMARK   14  A    between atoms: CG_31  and  CD1_33
REMARK   15  A    between atoms: CG_31  and  CD2_34
REMARK                            x       y       z     vdW  Elec       q    Type
REMARK                         _______ _______ _______ _____ _____    ______ ____
ROOT
ATOM      1  S   UNL     1      -8.490  -9.885  13.352  0.00  0.00    -0.072 S 
ATOM      6  N   UNL     1      -5.937 -10.043  13.733  0.00  0.00    -0.243 NA
ATOM      9  C   UNL     1      -6.676 -11.011  17.392  0.00  0.00    -0.020 C 
ATOM     10  C   UNL     1      -8.047 -11.724  17.009  0.00  0.00    +0.011 C 
ATOM     11  C   UNL     1      -8.933 -12.258  18.200  0.00  0.00    +0.021 C 
ATOM     12  C   UNL     1      -5.766 -10.956  16.079  0.00  0.00    +0.053 C 
ATOM     13  C   UNL     1      -5.937 -11.857  18.462  0.00  0.00    +0.010 C 
ATOM     14  C   UNL     1      -8.032 -13.039  19.198  0.00  0.00    +0.123 C 
ATOM     15  C   UNL     1      -8.843 -10.897  15.958  0.00  0.00    +0.049 C 
ATOM     16  C   UNL     1      -6.808 -12.249  19.648  0.00  0.00    +0.032 C 
ATOM     17  C   UNL     1      -6.875  -9.578  17.942  0.00  0.00    +0.012 C 
ATOM     18  C   UNL     1      -6.559 -10.472  14.891  0.00  0.00    +0.056 A 
ATOM     20  C   UNL     1      -9.981 -13.261  17.642  0.00  0.00    +0.016 C 
ATOM     21  C   UNL     1      -7.938 -10.472  14.851  0.00  0.00    +0.014 A 
ATOM     24  C   UNL     1      -6.857  -9.702  12.857  0.00  0.00    +0.110 A 
ENDROOT
BRANCH  24  25
ATOM      8  N   UNL     1      -7.414  -8.629   9.331  0.00  0.00    -0.263 NA
ATOM     25  C   UNL     1      -6.588  -9.195  11.531  0.00  0.00    +0.025 A 
ATOM     28  C   UNL     1      -5.310  -8.792  11.164  0.00  0.00    +0.013 A 
ATOM     29  C   UNL     1      -7.597  -9.095  10.587  0.00  0.00    +0.121 A 
ATOM     32  C   UNL     1      -5.082  -8.307   9.881  0.00  0.00    +0.020 A 
ATOM     35  C   UNL     1      -6.158  -8.247   9.010  0.00  0.00    +0.111 A 
ENDBRANCH  24  25
BRANCH  14   2
ATOM      2  O   UNL     1      -8.777 -13.426  20.351  0.00  0.00    -0.391 OA
ATOM     36  H   UNL     1      -9.289 -14.220  20.120  0.00  0.00    +0.210 HD
ENDBRANCH  14   2
BRANCH  11  19
ATOM     19  C   UNL     1      -9.750 -11.169  18.931  0.00  0.00    +0.165 C 
BRANCH  19   3
ATOM      3  O   UNL     1     -10.948 -11.758  19.380  0.00  0.00    -0.394 OA
ATOM     37  H   UNL     1     -11.509 -11.907  18.599  0.00  0.00    +0.209 HD
ENDBRANCH  19   3
ENDBRANCH  11  19
BRANCH  12  22
ATOM     22  C   UNL     1      -4.460 -10.166  16.241  0.00  0.00    +0.106 C 
BRANCH  22  23
ATOM      4  O   UNL     1      -2.155 -10.865  16.462  0.00  0.00    -0.276 OA
ATOM      7  N   UNL     1      -3.538 -11.944  14.937  0.00  0.00    -0.310 N 
ATOM     23  C   ACE A   0      -3.247 -11.007  15.919  0.00  0.00    +0.214 C 
ATOM     38  H   UNL     1      -4.455 -11.934  14.499  0.00  0.00    +0.149 HD
BRANCH   7  26
ATOM     26  CA  UNL     1      -2.564 -12.882  14.429  0.00  0.00    +0.098 C 
BRANCH  26  27
ATOM     27  CB  UNL     1      -1.907 -12.353  13.142  0.00  0.00    +0.027 C 
BRANCH  27  31
ATOM     31  CG  UNL     1      -2.766 -11.361  12.330  0.00  0.00    -0.015 C 
ATOM     33  CD1 UNL     1      -3.378 -12.078  11.123  0.00  0.00    +0.007 C 
ATOM     34  CD2 UNL     1      -1.967 -10.147  11.853  0.00  0.00    +0.007 C 
ENDBRANCH  27  31
ENDBRANCH  26  27
BRANCH  26  30
ATOM     30  C   UNL     1      -3.220 -14.251  14.213  0.00  0.00    +0.178 C 
BRANCH  30   5
ATOM      5  O   UNL     1      -2.750 -15.192  15.170  0.00  0.00    -0.393 OA
ATOM     39  H   UNL     1      -2.779 -14.757  16.039  0.00  0.00    +0.209 HD
ENDBRANCH  30   5
ENDBRANCH  26  30
ENDBRANCH   7  26
ENDBRANCH  22  23
ENDBRANCH  12  22
TORSDOF 11
ENDMDL
MODEL 6
REMARK VINA RESULT:      -5.7     24.342     27.107
REMARK  Name = 7156516
REMARK  15 active torsions:
REMARK  status: ('A' for Active; 'I' for Inactive)
REMARK    1  A    between atoms: O_2  and  C_14
REMARK    2  A    between atoms: O_3  and  C_19
REMARK    3  A    between atoms: O_5  and  C_30
REMARK    4  A    between atoms: N_7  and  CA_26
REMARK    5  A    between atoms: C_9  and  C_17
REMARK    6  A    between atoms: C_11  and  C_19
REMARK    7  A    between atoms: C_11  and  C_20
REMARK    8  A    between atoms: C_12  and  C_22
REMARK    9  A    between atoms: C_22  and  C_23
REMARK   10  A    between atoms: C_24  and  C_25
REMARK   11  A    between atoms: CA_26  and  CB_27
REMARK   12  A    between atoms: CA_26  and  C_30
REMARK   13  A    between atoms: CB_27  and  CG_31
REMARK   14  A    between atoms: CG_31  and  CD1_33
REMARK   15  A    between atoms: CG_31  and  CD2_34
REMARK                            x       y       z     vdW  Elec       q    Type
REMARK                         _______ _______ _______ _____ _____    ______ ____
ROOT
ATOM      1  S   UNL     1      -5.987  -9.828  10.412  0.00  0.00    -0.072 S 
ATOM      6  N   UNL     1      -7.700  -9.311  12.281  0.00  0.00    -0.243 NA
ATOM      9  C   UNL     1      -5.224 -10.863  14.798  0.00  0.00    -0.020 C 
ATOM     10  C   UNL     1      -3.956 -10.417  13.945  0.00  0.00    +0.011 C 
ATOM     11  C   UNL     1      -2.544 -10.908  14.452  0.00  0.00    +0.021 C 
ATOM     12  C   UNL     1      -6.450  -9.924  14.385  0.00  0.00    +0.053 C 
ATOM     13  C   UNL     1      -4.932 -10.650  16.307  0.00  0.00    +0.010 C 
ATOM     14  C   UNL     1      -2.437 -10.663  15.983  0.00  0.00    +0.123 C 
ATOM     15  C   UNL     1      -4.187 -10.642  12.422  0.00  0.00    +0.049 C 
ATOM     16  C   UNL     1      -3.608 -11.244  16.769  0.00  0.00    +0.032 C 
ATOM     17  C   UNL     1      -5.612 -12.345  14.572  0.00  0.00    +0.012 C 
ATOM     18  C   UNL     1      -6.557  -9.801  12.887  0.00  0.00    +0.056 A 
ATOM     20  C   UNL     1      -1.437 -10.057  13.769  0.00  0.00    +0.016 C 
ATOM     21  C   UNL     1      -5.523 -10.110  12.026  0.00  0.00    +0.014 A 
ATOM     24  C   UNL     1      -7.516  -9.289  10.979  0.00  0.00    +0.110 A 
ENDROOT
BRANCH  24  25
ATOM      8  N   UNL     1     -10.790  -8.841   9.256  0.00  0.00    -0.263 NA
ATOM     25  C   UNL     1      -8.495  -8.849  10.013  0.00  0.00    +0.025 A 
ATOM     28  C   UNL     1      -8.131  -8.039   8.943  0.00  0.00    +0.013 A 
ATOM     29  C   UNL     1      -9.825  -9.219  10.124  0.00  0.00    +0.121 A 
ATOM     32  C   UNL     1      -9.096  -7.629   8.030  0.00  0.00    +0.020 A 
ATOM     35  C   UNL     1     -10.400  -8.054   8.229  0.00  0.00    +0.111 A 
ENDBRANCH  24  25
BRANCH  14   2
ATOM      2  O   UNL     1      -1.224 -11.213  16.496  0.00  0.00    -0.391 OA
ATOM     36  H   UNL     1      -1.405 -11.537  17.395  0.00  0.00    +0.210 HD
ENDBRANCH  14   2
BRANCH  11  19
ATOM     19  C   UNL     1      -2.213 -12.376  14.103  0.00  0.00    +0.165 C 
BRANCH  19   3
ATOM      3  O   UNL     1      -1.351 -12.370  12.988  0.00  0.00    -0.394 OA
ATOM     37  H   UNL     1      -0.743 -13.123  13.087  0.00  0.00    +0.209 HD
ENDBRANCH  19   3
ENDBRANCH  11  19
BRANCH  12  22
ATOM     22  C   UNL     1      -7.794 -10.317  15.013  0.00  0.00    +0.106 C 
BRANCH  22  23
ATOM      4  O   UNL     1      -7.647  -9.165  17.135  0.00  0.00    -0.276 OA
ATOM      7  N   UNL     1      -9.380  -8.656  15.672  0.00  0.00    -0.310 N 
ATOM     23  C   ACE A   0      -8.234  -9.331  16.070  0.00  0.00    +0.214 C 
ATOM     38  H   UNL     1      -9.832  -8.918  14.801  0.00  0.00    +0.149 HD
BRANCH   7  26
ATOM     26  CA  UNL     1     -10.029  -7.655  16.487  0.00  0.00    +0.098 C 
BRANCH  26  27
ATOM     27  CB  UNL     1     -11.112  -8.286  17.379  0.00  0.00    +0.027 C 
BRANCH  27  31
ATOM     31  CG  UNL     1     -11.747  -9.577  16.822  0.00  0.00    -0.015 C 
ATOM     33  CD1 UNL     1     -13.204  -9.308  16.431  0.00  0.00    +0.007 C 
ATOM     34  CD2 UNL     1     -11.689 -10.736  17.818  0.00  0.00    +0.007 C 
ENDBRANCH  27  31
ENDBRANCH  26  27
BRANCH  26  30
ATOM     30  C   UNL     1     -10.597  -6.544  15.597  0.00  0.00    +0.178 C 
BRANCH  30   5
ATOM      5  O   UNL     1      -9.579  -5.625  15.223  0.00  0.00    -0.393 OA
ATOM     39  H   UNL     1      -9.096  -5.387  16.033  0.00  0.00    +0.209 HD
ENDBRANCH  30   5
ENDBRANCH  26  30
ENDBRANCH   7  26
ENDBRANCH  22  23
ENDBRANCH  12  22
TORSDOF 11
ENDMDL
MODEL 7
REMARK VINA RESULT:      -5.7     26.686     30.796
REMARK  Name = 7156516
REMARK  15 active torsions:
REMARK  status: ('A' for Active; 'I' for Inactive)
REMARK    1  A    between atoms: O_2  and  C_14
REMARK    2  A    between atoms: O_3  and  C_19
REMARK    3  A    between atoms: O_5  and  C_30
REMARK    4  A    between atoms: N_7  and  CA_26
REMARK    5  A    between atoms: C_9  and  C_17
REMARK    6  A    between atoms: C_11  and  C_19
REMARK    7  A    between atoms: C_11  and  C_20
REMARK    8  A    between atoms: C_12  and  C_22
REMARK    9  A    between atoms: C_22  and  C_23
REMARK   10  A    between atoms: C_24  and  C_25
REMARK   11  A    between atoms: CA_26  and  CB_27
REMARK   12  A    between atoms: CA_26  and  C_30
REMARK   13  A    between atoms: CB_27  and  CG_31
REMARK   14  A    between atoms: CG_31  and  CD1_33
REMARK   15  A    between atoms: CG_31  and  CD2_34
REMARK                            x       y       z     vdW  Elec       q    Type
REMARK                         _______ _______ _______ _____ _____    ______ ____
ROOT
ATOM      1  S   UNL     1     -14.453   6.892  20.033  0.00  0.00    -0.072 S 
ATOM      6  N   UNL     1     -13.891   8.737  21.757  0.00  0.00    -0.243 NA
ATOM      9  C   UNL     1     -11.456  10.232  19.167  0.00  0.00    -0.020 C 
ATOM     10  C   UNL     1     -12.335   9.733  17.937  0.00  0.00    +0.011 C 
ATOM     11  C   UNL     1     -11.743   9.968  16.493  0.00  0.00    +0.021 C 
ATOM     12  C   UNL     1     -12.404  10.302  20.453  0.00  0.00    +0.053 C 
ATOM     13  C   UNL     1     -10.922  11.659  18.875  0.00  0.00    +0.010 C 
ATOM     14  C   UNL     1     -11.214  11.426  16.387  0.00  0.00    +0.123 C 
ATOM     15  C   UNL     1     -12.869   8.290  18.168  0.00  0.00    +0.049 C 
ATOM     16  C   UNL     1     -10.257  11.802  17.513  0.00  0.00    +0.032 C 
ATOM     17  C   UNL     1     -10.253   9.303  19.464  0.00  0.00    +0.012 C 
ATOM     18  C   UNL     1     -13.236   9.052  20.580  0.00  0.00    +0.056 A 
ATOM     20  C   UNL     1     -12.882   9.812  15.447  0.00  0.00    +0.016 C 
ATOM     21  C   UNL     1     -13.447   8.173  19.537  0.00  0.00    +0.014 A 
ATOM     24  C   UNL     1     -14.557   7.615  21.587  0.00  0.00    +0.110 A 
ENDROOT
BRANCH  24  25
ATOM      8  N   UNL     1     -15.697   5.066  24.056  0.00  0.00    -0.263 NA
ATOM     25  C   UNL     1     -15.355   6.965  22.600  0.00  0.00    +0.025 A 
ATOM     28  C   UNL     1     -16.508   7.563  23.096  0.00  0.00    +0.013 A 
ATOM     29  C   UNL     1     -14.995   5.728  23.108  0.00  0.00    +0.121 A 
ATOM     32  C   UNL     1     -17.256   6.914  24.072  0.00  0.00    +0.020 A 
ATOM     35  C   UNL     1     -16.812   5.678  24.514  0.00  0.00    +0.111 A 
ENDBRANCH  24  25
BRANCH  14   2
ATOM      2  O   UNL     1     -10.556  11.633  15.138  0.00  0.00    -0.391 OA
ATOM     36  H   UNL     1     -11.211  11.995  14.516  0.00  0.00    +0.210 HD
ENDBRANCH  14   2
BRANCH  11  19
ATOM     19  C   UNL     1     -10.654   8.955  16.074  0.00  0.00    +0.165 C 
BRANCH  19   3
ATOM      3  O   UNL     1     -10.568   8.972  14.667  0.00  0.00    -0.394 OA
ATOM     37  H   UNL     1     -11.437   9.247  14.327  0.00  0.00    +0.209 HD
ENDBRANCH  19   3
ENDBRANCH  11  19
BRANCH  12  22
ATOM     22  C   UNL     1     -11.676  10.628  21.764  0.00  0.00    +0.106 C 
BRANCH  22  23
ATOM      4  O   UNL     1     -13.271  12.346  22.361  0.00  0.00    -0.276 OA
ATOM      7  N   UNL     1     -12.408  10.960  24.014  0.00  0.00    -0.310 N 
ATOM     23  C   ACE A   0     -12.546  11.420  22.712  0.00  0.00    +0.214 C 
ATOM     38  H   UNL     1     -11.727  10.232  24.212  0.00  0.00    +0.149 HD
BRANCH   7  26
ATOM     26  CA  UNL     1     -13.119  11.533  25.134  0.00  0.00    +0.098 C 
BRANCH  26  27
ATOM     27  CB  UNL     1     -12.192  11.698  26.350  0.00  0.00    +0.027 C 
BRANCH  27  31
ATOM     31  CG  UNL     1     -11.629  10.381  26.927  0.00  0.00    -0.015 C 
ATOM     33  CD1 UNL     1     -12.033  10.250  28.400  0.00  0.00    +0.007 C 
ATOM     34  CD2 UNL     1     -10.108  10.289  26.802  0.00  0.00    +0.007 C 
ENDBRANCH  27  31
ENDBRANCH  26  27
BRANCH  26  30
ATOM     30  C   UNL     1     -14.349  10.680  25.464  0.00  0.00    +0.178 C 
BRANCH  30   5
ATOM      5  O   UNL     1     -14.269   9.410  24.830  0.00  0.00    -0.393 OA
ATOM     39  H   UNL     1     -14.204   9.571  23.873  0.00  0.00    +0.209 HD
ENDBRANCH  30   5
ENDBRANCH  26  30
ENDBRANCH   7  26
ENDBRANCH  22  23
ENDBRANCH  12  22
TORSDOF 11
ENDMDL
MODEL 8
REMARK VINA RESULT:      -5.6     27.943     31.214
REMARK  Name = 7156516
REMARK  15 active torsions:
REMARK  status: ('A' for Active; 'I' for Inactive)
REMARK    1  A    between atoms: O_2  and  C_14
REMARK    2  A    between atoms: O_3  and  C_19
REMARK    3  A    between atoms: O_5  and  C_30
REMARK    4  A    between atoms: N_7  and  CA_26
REMARK    5  A    between atoms: C_9  and  C_17
REMARK    6  A    between atoms: C_11  and  C_19
REMARK    7  A    between atoms: C_11  and  C_20
REMARK    8  A    between atoms: C_12  and  C_22
REMARK    9  A    between atoms: C_22  and  C_23
REMARK   10  A    between atoms: C_24  and  C_25
REMARK   11  A    between atoms: CA_26  and  CB_27
REMARK   12  A    between atoms: CA_26  and  C_30
REMARK   13  A    between atoms: CB_27  and  CG_31
REMARK   14  A    between atoms: CG_31  and  CD1_33
REMARK   15  A    between atoms: CG_31  and  CD2_34
REMARK                            x       y       z     vdW  Elec       q    Type
REMARK                         _______ _______ _______ _____ _____    ______ ____
ROOT
ATOM      1  S   UNL     1     -10.252 -12.449  20.125  0.00  0.00    -0.072 S 
ATOM      6  N   UNL     1     -10.652 -10.298  18.745  0.00  0.00    -0.243 NA
ATOM      9  C   UNL     1      -7.008 -10.567  17.514  0.00  0.00    -0.020 C 
ATOM     10  C   UNL     1      -7.014 -12.157  17.599  0.00  0.00    +0.011 C 
ATOM     11  C   UNL     1      -5.651 -12.894  17.302  0.00  0.00    +0.021 C 
ATOM     12  C   UNL     1      -8.525 -10.074  17.408  0.00  0.00    +0.053 C 
ATOM     13  C   UNL     1      -6.260 -10.122  16.229  0.00  0.00    +0.010 C 
ATOM     14  C   UNL     1      -5.015 -12.299  16.015  0.00  0.00    +0.123 C 
ATOM     15  C   UNL     1      -7.728 -12.654  18.889  0.00  0.00    +0.049 C 
ATOM     16  C   UNL     1      -4.897 -10.778  16.051  0.00  0.00    +0.032 C 
ATOM     17  C   UNL     1      -6.333  -9.901  18.737  0.00  0.00    +0.012 C 
ATOM     18  C   UNL     1      -9.392 -10.769  18.426  0.00  0.00    +0.056 A 
ATOM     20  C   UNL     1      -5.938 -14.397  17.023  0.00  0.00    +0.016 C 
ATOM     21  C   UNL     1      -9.023 -11.936  19.065  0.00  0.00    +0.014 A 
ATOM     24  C   UNL     1     -11.195 -11.099  19.636  0.00  0.00    +0.110 A 
ENDROOT
BRANCH  24  25
ATOM      8  N   UNL     1     -14.432 -11.904  21.299  0.00  0.00    -0.263 NA
ATOM     25  C   UNL     1     -12.505 -10.924  20.218  0.00  0.00    +0.025 A 
ATOM     28  C   UNL     1     -13.103  -9.671  20.269  0.00  0.00    +0.013 A 
ATOM     29  C   UNL     1     -13.203 -12.000  20.741  0.00  0.00    +0.121 A 
ATOM     32  C   UNL     1     -14.366  -9.533  20.836  0.00  0.00    +0.020 A 
ATOM     35  C   UNL     1     -14.982 -10.670  21.332  0.00  0.00    +0.111 A 
ENDBRANCH  24  25
BRANCH  14   2
ATOM      2  O   UNL     1      -3.721 -12.853  15.790  0.00  0.00    -0.391 OA
ATOM     36  H   UNL     1      -3.677 -13.703  16.263  0.00  0.00    +0.210 HD
ENDBRANCH  14   2
BRANCH  11  19
ATOM     19  C   UNL     1      -4.644 -12.875  18.474  0.00  0.00    +0.165 C 
BRANCH  19   3
ATOM      3  O   UNL     1      -4.082 -14.164  18.580  0.00  0.00    -0.394 OA
ATOM     37  H   UNL     1      -3.320 -14.198  17.975  0.00  0.00    +0.209 HD
ENDBRANCH  19   3
ENDBRANCH  11  19
BRANCH  12  22
ATOM     22  C   UNL     1      -8.705  -8.551  17.464  0.00  0.00    +0.106 C 
BRANCH  22  23
ATOM      4  O   UNL     1      -9.649  -8.294  15.251  0.00  0.00    -0.276 OA
ATOM      7  N   UNL     1     -10.721  -7.329  17.073  0.00  0.00    -0.310 N 
ATOM     23  C   ACE A   0      -9.719  -8.064  16.455  0.00  0.00    +0.214 C 
ATOM     38  H   UNL     1     -10.650  -7.134  18.068  0.00  0.00    +0.149 HD
BRANCH   7  26
ATOM     26  CA  UNL     1     -11.824  -6.735  16.352  0.00  0.00    +0.098 C 
BRANCH  26  27
ATOM     27  CB  UNL     1     -12.751  -7.818  15.774  0.00  0.00    +0.027 C 
BRANCH  27  31
ATOM     31  CG  UNL     1     -13.339  -8.799  16.812  0.00  0.00    -0.015 C 
ATOM     33  CD1 UNL     1     -13.146 -10.239  16.326  0.00  0.00    +0.007 C 
ATOM     34  CD2 UNL     1     -14.821  -8.543  17.086  0.00  0.00    +0.007 C 
ENDBRANCH  27  31
ENDBRANCH  26  27
BRANCH  26  30
ATOM     30  C   UNL     1     -11.293  -5.796  15.264  0.00  0.00    +0.178 C 
BRANCH  30   5
ATOM      5  O   UNL     1     -11.702  -6.235  13.975  0.00  0.00    -0.393 OA
ATOM     39  H   UNL     1     -11.404  -7.155  13.877  0.00  0.00    +0.209 HD
ENDBRANCH  30   5
ENDBRANCH  26  30
ENDBRANCH   7  26
ENDBRANCH  22  23
ENDBRANCH  12  22
TORSDOF 11
ENDMDL
MODEL 9
REMARK VINA RESULT:      -5.5     18.690     22.209
REMARK  Name = 7156516
REMARK  15 active torsions:
REMARK  status: ('A' for Active; 'I' for Inactive)
REMARK    1  A    between atoms: O_2  and  C_14
REMARK    2  A    between atoms: O_3  and  C_19
REMARK    3  A    between atoms: O_5  and  C_30
REMARK    4  A    between atoms: N_7  and  CA_26
REMARK    5  A    between atoms: C_9  and  C_17
REMARK    6  A    between atoms: C_11  and  C_19
REMARK    7  A    between atoms: C_11  and  C_20
REMARK    8  A    between atoms: C_12  and  C_22
REMARK    9  A    between atoms: C_22  and  C_23
REMARK   10  A    between atoms: C_24  and  C_25
REMARK   11  A    between atoms: CA_26  and  CB_27
REMARK   12  A    between atoms: CA_26  and  C_30
REMARK   13  A    between atoms: CB_27  and  CG_31
REMARK   14  A    between atoms: CG_31  and  CD1_33
REMARK   15  A    between atoms: CG_31  and  CD2_34
REMARK                            x       y       z     vdW  Elec       q    Type
REMARK                         _______ _______ _______ _____ _____    ______ ____
ROOT
ATOM      1  S   UNL     1      14.088   8.399  21.233  0.00  0.00    -0.072 S 
ATOM      6  N   UNL     1      16.360   9.523  21.751  0.00  0.00    -0.243 NA
ATOM      9  C   UNL     1      14.403  12.481  23.264  0.00  0.00    -0.020 C 
ATOM     10  C   UNL     1      13.201  11.547  23.734  0.00  0.00    +0.011 C 
ATOM     11  C   UNL     1      11.945  12.263  24.366  0.00  0.00    +0.021 C 
ATOM     12  C   UNL     1      15.697  11.562  23.081  0.00  0.00    +0.053 C 
ATOM     13  C   UNL     1      14.701  13.531  24.367  0.00  0.00    +0.010 C 
ATOM     14  C   UNL     1      12.423  13.309  25.411  0.00  0.00    +0.123 C 
ATOM     15  C   UNL     1      12.841  10.494  22.646  0.00  0.00    +0.049 C 
ATOM     16  C   UNL     1      13.468  14.274  24.861  0.00  0.00    +0.032 C 
ATOM     17  C   UNL     1      14.106  13.224  21.939  0.00  0.00    +0.012 C 
ATOM     18  C   UNL     1      15.368  10.312  22.305  0.00  0.00    +0.056 A 
ATOM     20  C   UNL     1      11.091  11.209  25.125  0.00  0.00    +0.016 C 
ATOM     21  C   UNL     1      14.082   9.841  22.138  0.00  0.00    +0.014 A 
ATOM     24  C   UNL     1      15.801   8.492  21.155  0.00  0.00    +0.110 A 
ENDROOT
BRANCH  24  25
ATOM      8  N   UNL     1      16.530   5.747  18.742  0.00  0.00    -0.263 NA
ATOM     25  C   UNL     1      16.518   7.453  20.454  0.00  0.00    +0.025 A 
ATOM     28  C   UNL     1      17.835   7.147  20.779  0.00  0.00    +0.013 A 
ATOM     29  C   UNL     1      15.916   6.731  19.437  0.00  0.00    +0.121 A 
ATOM     32  C   UNL     1      18.500   6.142  20.086  0.00  0.00    +0.020 A 
ATOM     35  C   UNL     1      17.810   5.477  19.086  0.00  0.00    +0.111 A 
ENDBRANCH  24  25
BRANCH  14   2
ATOM      2  O   UNL     1      11.319  14.064  25.909  0.00  0.00    -0.391 OA
ATOM     36  H   UNL     1      11.675  14.872  26.317  0.00  0.00    +0.210 HD
ENDBRANCH  14   2
BRANCH  11  19
ATOM     19  C   UNL     1      10.989  12.908  23.338  0.00  0.00    +0.165 C 
BRANCH  19   3
ATOM      3  O   UNL     1       9.678  12.805  23.845  0.00  0.00    -0.394 OA
ATOM     37  H   UNL     1       9.527  13.577  24.417  0.00  0.00    +0.209 HD
ENDBRANCH  19   3
ENDBRANCH  11  19
BRANCH  12  22
ATOM     22  C   UNL     1      16.914  12.285  22.489  0.00  0.00    +0.106 C 
BRANCH  22  23
ATOM      4  O   UNL     1      18.597  12.105  24.217  0.00  0.00    -0.276 OA
ATOM      7  N   UNL     1      18.892  10.974  22.209  0.00  0.00    -0.310 N 
ATOM     23  C   ACE A   0      18.211  11.799  23.093  0.00  0.00    +0.214 C 
ATOM     38  H   UNL     1      18.522  10.839  21.273  0.00  0.00    +0.149 HD
BRANCH   7  26
ATOM     26  CA  UNL     1      20.166  10.366  22.518  0.00  0.00    +0.098 C 
BRANCH  26  27
ATOM     27  CB  UNL     1      20.957  10.060  21.235  0.00  0.00    +0.027 C 
BRANCH  27  31
ATOM     31  CG  UNL     1      22.017   8.946  21.370  0.00  0.00    -0.015 C 
ATOM     33  CD1 UNL     1      23.420   9.562  21.326  0.00  0.00    +0.007 C 
ATOM     34  CD2 UNL     1      21.890   7.880  20.282  0.00  0.00    +0.007 C 
ENDBRANCH  27  31
ENDBRANCH  26  27
BRANCH  26  30
ATOM     30  C   UNL     1      19.953   9.111  23.372  0.00  0.00    +0.178 C 
BRANCH  30   5
ATOM      5  O   UNL     1      20.096   9.410  24.754  0.00  0.00    -0.393 OA
ATOM     39  H   UNL     1      20.908   8.972  25.060  0.00  0.00    +0.209 HD
ENDBRANCH  30   5
ENDBRANCH  26  30
ENDBRANCH   7  26
ENDBRANCH  22  23
ENDBRANCH  12  22
TORSDOF 11
ENDMDL
MODEL 10
REMARK VINA RESULT:      -5.4     32.535     35.953
REMARK  Name = 7156516
REMARK  15 active torsions:
REMARK  status: ('A' for Active; 'I' for Inactive)
REMARK    1  A    between atoms: O_2  and  C_14
REMARK    2  A    between atoms: O_3  and  C_19
REMARK    3  A    between atoms: O_5  and  C_30
REMARK    4  A    between atoms: N_7  and  CA_26
REMARK    5  A    between atoms: C_9  and  C_17
REMARK    6  A    between atoms: C_11  and  C_19
REMARK    7  A    between atoms: C_11  and  C_20
REMARK    8  A    between atoms: C_12  and  C_22
REMARK    9  A    between atoms: C_22  and  C_23
REMARK   10  A    between atoms: C_24  and  C_25
REMARK   11  A    between atoms: CA_26  and  CB_27
REMARK   12  A    between atoms: CA_26  and  C_30
REMARK   13  A    between atoms: CB_27  and  CG_31
REMARK   14  A    between atoms: CG_31  and  CD1_33
REMARK   15  A    between atoms: CG_31  and  CD2_34
REMARK                            x       y       z     vdW  Elec       q    Type
REMARK                         _______ _______ _______ _____ _____    ______ ____
ROOT
ATOM      1  S   UNL     1       7.094  -7.799  35.333  0.00  0.00    -0.072 S 
ATOM      6  N   UNL     1       7.862  -8.839  33.092  0.00  0.00    -0.243 NA
ATOM      9  C   UNL     1       5.597 -11.862  33.870  0.00  0.00    -0.020 C 
ATOM     10  C   UNL     1       4.553 -10.971  34.677  0.00  0.00    +0.011 C 
ATOM     11  C   UNL     1       3.368 -11.730  35.391  0.00  0.00    +0.021 C 
ATOM     12  C   UNL     1       6.417 -10.897  32.894  0.00  0.00    +0.053 C 
ATOM     13  C   UNL     1       4.832 -12.898  33.004  0.00  0.00    +0.010 C 
ATOM     14  C   UNL     1       2.746 -12.756  34.403  0.00  0.00    +0.123 C 
ATOM     15  C   UNL     1       5.273  -9.935  35.587  0.00  0.00    +0.049 C 
ATOM     16  C   UNL     1       3.778 -13.684  33.771  0.00  0.00    +0.032 C 
ATOM     17  C   UNL     1       6.583 -12.619  34.793  0.00  0.00    +0.012 C 
ATOM     18  C   UNL     1       6.884  -9.662  33.620  0.00  0.00    +0.056 A 
ATOM     20  C   UNL     1       2.256 -10.705  35.754  0.00  0.00    +0.016 C 
ATOM     21  C   UNL     1       6.344  -9.238  34.818  0.00  0.00    +0.014 A 
ATOM     24  C   UNL     1       8.060  -7.831  33.914  0.00  0.00    +0.110 A 
ENDROOT
BRANCH  24  25
ATOM      8  N   UNL     1       9.530  -4.409  33.789  0.00  0.00    -0.263 NA
ATOM     25  C   UNL     1       9.015  -6.768  33.704  0.00  0.00    +0.025 A 
ATOM     28  C   UNL     1      10.296  -7.039  33.235  0.00  0.00    +0.013 A 
ATOM     29  C   UNL     1       8.684  -5.449  33.964  0.00  0.00    +0.121 A 
ATOM     32  C   UNL     1      11.194  -5.995  33.043  0.00  0.00    +0.020 A 
ATOM     35  C   UNL     1      10.766  -4.710  33.332  0.00  0.00    +0.111 A 
ENDBRANCH  24  25
BRANCH  14   2
ATOM      2  O   UNL     1       1.756 -13.548  35.057  0.00  0.00    -0.391 OA
ATOM     36  H   UNL     1       1.224 -12.954  35.614  0.00  0.00    +0.210 HD
ENDBRANCH  14   2
BRANCH  11  19
ATOM     19  C   UNL     1       3.754 -12.412  36.723  0.00  0.00    +0.165 C 
BRANCH  19   3
ATOM      3  O   UNL     1       3.036 -11.776  37.756  0.00  0.00    -0.394 OA
ATOM     37  H   UNL     1       2.096 -11.789  37.506  0.00  0.00    +0.209 HD
ENDBRANCH  19   3
ENDBRANCH  11  19
BRANCH  12  22
ATOM     22  C   UNL     1       7.570 -11.578  32.145  0.00  0.00    +0.106 C 
BRANCH  22  23
ATOM      4  O   UNL     1       7.126 -10.698  29.936  0.00  0.00    -0.276 OA
ATOM      7  N   UNL     1       7.286 -12.996  30.243  0.00  0.00    -0.310 N 
ATOM     23  C   ACE A   0       7.304 -11.673  30.661  0.00  0.00    +0.214 C 
ATOM     38  H   UNL     1       7.374 -13.735  30.934  0.00  0.00    +0.149 HD
BRANCH   7  26
ATOM     26  CA  UNL     1       7.051 -13.387  28.872  0.00  0.00    +0.098 C 
BRANCH  26  27
ATOM     27  CB  UNL     1       6.500 -14.822  28.795  0.00  0.00    +0.027 C 
BRANCH  27  31
ATOM     31  CG  UNL     1       4.987 -14.927  28.507  0.00  0.00    -0.015 C 
ATOM     33  CD1 UNL     1       4.218 -13.989  29.444  0.00  0.00    +0.007 C 
ATOM     34  CD2 UNL     1       4.458 -16.353  28.662  0.00  0.00    +0.007 C 
ENDBRANCH  27  31
ENDBRANCH  26  27
BRANCH  26  30
ATOM     30  C   UNL     1       8.335 -13.224  28.053  0.00  0.00    +0.178 C 
BRANCH  30   5
ATOM      5  O   UNL     1       8.304 -12.019  27.299  0.00  0.00    -0.393 OA
ATOM     39  H   UNL     1       8.541 -12.247  26.384  0.00  0.00    +0.209 HD
ENDBRANCH  30   5
ENDBRANCH  26  30
ENDBRANCH   7  26
ENDBRANCH  22  23
ENDBRANCH  12  22
TORSDOF 11
ENDMDL
