REMARK  Name = 75536879
REMARK  3 active torsions:
REMARK  status: ('A' for Active; 'I' for Inactive)
REMARK    1  A    between atoms: O_3  and  C_11
REMARK    2  A    between atoms: O_3  and  C_14
REMARK    3  A    between atoms: C_5  and  C_8
REMARK                            x       y       z     vdW  Elec       q    Type
REMARK                         _______ _______ _______ _____ _____    ______ ____
ROOT
ATOM      1  O   UNL     1      -2.164   1.863   0.661  0.00  0.00    -0.376 OA
ATOM      2  O   UNL     1       2.534   1.330  -0.680  0.00  0.00    -0.275 OA
ATOM      4  N   UNL     1       0.373   0.451  -0.564  0.00  0.00    -0.297 N 
ATOM      8  C   UNL     1       1.775   0.381  -0.501  0.00  0.00    +0.219 C 
ATOM      9  C   UNL     1      -0.481  -0.719  -0.341  0.00  0.00    +0.141 C 
ATOM     10  C   UNL     1      -0.257   1.738  -0.864  0.00  0.00    +0.136 C 
ATOM     11  C   UNL     1      -1.964  -0.459  -0.072  0.00  0.00    +0.161 C 
ATOM     12  C   UNL     1      -2.202   0.505   1.088  0.00  0.00    +0.193 C 
ATOM     13  C   UNL     1      -0.860   2.363   0.387  0.00  0.00    +0.179 C 
ENDROOT
BRANCH   8   5
ATOM      5  C   UNL     1       2.382  -0.947  -0.173  0.00  0.00    +0.075 C 
ATOM      6  C   UNL     1       3.728  -0.972   0.468  0.00  0.00    +0.013 C 
ATOM      7  C   UNL     1       2.507  -1.333   1.262  0.00  0.00    +0.013 C 
ENDBRANCH   8   5
BRANCH  11   3
ATOM      3  O   UNL     1      -2.550  -1.722   0.250  0.00  0.00    -0.376 OA
ATOM     14  C   UNL     1      -2.821  -2.479  -0.920  0.00  0.00    +0.194 C 
ENDBRANCH  11   3
TORSDOF 2
