REMARK  Name = 56775131
REMARK  5 active torsions:
REMARK  status: ('A' for Active; 'I' for Inactive)
REMARK    1  A    between atoms: N_6  and  C_13
REMARK    2  A    between atoms: N_7  and  C_15
REMARK    3  A    between atoms: C_13  and  C_17
REMARK    4  A    between atoms: C_15  and  C_18
REMARK    5  A    between atoms: C_23  and  C_28
REMARK                            x       y       z     vdW  Elec       q    Type
REMARK                         _______ _______ _______ _____ _____    ______ ____
ROOT
ATOM      4  O   UNL     1       0.969   3.528  -0.582  0.00  0.00    -0.364 OA
ATOM      5  O   UNL     1      -2.219   4.344   0.678  0.00  0.00    -0.273 OA
ATOM      6  N   UNL     1       1.963   0.519   0.318  0.00  0.00    -0.294 NA
ATOM      7  N   UNL     1      -1.254   2.243   0.415  0.00  0.00    -0.288 N 
ATOM      9  C   UNL     1      -0.123   1.443  -0.049  0.00  0.00    +0.120 C 
ATOM     10  C   UNL     1       0.837   2.168  -0.987  0.00  0.00    +0.154 C 
ATOM     11  C   UNL     1       0.806   0.995   1.076  0.00  0.00    +0.110 C 
ATOM     12  C   UNL     1       2.189   1.482  -0.767  0.00  0.00    +0.118 C 
ATOM     14  C   UNL     1      -1.331   3.619   0.226  0.00  0.00    +0.242 C 
ATOM     16  C   UNL     1      -0.264   4.204  -0.674  0.00  0.00    +0.256 C 
ENDROOT
BRANCH   6  13
ATOM     13  C   UNL     1       3.138   0.319   1.151  0.00  0.00    +0.121 C 
BRANCH  13  17
ATOM      8  N   UNL     1       6.237  -0.864  -0.664  0.00  0.00    -0.263 NA
ATOM     17  C   UNL     1       4.137  -0.595   0.504  0.00  0.00    -0.015 A 
ATOM     21  C   UNL     1       3.926  -1.969   0.455  0.00  0.00    +0.008 A 
ATOM     22  C   UNL     1       5.298  -0.097  -0.066  0.00  0.00    +0.115 A 
ATOM     25  C   UNL     1       4.869  -2.791  -0.153  0.00  0.00    +0.020 A 
ATOM     27  C   UNL     1       5.997  -2.194  -0.692  0.00  0.00    +0.111 A 
ENDBRANCH  13  17
ENDBRANCH   6  13
BRANCH   7  15
ATOM     15  C   UNL     1      -2.281   1.553   1.184  0.00  0.00    +0.143 C 
BRANCH  15  18
ATOM     18  C   UNL     1      -2.954   0.475   0.384  0.00  0.00    -0.030 A 
ATOM     19  C   UNL     1      -2.646  -0.865   0.621  0.00  0.00    +0.017 A 
ATOM     20  C   UNL     1      -3.887   0.814  -0.596  0.00  0.00    +0.005 A 
ATOM     23  C   UNL     1      -3.272  -1.866  -0.123  0.00  0.00    +0.055 A 
ATOM     24  C   UNL     1      -4.512  -0.187  -1.340  0.00  0.00    +0.001 A 
ATOM     26  C   UNL     1      -4.205  -1.527  -1.103  0.00  0.00    +0.012 A 
BRANCH  23  28
ATOM      1  F   UNL     1      -3.639  -4.147  -0.681  0.00  0.00    -0.166 F 
ATOM      2  F   UNL     1      -1.625  -3.600  -0.070  0.00  0.00    -0.166 F 
ATOM      3  F   UNL     1      -3.213  -3.705   1.405  0.00  0.00    -0.166 F 
ATOM     28  C   UNL     1      -2.942  -3.298   0.129  0.00  0.00    +0.417 C 
ENDBRANCH  23  28
ENDBRANCH  15  18
ENDBRANCH   7  15
TORSDOF 5
