MODEL 1
REMARK VINA RESULT:      -7.3      0.000      0.000
REMARK  Name = 51137997
REMARK  8 active torsions:
REMARK  status: ('A' for Active; 'I' for Inactive)
REMARK    1  A    between atoms: N_4  and  C_22
REMARK    2  A    between atoms: N_5  and  C_23
REMARK    3  A    between atoms: C_6  and  C_10
REMARK    4  A    between atoms: C_8  and  C_17
REMARK    5  A    between atoms: C_10  and  C_13
REMARK    6  A    between atoms: C_13  and  C_19
REMARK    7  A    between atoms: C_13  and  C_20
REMARK    8  A    between atoms: C_23  and  C_24
REMARK                            x       y       z     vdW  Elec       q    Type
REMARK                         _______ _______ _______ _____ _____    ______ ____
ROOT
ATOM      3  N   UNL     1     -13.303   9.472  21.377  0.00  0.00    -0.299 NA
ATOM      4  N   UNL     1     -10.441  11.108  17.552  0.00  0.00    -0.349 N 
ATOM      6  C   UNL     1     -12.672   8.273  20.811  0.00  0.00    +0.085 C 
ATOM      7  C   UNL     1     -11.888   8.479  19.511  0.00  0.00    -0.021 A 
ATOM      8  C   UNL     1     -12.372  10.507  21.801  0.00  0.00    +0.145 C 
ATOM      9  C   UNL     1     -11.448   9.738  19.010  0.00  0.00    +0.008 A 
ATOM     11  C   UNL     1     -12.200  11.583  20.730  0.00  0.00    +0.065 C 
ATOM     12  C   UNL     1     -11.548  11.093  19.481  0.00  0.00    -0.020 A 
ATOM     14  C   UNL     1     -10.725   9.789  17.811  0.00  0.00    +0.049 A 
ATOM     15  C   UNL     1     -10.925  11.900  18.550  0.00  0.00    +0.090 A 
ATOM     16  C   UNL     1     -11.492   7.337  18.768  0.00  0.00    +0.006 A 
ATOM     18  C   UNL     1     -10.384   8.656  17.071  0.00  0.00    +0.026 A 
ATOM     21  C   UNL     1     -10.771   7.422  17.579  0.00  0.00    +0.002 A 
ATOM     22  C   UNL     1      -9.716  11.603  16.401  0.00  0.00    +0.149 C 
ATOM     30  H   UNL     1     -14.007   9.848  20.742  0.00  0.00    +0.123 HD
ENDROOT
BRANCH   8  17
ATOM      2  O   UNL     1     -14.193  11.008  23.260  0.00  0.00    -0.274 OA
ATOM      5  N   UNL     1     -12.074  11.820  23.781  0.00  0.00    -0.310 N 
ATOM     17  C   UNL     1     -12.994  11.121  23.019  0.00  0.00    +0.231 C 
ATOM     31  H   UNL     1     -11.097  11.829  23.501  0.00  0.00    +0.149 HD
BRANCH   5  23
ATOM     23  C   UNL     1     -12.424  12.522  24.994  0.00  0.00    +0.139 C 
BRANCH  23  24
ATOM      1  F   UNL     1     -11.299   9.480  29.596  0.00  0.00    -0.205 F 
ATOM     24  C   UNL     1     -12.124  11.711  26.221  0.00  0.00    -0.030 A 
ATOM     25  C   UNL     1     -12.755  12.013  27.428  0.00  0.00    +0.008 A 
ATOM     26  C   UNL     1     -11.215  10.655  26.155  0.00  0.00    +0.008 A 
ATOM     27  C   UNL     1     -12.476  11.260  28.568  0.00  0.00    +0.038 A 
ATOM     28  C   UNL     1     -10.936   9.902  27.295  0.00  0.00    +0.038 A 
ATOM     29  C   UNL     1     -11.567  10.204  28.502  0.00  0.00    +0.123 A 
ENDBRANCH  23  24
ENDBRANCH   5  23
ENDBRANCH   8  17
BRANCH   6  10
ATOM     10  C   UNL     1     -13.824   7.264  20.652  0.00  0.00    +0.026 C 
BRANCH  10  13
ATOM     13  C   UNL     1     -13.930   6.288  21.827  0.00  0.00    -0.015 C 
ATOM     19  C   UNL     1     -12.642   5.467  21.920  0.00  0.00    +0.007 C 
ATOM     20  C   UNL     1     -15.132   5.350  21.708  0.00  0.00    +0.007 C 
ENDBRANCH  10  13
ENDBRANCH   6  10
TORSDOF 5
ENDMDL
MODEL 2
REMARK VINA RESULT:      -7.2      7.623     12.050
REMARK  Name = 51137997
REMARK  8 active torsions:
REMARK  status: ('A' for Active; 'I' for Inactive)
REMARK    1  A    between atoms: N_4  and  C_22
REMARK    2  A    between atoms: N_5  and  C_23
REMARK    3  A    between atoms: C_6  and  C_10
REMARK    4  A    between atoms: C_8  and  C_17
REMARK    5  A    between atoms: C_10  and  C_13
REMARK    6  A    between atoms: C_13  and  C_19
REMARK    7  A    between atoms: C_13  and  C_20
REMARK    8  A    between atoms: C_23  and  C_24
REMARK                            x       y       z     vdW  Elec       q    Type
REMARK                         _______ _______ _______ _____ _____    ______ ____
ROOT
ATOM      3  N   UNL     1     -15.161   2.733  28.894  0.00  0.00    -0.299 NA
ATOM      4  N   UNL     1     -16.031   6.501  32.141  0.00  0.00    -0.349 N 
ATOM      6  C   UNL     1     -14.994   2.151  30.232  0.00  0.00    +0.085 C 
ATOM      7  C   UNL     1     -15.027   3.141  31.401  0.00  0.00    -0.021 A 
ATOM      8  C   UNL     1     -16.453   3.362  28.661  0.00  0.00    +0.145 C 
ATOM      9  C   UNL     1     -15.528   4.473  31.334  0.00  0.00    +0.008 A 
ATOM     11  C   UNL     1     -16.390   4.872  28.879  0.00  0.00    +0.065 C 
ATOM     12  C   UNL     1     -16.120   5.268  30.292  0.00  0.00    -0.020 A 
ATOM     14  C   UNL     1     -15.513   5.274  32.482  0.00  0.00    +0.049 A 
ATOM     15  C   UNL     1     -16.405   6.507  30.830  0.00  0.00    +0.090 A 
ATOM     16  C   UNL     1     -14.601   2.697  32.679  0.00  0.00    +0.006 A 
ATOM     18  C   UNL     1     -15.047   4.832  33.722  0.00  0.00    +0.026 A 
ATOM     21  C   UNL     1     -14.601   3.519  33.803  0.00  0.00    +0.002 A 
ATOM     22  C   UNL     1     -16.185   7.628  33.036  0.00  0.00    +0.149 C 
ATOM     30  H   UNL     1     -14.396   3.371  28.676  0.00  0.00    +0.123 HD
ENDROOT
BRANCH   8  17
ATOM      2  O   UNL     1     -17.834   2.578  26.879  0.00  0.00    -0.274 OA
ATOM      5  N   UNL     1     -15.733   3.449  26.378  0.00  0.00    -0.310 N 
ATOM     17  C   UNL     1     -16.770   3.087  27.222  0.00  0.00    +0.231 C 
ATOM     31  H   UNL     1     -14.903   3.887  26.767  0.00  0.00    +0.149 HD
BRANCH   5  23
ATOM     23  C   UNL     1     -15.781   3.267  24.946  0.00  0.00    +0.139 C 
BRANCH  23  24
ATOM      1  F   UNL     1     -15.312   8.149  22.181  0.00  0.00    -0.205 F 
ATOM     24  C   UNL     1     -15.656   4.569  24.209  0.00  0.00    -0.030 A 
ATOM     25  C   UNL     1     -14.508   4.842  23.464  0.00  0.00    +0.008 A 
ATOM     26  C   UNL     1     -16.687   5.507  24.268  0.00  0.00    +0.008 A 
ATOM     27  C   UNL     1     -14.391   6.051  22.779  0.00  0.00    +0.038 A 
ATOM     28  C   UNL     1     -16.570   6.716  23.583  0.00  0.00    +0.038 A 
ATOM     29  C   UNL     1     -15.423   6.988  22.839  0.00  0.00    +0.123 A 
ENDBRANCH  23  24
ENDBRANCH   5  23
ENDBRANCH   8  17
BRANCH   6  10
ATOM     10  C   UNL     1     -13.669   1.372  30.156  0.00  0.00    +0.026 C 
BRANCH  10  13
ATOM     13  C   UNL     1     -13.832  -0.117  30.475  0.00  0.00    -0.015 C 
ATOM     19  C   UNL     1     -13.370  -0.945  29.274  0.00  0.00    +0.007 C 
ATOM     20  C   UNL     1     -15.270  -0.490  30.836  0.00  0.00    +0.007 C 
ENDBRANCH  10  13
ENDBRANCH   6  10
TORSDOF 5
ENDMDL
MODEL 3
REMARK VINA RESULT:      -7.1     19.835     21.993
REMARK  Name = 51137997
REMARK  8 active torsions:
REMARK  status: ('A' for Active; 'I' for Inactive)
REMARK    1  A    between atoms: N_4  and  C_22
REMARK    2  A    between atoms: N_5  and  C_23
REMARK    3  A    between atoms: C_6  and  C_10
REMARK    4  A    between atoms: C_8  and  C_17
REMARK    5  A    between atoms: C_10  and  C_13
REMARK    6  A    between atoms: C_13  and  C_19
REMARK    7  A    between atoms: C_13  and  C_20
REMARK    8  A    between atoms: C_23  and  C_24
REMARK                            x       y       z     vdW  Elec       q    Type
REMARK                         _______ _______ _______ _____ _____    ______ ____
ROOT
ATOM      3  N   UNL     1      -6.676 -11.072  16.224  0.00  0.00    -0.299 NA
ATOM      4  N   UNL     1      -3.094 -10.354  12.738  0.00  0.00    -0.349 N 
ATOM      6  C   UNL     1      -5.424 -10.891  16.971  0.00  0.00    +0.085 C 
ATOM      7  C   UNL     1      -4.144 -10.836  16.130  0.00  0.00    -0.021 A 
ATOM      8  C   UNL     1      -7.009  -9.981  15.322  0.00  0.00    +0.145 C 
ATOM      9  C   UNL     1      -4.096 -10.609  14.725  0.00  0.00    +0.008 A 
ATOM     11  C   UNL     1      -6.571 -10.281  13.890  0.00  0.00    +0.065 C 
ATOM     12  C   UNL     1      -5.092 -10.366  13.716  0.00  0.00    -0.020 A 
ATOM     14  C   UNL     1      -2.857 -10.568  14.074  0.00  0.00    +0.049 A 
ATOM     15  C   UNL     1      -4.432 -10.224  12.511  0.00  0.00    +0.090 A 
ATOM     16  C   UNL     1      -2.893 -10.941  16.790  0.00  0.00    +0.006 A 
ATOM     18  C   UNL     1      -1.637 -10.719  14.735  0.00  0.00    +0.026 A 
ATOM     21  C   UNL     1      -1.676 -10.895  16.113  0.00  0.00    +0.002 A 
ATOM     22  C   UNL     1      -2.082 -10.255  11.708  0.00  0.00    +0.149 C 
ATOM     30  H   UNL     1      -6.682 -11.968  15.738  0.00  0.00    +0.123 HD
ENDROOT
BRANCH   8  17
ATOM      2  O   UNL     1      -9.226 -10.665  14.762  0.00  0.00    -0.274 OA
ATOM      5  N   UNL     1      -8.932  -8.804  16.130  0.00  0.00    -0.310 N 
ATOM     17  C   UNL     1      -8.504  -9.877  15.366  0.00  0.00    +0.231 C 
ATOM     31  H   UNL     1      -8.247  -8.228  16.610  0.00  0.00    +0.149 HD
BRANCH   5  23
ATOM     23  C   UNL     1     -10.326  -8.472  16.314  0.00  0.00    +0.139 C 
BRANCH  23  24
ATOM      1  F   UNL     1     -12.470 -10.869  20.935  0.00  0.00    -0.205 F 
ATOM     24  C   UNL     1     -10.898  -9.111  17.546  0.00  0.00    -0.030 A 
ATOM     25  C   UNL     1     -10.048  -9.668  18.502  0.00  0.00    +0.008 A 
ATOM     26  C   UNL     1     -12.279  -9.148  17.737  0.00  0.00    +0.008 A 
ATOM     27  C   UNL     1     -10.578 -10.262  19.646  0.00  0.00    +0.038 A 
ATOM     28  C   UNL     1     -12.810  -9.742  18.881  0.00  0.00    +0.038 A 
ATOM     29  C   UNL     1     -11.960 -10.299  19.836  0.00  0.00    +0.123 A 
ENDBRANCH  23  24
ENDBRANCH   5  23
ENDBRANCH   8  17
BRANCH   6  10
ATOM     10  C   UNL     1      -5.409 -12.042  17.993  0.00  0.00    +0.026 C 
BRANCH  10  13
ATOM     13  C   UNL     1      -6.021 -11.652  19.342  0.00  0.00    -0.015 C 
ATOM     19  C   UNL     1      -7.346 -12.394  19.528  0.00  0.00    +0.007 C 
ATOM     20  C   UNL     1      -6.249 -10.146  19.474  0.00  0.00    +0.007 C 
ENDBRANCH  10  13
ENDBRANCH   6  10
TORSDOF 5
ENDMDL
MODEL 4
REMARK VINA RESULT:      -7.1     18.651     21.791
REMARK  Name = 51137997
REMARK  8 active torsions:
REMARK  status: ('A' for Active; 'I' for Inactive)
REMARK    1  A    between atoms: N_4  and  C_22
REMARK    2  A    between atoms: N_5  and  C_23
REMARK    3  A    between atoms: C_6  and  C_10
REMARK    4  A    between atoms: C_8  and  C_17
REMARK    5  A    between atoms: C_10  and  C_13
REMARK    6  A    between atoms: C_13  and  C_19
REMARK    7  A    between atoms: C_13  and  C_20
REMARK    8  A    between atoms: C_23  and  C_24
REMARK                            x       y       z     vdW  Elec       q    Type
REMARK                         _______ _______ _______ _____ _____    ______ ____
ROOT
ATOM      3  N   UNL     1      -6.828 -11.320  16.199  0.00  0.00    -0.299 NA
ATOM      4  N   UNL     1      -4.140 -10.078  12.108  0.00  0.00    -0.349 N 
ATOM      6  C   UNL     1      -5.442 -11.172  16.663  0.00  0.00    +0.085 C 
ATOM      7  C   UNL     1      -4.388 -10.973  15.570  0.00  0.00    -0.021 A 
ATOM      8  C   UNL     1      -7.373 -10.150  15.527  0.00  0.00    +0.145 C 
ATOM      9  C   UNL     1      -4.662 -10.591  14.225  0.00  0.00    +0.008 A 
ATOM     11  C   UNL     1      -7.266 -10.272  14.008  0.00  0.00    +0.065 C 
ATOM     12  C   UNL     1      -5.864 -10.278  13.500  0.00  0.00    -0.020 A 
ATOM     14  C   UNL     1      -3.603 -10.429  13.324  0.00  0.00    +0.049 A 
ATOM     15  C   UNL     1      -5.496  -9.978  12.203  0.00  0.00    +0.090 A 
ATOM     16  C   UNL     1      -3.018 -11.100  15.917  0.00  0.00    +0.006 A 
ATOM     18  C   UNL     1      -2.263 -10.604  13.674  0.00  0.00    +0.026 A 
ATOM     21  C   UNL     1      -1.987 -10.931  14.995  0.00  0.00    +0.002 A 
ATOM     22  C   UNL     1      -3.389  -9.826  10.897  0.00  0.00    +0.149 C 
ATOM     30  H   UNL     1      -6.933 -12.156  15.625  0.00  0.00    +0.123 HD
ENDROOT
BRANCH   8  17
ATOM      2  O   UNL     1      -9.677 -10.721  15.282  0.00  0.00    -0.274 OA
ATOM      5  N   UNL     1      -9.044  -9.311  17.024  0.00  0.00    -0.310 N 
ATOM     17  C   UNL     1      -8.820 -10.111  15.916  0.00  0.00    +0.231 C 
ATOM     31  H   UNL     1      -8.255  -8.870  17.489  0.00  0.00    +0.149 HD
BRANCH   5  23
ATOM     23  C   UNL     1     -10.356  -9.089  17.586  0.00  0.00    +0.139 C 
BRANCH  23  24
ATOM      1  F   UNL     1     -13.273  -5.244  14.686  0.00  0.00    -0.205 F 
ATOM     24  C   UNL     1     -11.133  -8.064  16.812  0.00  0.00    -0.030 A 
ATOM     25  C   UNL     1     -12.492  -8.262  16.562  0.00  0.00    +0.008 A 
ATOM     26  C   UNL     1     -10.499  -6.913  16.344  0.00  0.00    +0.008 A 
ATOM     27  C   UNL     1     -13.214  -7.310  15.843  0.00  0.00    +0.038 A 
ATOM     28  C   UNL     1     -11.222  -5.961  15.626  0.00  0.00    +0.038 A 
ATOM     29  C   UNL     1     -12.579  -6.159  15.376  0.00  0.00    +0.123 A 
ENDBRANCH  23  24
ENDBRANCH   5  23
ENDBRANCH   8  17
BRANCH   6  10
ATOM     10  C   UNL     1      -5.180 -12.427  17.515  0.00  0.00    +0.026 C 
BRANCH  10  13
ATOM     13  C   UNL     1      -5.005 -12.114  19.004  0.00  0.00    -0.015 C 
ATOM     19  C   UNL     1      -5.565 -10.720  19.295  0.00  0.00    +0.007 C 
ATOM     20  C   UNL     1      -3.546 -12.189  19.455  0.00  0.00    +0.007 C 
ENDBRANCH  10  13
ENDBRANCH   6  10
TORSDOF 5
ENDMDL
MODEL 5
REMARK VINA RESULT:      -7.0     21.190     22.892
REMARK  Name = 51137997
REMARK  8 active torsions:
REMARK  status: ('A' for Active; 'I' for Inactive)
REMARK    1  A    between atoms: N_4  and  C_22
REMARK    2  A    between atoms: N_5  and  C_23
REMARK    3  A    between atoms: C_6  and  C_10
REMARK    4  A    between atoms: C_8  and  C_17
REMARK    5  A    between atoms: C_10  and  C_13
REMARK    6  A    between atoms: C_13  and  C_19
REMARK    7  A    between atoms: C_13  and  C_20
REMARK    8  A    between atoms: C_23  and  C_24
REMARK                            x       y       z     vdW  Elec       q    Type
REMARK                         _______ _______ _______ _____ _____    ______ ____
ROOT
ATOM      3  N   UNL     1      -5.897 -10.549  13.286  0.00  0.00    -0.299 NA
ATOM      4  N   UNL     1      -7.824  -9.471   8.745  0.00  0.00    -0.349 N 
ATOM      6  C   UNL     1      -4.794  -9.957  12.517  0.00  0.00    +0.085 C 
ATOM      7  C   UNL     1      -5.074  -9.706  11.031  0.00  0.00    -0.021 A 
ATOM      8  C   UNL     1      -7.086  -9.716  13.386  0.00  0.00    +0.145 C 
ATOM      9  C   UNL     1      -6.367  -9.679  10.433  0.00  0.00    +0.008 A 
ATOM     11  C   UNL     1      -8.131 -10.100  12.341  0.00  0.00    +0.065 C 
ATOM     12  C   UNL     1      -7.705  -9.839  10.935  0.00  0.00    -0.020 A 
ATOM     14  C   UNL     1      -6.487  -9.426   9.061  0.00  0.00    +0.049 A 
ATOM     15  C   UNL     1      -8.565  -9.712   9.863  0.00  0.00    +0.090 A 
ATOM     16  C   UNL     1      -3.983  -9.401  10.177  0.00  0.00    +0.006 A 
ATOM     18  C   UNL     1      -5.396  -9.172   8.228  0.00  0.00    +0.026 A 
ATOM     21  C   UNL     1      -4.137  -9.152   8.816  0.00  0.00    +0.002 A 
ATOM     22  C   UNL     1      -8.384  -9.273   7.425  0.00  0.00    +0.149 C 
ATOM     30  H   UNL     1      -6.127 -11.478  12.937  0.00  0.00    +0.123 HD
ENDROOT
BRANCH   8  17
ATOM      2  O   UNL     1      -8.704 -10.569  14.918  0.00  0.00    -0.274 OA
ATOM      5  N   UNL     1      -6.827  -9.473  15.754  0.00  0.00    -0.310 N 
ATOM     17  C   UNL     1      -7.638  -9.981  14.754  0.00  0.00    +0.231 C 
ATOM     31  H   UNL     1      -5.950  -9.024  15.506  0.00  0.00    +0.149 HD
BRANCH   5  23
ATOM     23  C   UNL     1      -7.147  -9.578  17.159  0.00  0.00    +0.139 C 
BRANCH  23  24
ATOM      1  F   UNL     1      -3.287 -12.545  19.988  0.00  0.00    -0.205 F 
ATOM     24  C   UNL     1      -6.117 -10.369  17.913  0.00  0.00    -0.030 A 
ATOM     25  C   UNL     1      -6.361 -10.752  19.233  0.00  0.00    +0.008 A 
ATOM     26  C   UNL     1      -4.918 -10.722  17.295  0.00  0.00    +0.008 A 
ATOM     27  C   UNL     1      -5.405 -11.486  19.934  0.00  0.00    +0.038 A 
ATOM     28  C   UNL     1      -3.962 -11.456  17.996  0.00  0.00    +0.038 A 
ATOM     29  C   UNL     1      -4.205 -11.839  19.315  0.00  0.00    +0.123 A 
ENDBRANCH  23  24
ENDBRANCH   5  23
ENDBRANCH   8  17
BRANCH   6  10
ATOM     10  C   UNL     1      -3.606 -10.909  12.742  0.00  0.00    +0.026 C 
BRANCH  10  13
ATOM     13  C   UNL     1      -3.320 -11.168  14.224  0.00  0.00    -0.015 C 
ATOM     19  C   UNL     1      -2.051 -10.416  14.631  0.00  0.00    +0.007 C 
ATOM     20  C   UNL     1      -3.165 -12.655  14.544  0.00  0.00    +0.007 C 
ENDBRANCH  10  13
ENDBRANCH   6  10
TORSDOF 5
ENDMDL
MODEL 6
REMARK VINA RESULT:      -6.9     20.845     23.391
REMARK  Name = 51137997
REMARK  8 active torsions:
REMARK  status: ('A' for Active; 'I' for Inactive)
REMARK    1  A    between atoms: N_4  and  C_22
REMARK    2  A    between atoms: N_5  and  C_23
REMARK    3  A    between atoms: C_6  and  C_10
REMARK    4  A    between atoms: C_8  and  C_17
REMARK    5  A    between atoms: C_10  and  C_13
REMARK    6  A    between atoms: C_13  and  C_19
REMARK    7  A    between atoms: C_13  and  C_20
REMARK    8  A    between atoms: C_23  and  C_24
REMARK                            x       y       z     vdW  Elec       q    Type
REMARK                         _______ _______ _______ _____ _____    ______ ____
ROOT
ATOM      3  N   UNL     1      -6.728 -10.677  17.259  0.00  0.00    -0.299 NA
ATOM      4  N   UNL     1      -9.907 -12.961  20.449  0.00  0.00    -0.349 N 
ATOM      6  C   UNL     1      -7.832  -9.730  17.466  0.00  0.00    +0.085 C 
ATOM      7  C   UNL     1      -9.030 -10.262  18.260  0.00  0.00    -0.021 A 
ATOM      8  C   UNL     1      -6.058 -11.106  18.476  0.00  0.00    +0.145 C 
ATOM      9  C   UNL     1      -9.020 -11.431  19.074  0.00  0.00    +0.008 A 
ATOM     11  C   UNL     1      -6.594 -12.448  18.970  0.00  0.00    +0.065 C 
ATOM     12  C   UNL     1      -8.017 -12.403  19.417  0.00  0.00    -0.020 A 
ATOM     14  C   UNL     1     -10.182 -11.803  19.761  0.00  0.00    +0.049 A 
ATOM     15  C   UNL     1      -8.608 -13.327  20.255  0.00  0.00    +0.090 A 
ATOM     16  C   UNL     1     -10.232  -9.509  18.261  0.00  0.00    +0.006 A 
ATOM     18  C   UNL     1     -11.370 -11.073  19.713  0.00  0.00    +0.026 A 
ATOM     21  C   UNL     1     -11.371  -9.907  18.957  0.00  0.00    +0.002 A 
ATOM     22  C   UNL     1     -10.842 -13.688  21.281  0.00  0.00    +0.149 C 
ATOM     30  H   UNL     1      -7.033 -11.476  16.704  0.00  0.00    +0.123 HD
ENDROOT
BRANCH   8  17
ATOM      2  O   UNL     1      -3.807 -11.809  18.843  0.00  0.00    -0.274 OA
ATOM      5  N   UNL     1      -4.337 -10.712  16.858  0.00  0.00    -0.310 N 
ATOM     17  C   UNL     1      -4.616 -11.263  18.098  0.00  0.00    +0.231 C 
ATOM     31  H   UNL     1      -5.090 -10.305  16.312  0.00  0.00    +0.149 HD
BRANCH   5  23
ATOM     23  C   UNL     1      -3.016 -10.713  16.273  0.00  0.00    +0.139 C 
BRANCH  23  24
ATOM      1  F   UNL     1      -3.201 -10.418  10.654  0.00  0.00    -0.205 F 
ATOM     24  C   UNL     1      -3.065 -10.635  14.775  0.00  0.00    -0.030 A 
ATOM     25  C   UNL     1      -4.285 -10.760  14.110  0.00  0.00    +0.008 A 
ATOM     26  C   UNL     1      -1.892 -10.435  14.047  0.00  0.00    +0.008 A 
ATOM     27  C   UNL     1      -4.331 -10.688  12.718  0.00  0.00    +0.038 A 
ATOM     28  C   UNL     1      -1.938 -10.363  12.656  0.00  0.00    +0.038 A 
ATOM     29  C   UNL     1      -3.157 -10.488  11.990  0.00  0.00    +0.123 A 
ENDBRANCH  23  24
ENDBRANCH   5  23
ENDBRANCH   8  17
BRANCH   6  10
ATOM     10  C   UNL     1      -8.221  -9.268  16.050  0.00  0.00    +0.026 C 
BRANCH  10  13
ATOM     13  C   UNL     1      -8.153 -10.393  15.014  0.00  0.00    -0.015 C 
ATOM     19  C   UNL     1      -7.841  -9.795  13.640  0.00  0.00    +0.007 C 
ATOM     20  C   UNL     1      -9.444 -11.208  14.942  0.00  0.00    +0.007 C 
ENDBRANCH  10  13
ENDBRANCH   6  10
TORSDOF 5
ENDMDL
MODEL 7
REMARK VINA RESULT:      -6.9     26.569     31.214
REMARK  Name = 51137997
REMARK  8 active torsions:
REMARK  status: ('A' for Active; 'I' for Inactive)
REMARK    1  A    between atoms: N_4  and  C_22
REMARK    2  A    between atoms: N_5  and  C_23
REMARK    3  A    between atoms: C_6  and  C_10
REMARK    4  A    between atoms: C_8  and  C_17
REMARK    5  A    between atoms: C_10  and  C_13
REMARK    6  A    between atoms: C_13  and  C_19
REMARK    7  A    between atoms: C_13  and  C_20
REMARK    8  A    between atoms: C_23  and  C_24
REMARK                            x       y       z     vdW  Elec       q    Type
REMARK                         _______ _______ _______ _____ _____    ______ ____
ROOT
ATOM      3  N   UNL     1      10.211   6.607   3.080  0.00  0.00    -0.299 NA
ATOM      4  N   UNL     1       9.592   5.673   8.004  0.00  0.00    -0.349 N 
ATOM      6  C   UNL     1      10.543   7.862   3.768  0.00  0.00    +0.085 C 
ATOM      7  C   UNL     1      10.258   7.896   5.273  0.00  0.00    -0.021 A 
ATOM      8  C   UNL     1      10.983   5.453   3.513  0.00  0.00    +0.145 C 
ATOM      9  C   UNL     1      10.030   6.752   6.091  0.00  0.00    +0.008 A 
ATOM     11  C   UNL     1      10.224   4.626   4.550  0.00  0.00    +0.065 C 
ATOM     12  C   UNL     1      10.003   5.336   5.844  0.00  0.00    -0.020 A 
ATOM     14  C   UNL     1       9.793   6.919   7.461  0.00  0.00    +0.049 A 
ATOM     15  C   UNL     1       9.722   4.713   7.044  0.00  0.00    +0.090 A 
ATOM     16  C   UNL     1      10.292   9.147   5.942  0.00  0.00    +0.006 A 
ATOM     18  C   UNL     1       9.785   8.163   8.093  0.00  0.00    +0.026 A 
ATOM     21  C   UNL     1      10.053   9.278   7.308  0.00  0.00    +0.002 A 
ATOM     22  C   UNL     1       9.304   5.397   9.395  0.00  0.00    +0.149 C 
ATOM     30  H   UNL     1       9.210   6.421   3.128  0.00  0.00    +0.123 HD
ENDROOT
BRANCH   8  17
ATOM      2  O   UNL     1      10.406   4.685   1.329  0.00  0.00    -0.274 OA
ATOM      5  N   UNL     1      12.300   3.814   2.367  0.00  0.00    -0.310 N 
ATOM     17  C   UNL     1      11.183   4.627   2.278  0.00  0.00    +0.231 C 
ATOM     31  H   UNL     1      12.890   3.864   3.192  0.00  0.00    +0.149 HD
BRANCH   5  23
ATOM     23  C   UNL     1      12.700   2.905   1.318  0.00  0.00    +0.139 C 
BRANCH  23  24
ATOM      1  F   UNL     1      16.652   5.139  -2.013  0.00  0.00    -0.205 F 
ATOM     24  C   UNL     1      13.754   3.501   0.430  0.00  0.00    -0.030 A 
ATOM     25  C   UNL     1      13.473   3.753  -0.914  0.00  0.00    +0.008 A 
ATOM     26  C   UNL     1      15.014   3.803   0.947  0.00  0.00    +0.008 A 
ATOM     27  C   UNL     1      14.452   4.306  -1.739  0.00  0.00    +0.038 A 
ATOM     28  C   UNL     1      15.992   4.356   0.122  0.00  0.00    +0.038 A 
ATOM     29  C   UNL     1      15.712   4.608  -1.221  0.00  0.00    +0.123 A 
ENDBRANCH  23  24
ENDBRANCH   5  23
ENDBRANCH   8  17
BRANCH   6  10
ATOM     10  C   UNL     1       9.771   8.947   2.996  0.00  0.00    +0.026 C 
BRANCH  10  13
ATOM     13  C   UNL     1       8.334   8.536   2.663  0.00  0.00    -0.015 C 
ATOM     19  C   UNL     1       7.967   9.066   1.275  0.00  0.00    +0.007 C 
ATOM     20  C   UNL     1       7.322   9.038   3.693  0.00  0.00    +0.007 C 
ENDBRANCH  10  13
ENDBRANCH   6  10
TORSDOF 5
ENDMDL
MODEL 8
REMARK VINA RESULT:      -6.8     20.388     22.838
REMARK  Name = 51137997
REMARK  8 active torsions:
REMARK  status: ('A' for Active; 'I' for Inactive)
REMARK    1  A    between atoms: N_4  and  C_22
REMARK    2  A    between atoms: N_5  and  C_23
REMARK    3  A    between atoms: C_6  and  C_10
REMARK    4  A    between atoms: C_8  and  C_17
REMARK    5  A    between atoms: C_10  and  C_13
REMARK    6  A    between atoms: C_13  and  C_19
REMARK    7  A    between atoms: C_13  and  C_20
REMARK    8  A    between atoms: C_23  and  C_24
REMARK                            x       y       z     vdW  Elec       q    Type
REMARK                         _______ _______ _______ _____ _____    ______ ____
ROOT
ATOM      3  N   UNL     1      -3.961 -11.305  14.552  0.00  0.00    -0.299 NA
ATOM      4  N   UNL     1      -6.793  -9.127  10.983  0.00  0.00    -0.349 N 
ATOM      6  C   UNL     1      -3.015 -10.782  13.557  0.00  0.00    +0.085 C 
ATOM      7  C   UNL     1      -3.635 -10.228  12.270  0.00  0.00    -0.021 A 
ATOM      8  C   UNL     1      -4.868 -10.313  15.110  0.00  0.00    +0.145 C 
ATOM      9  C   UNL     1      -5.005  -9.876  12.106  0.00  0.00    +0.008 A 
ATOM     11  C   UNL     1      -6.219 -10.323  14.398  0.00  0.00    +0.065 C 
ATOM     12  C   UNL     1      -6.153  -9.893  12.971  0.00  0.00    -0.020 A 
ATOM     14  C   UNL     1      -5.444  -9.366  10.877  0.00  0.00    +0.049 A 
ATOM     15  C   UNL     1      -7.230  -9.434  12.238  0.00  0.00    +0.090 A 
ATOM     16  C   UNL     1      -2.784  -9.965  11.166  0.00  0.00    +0.006 A 
ATOM     18  C   UNL     1      -4.599  -9.158   9.786  0.00  0.00    +0.026 A 
ATOM     21  C   UNL     1      -3.253  -9.456   9.957  0.00  0.00    +0.002 A 
ATOM     22  C   UNL     1      -7.641  -8.606   9.932  0.00  0.00    +0.149 C 
ATOM     30  H   UNL     1      -4.473 -12.105  14.181  0.00  0.00    +0.123 HD
ENDROOT
BRANCH   8  17
ATOM      2  O   UNL     1      -4.131 -11.121  17.231  0.00  0.00    -0.274 OA
ATOM      5  N   UNL     1      -6.383 -10.605  16.941  0.00  0.00    -0.310 N 
ATOM     17  C   UNL     1      -5.063 -10.720  16.540  0.00  0.00    +0.231 C 
ATOM     31  H   UNL     1      -7.072 -10.237  16.292  0.00  0.00    +0.149 HD
BRANCH   5  23
ATOM     23  C   UNL     1      -6.839 -10.955  18.266  0.00  0.00    +0.139 C 
BRANCH  23  24
ATOM      1  F   UNL     1     -12.181  -9.404  19.136  0.00  0.00    -0.205 F 
ATOM     24  C   UNL     1      -8.263 -10.542  18.499  0.00  0.00    -0.030 A 
ATOM     25  C   UNL     1      -8.869  -9.618  17.646  0.00  0.00    +0.008 A 
ATOM     26  C   UNL     1      -8.982 -11.081  19.566  0.00  0.00    +0.008 A 
ATOM     27  C   UNL     1     -10.192  -9.233  17.862  0.00  0.00    +0.038 A 
ATOM     28  C   UNL     1     -10.304 -10.696  19.781  0.00  0.00    +0.038 A 
ATOM     29  C   UNL     1     -10.910  -9.773  18.929  0.00  0.00    +0.123 A 
ENDBRANCH  23  24
ENDBRANCH   5  23
ENDBRANCH   8  17
BRANCH   6  10
ATOM     10  C   UNL     1      -2.044 -11.946  13.291  0.00  0.00    +0.026 C 
BRANCH  10  13
ATOM     13  C   UNL     1      -2.751 -13.299  13.173  0.00  0.00    -0.015 C 
ATOM     19  C   UNL     1      -1.911 -14.370  13.871  0.00  0.00    +0.007 C 
ATOM     20  C   UNL     1      -3.006 -13.707  11.722  0.00  0.00    +0.007 C 
ENDBRANCH  10  13
ENDBRANCH   6  10
TORSDOF 5
ENDMDL
MODEL 9
REMARK VINA RESULT:      -6.8     31.701     33.086
REMARK  Name = 51137997
REMARK  8 active torsions:
REMARK  status: ('A' for Active; 'I' for Inactive)
REMARK    1  A    between atoms: N_4  and  C_22
REMARK    2  A    between atoms: N_5  and  C_23
REMARK    3  A    between atoms: C_6  and  C_10
REMARK    4  A    between atoms: C_8  and  C_17
REMARK    5  A    between atoms: C_10  and  C_13
REMARK    6  A    between atoms: C_13  and  C_19
REMARK    7  A    between atoms: C_13  and  C_20
REMARK    8  A    between atoms: C_23  and  C_24
REMARK                            x       y       z     vdW  Elec       q    Type
REMARK                         _______ _______ _______ _____ _____    ______ ____
ROOT
ATOM      3  N   UNL     1      17.367  -4.273  25.934  0.00  0.00    -0.299 NA
ATOM      4  N   UNL     1      20.139  -1.378  29.005  0.00  0.00    -0.349 N 
ATOM      6  C   UNL     1      18.524  -3.843  25.138  0.00  0.00    +0.085 C 
ATOM      7  C   UNL     1      19.434  -2.797  25.790  0.00  0.00    -0.021 A 
ATOM      8  C   UNL     1      17.702  -4.962  27.171  0.00  0.00    +0.145 C 
ATOM      9  C   UNL     1      19.449  -2.475  27.178  0.00  0.00    +0.008 A 
ATOM     11  C   UNL     1      17.674  -4.012  28.368  0.00  0.00    +0.065 C 
ATOM     12  C   UNL     1      18.726  -2.955  28.324  0.00  0.00    -0.020 A 
ATOM     14  C   UNL     1      20.341  -1.505  27.651  0.00  0.00    +0.049 A 
ATOM     15  C   UNL     1      19.176  -2.247  29.422  0.00  0.00    +0.090 A 
ATOM     16  C   UNL     1      20.398  -2.139  24.985  0.00  0.00    +0.006 A 
ATOM     18  C   UNL     1      21.252  -0.835  26.833  0.00  0.00    +0.026 A 
ATOM     21  C   UNL     1      21.274  -1.179  25.488  0.00  0.00    +0.002 A 
ATOM     22  C   UNL     1      20.851  -0.472  29.881  0.00  0.00    +0.149 C 
ATOM     30  H   UNL     1      16.733  -3.493  26.106  0.00  0.00    +0.123 HD
ENDROOT
BRANCH   8  17
ATOM      2  O   UNL     1      16.228  -6.674  26.402  0.00  0.00    -0.274 OA
ATOM      5  N   UNL     1      16.181  -6.072  28.651  0.00  0.00    -0.310 N 
ATOM     17  C   UNL     1      16.635  -6.000  27.345  0.00  0.00    +0.231 C 
ATOM     31  H   UNL     1      16.607  -5.483  29.360  0.00  0.00    +0.149 HD
BRANCH   5  23
ATOM     23  C   UNL     1      15.139  -6.978  29.076  0.00  0.00    +0.139 C 
BRANCH  23  24
ATOM      1  F   UNL     1      11.764  -4.646  32.931  0.00  0.00    -0.205 F 
ATOM     24  C   UNL     1      14.239  -6.357  30.104  0.00  0.00    -0.030 A 
ATOM     25  C   UNL     1      14.694  -5.285  30.873  0.00  0.00    +0.008 A 
ATOM     26  C   UNL     1      12.947  -6.849  30.290  0.00  0.00    +0.008 A 
ATOM     27  C   UNL     1      13.859  -4.708  31.829  0.00  0.00    +0.038 A 
ATOM     28  C   UNL     1      12.112  -6.271  31.246  0.00  0.00    +0.038 A 
ATOM     29  C   UNL     1      12.567  -5.201  32.015  0.00  0.00    +0.123 A 
ENDBRANCH  23  24
ENDBRANCH   5  23
ENDBRANCH   8  17
BRANCH   6  10
ATOM     10  C   UNL     1      17.923  -3.355  23.808  0.00  0.00    +0.026 C 
BRANCH  10  13
ATOM     13  C   UNL     1      16.706  -2.446  24.000  0.00  0.00    -0.015 C 
ATOM     19  C   UNL     1      15.642  -2.800  22.957  0.00  0.00    +0.007 C 
ATOM     20  C   UNL     1      17.055  -0.961  23.897  0.00  0.00    +0.007 C 
ENDBRANCH  10  13
ENDBRANCH   6  10
TORSDOF 5
ENDMDL
MODEL 10
REMARK VINA RESULT:      -6.7     18.570     21.693
REMARK  Name = 51137997
REMARK  8 active torsions:
REMARK  status: ('A' for Active; 'I' for Inactive)
REMARK    1  A    between atoms: N_4  and  C_22
REMARK    2  A    between atoms: N_5  and  C_23
REMARK    3  A    between atoms: C_6  and  C_10
REMARK    4  A    between atoms: C_8  and  C_17
REMARK    5  A    between atoms: C_10  and  C_13
REMARK    6  A    between atoms: C_13  and  C_19
REMARK    7  A    between atoms: C_13  and  C_20
REMARK    8  A    between atoms: C_23  and  C_24
REMARK                            x       y       z     vdW  Elec       q    Type
REMARK                         _______ _______ _______ _____ _____    ______ ____
ROOT
ATOM      3  N   UNL     1      -9.133 -10.284  19.190  0.00  0.00    -0.299 NA
ATOM      4  N   UNL     1     -11.152  -7.136  15.796  0.00  0.00    -0.349 N 
ATOM      6  C   UNL     1     -10.514 -10.743  18.994  0.00  0.00    +0.085 C 
ATOM      7  C   UNL     1     -11.406  -9.837  18.138  0.00  0.00    -0.021 A 
ATOM      8  C   UNL     1      -8.336 -10.215  17.974  0.00  0.00    +0.145 C 
ATOM      9  C   UNL     1     -10.938  -8.810  17.270  0.00  0.00    +0.008 A 
ATOM     11  C   UNL     1      -8.309  -8.799  17.400  0.00  0.00    +0.065 C 
ATOM     12  C   UNL     1      -9.634  -8.319  16.912  0.00  0.00    -0.020 A 
ATOM     14  C   UNL     1     -11.859  -8.058  16.530  0.00  0.00    +0.049 A 
ATOM     15  C   UNL     1      -9.815  -7.287  16.012  0.00  0.00    +0.090 A 
ATOM     16  C   UNL     1     -12.805 -10.069  18.136  0.00  0.00    +0.006 A 
ATOM     18  C   UNL     1     -13.238  -8.272  16.576  0.00  0.00    +0.026 A 
ATOM     21  C   UNL     1     -13.696  -9.304  17.386  0.00  0.00    +0.002 A 
ATOM     22  C   UNL     1     -11.725  -6.154  14.902  0.00  0.00    +0.149 C 
ATOM     30  H   UNL     1      -9.112  -9.399  19.695  0.00  0.00    +0.123 HD
ENDROOT
BRANCH   8  17
ATOM      2  O   UNL     1      -6.702 -11.005  19.523  0.00  0.00    -0.274 OA
ATOM      5  N   UNL     1      -6.029 -10.429  17.370  0.00  0.00    -0.310 N 
ATOM     17  C   UNL     1      -6.949 -10.603  18.390  0.00  0.00    +0.231 C 
ATOM     31  H   UNL     1      -6.347 -10.113  16.459  0.00  0.00    +0.149 HD
BRANCH   5  23
ATOM     23  C   UNL     1      -4.620 -10.710  17.522  0.00  0.00    +0.139 C 
BRANCH  23  24
ATOM      1  F   UNL     1      -1.873 -10.440  12.615  0.00  0.00    -0.205 F 
ATOM     24  C   UNL     1      -3.888 -10.638  16.213  0.00  0.00    -0.030 A 
ATOM     25  C   UNL     1      -2.494 -10.575  16.196  0.00  0.00    +0.008 A 
ATOM     26  C   UNL     1      -4.600 -10.635  15.013  0.00  0.00    +0.008 A 
ATOM     27  C   UNL     1      -1.813 -10.508  14.981  0.00  0.00    +0.038 A 
ATOM     28  C   UNL     1      -3.919 -10.567  13.798  0.00  0.00    +0.038 A 
ATOM     29  C   UNL     1      -2.526 -10.504  13.782  0.00  0.00    +0.123 A 
ENDBRANCH  23  24
ENDBRANCH   5  23
ENDBRANCH   8  17
BRANCH   6  10
ATOM     10  C   UNL     1     -11.066 -10.941  20.417  0.00  0.00    +0.026 C 
BRANCH  10  13
ATOM     13  C   UNL     1     -11.474 -12.388  20.705  0.00  0.00    -0.015 C 
ATOM     19  C   UNL     1     -11.077 -13.270  19.518  0.00  0.00    +0.007 C 
ATOM     20  C   UNL     1     -12.970 -12.536  20.981  0.00  0.00    +0.007 C 
ENDBRANCH  10  13
ENDBRANCH   6  10
TORSDOF 5
ENDMDL
